data_mof_unit_16800.cif
_audit_creation_date              2012-12-11T14:30:14-0500
_audit_creation_method            fapswitch 2.2
_symmetry_space_group_name_H-M    P1
_symmetry_Int_Tables_number       1
_space_group_crystal_system       triclinic
_cell_length_a                    12.698848
_cell_length_b                    12.701221
_cell_length_c                    27.071374
_cell_angle_alpha                 89.999981
_cell_angle_beta                  89.999982
_cell_angle_gamma                 119.967962
_cell_volume                      3782.60370525

loop_
_atom_site_label
_atom_site_type_symbol
_atom_type_description
_atom_site_fract_x
_atom_site_fract_y
_atom_site_fract_z
_atom_type_partial_charge
C1    C     C_R   0.558345 0.455702 0.822248 0.542721
C2    C     C_R   0.456480 0.559008 0.177631 0.543222
C3    C     C_R   0.052182 0.332723 0.478990 0.150249
C4    C     C_R   0.283939 0.952096 0.021376 0.105077
C5    C     C_R   0.666685 0.716383 0.478684 0.143989
C6    C     C_R   0.292073 0.960050 0.530273 0.132296
C7    C     C_R   0.045706 0.334080 0.969090 0.111922
C8    C     C_R   0.665267 0.710280 0.530260 0.138985
C9    C     C_R   0.292072 0.960049 0.969727 0.132296
C10   C     C_R   0.045704 0.334078 0.530910 0.111922
C11   C     C_R   0.665265 0.710281 0.969739 0.138985
C12   C     C_R   0.441061 0.897734 0.322310 0.543817
C13   C     C_R   0.103375 0.543690 0.177485 0.543687
C14   C     C_R   0.985336 0.489477 0.974404 0.035574
C15   C     C_R   0.505657 0.014151 0.525458 0.026010
C16   C     C_R   0.504342 0.496940 0.973846 0.034217
C17   C     C_R   0.985336 0.489477 0.525595 0.035574
C18   C     C_R   0.505657 0.014152 0.974542 0.026010
C19   C     C_R   0.504342 0.496940 0.526154 0.034217
C20   C     C_R   0.496043 0.000051 0.473886 0.034939
C21   C     C_R   0.896739 0.441321 0.677676 0.544403
C22   C     C_R   0.000884 0.494658 0.025841 0.029759
C23   C     C_R   0.499908 0.505850 0.474512 0.031943
C24   C     C_R   0.496043 0.000052 0.026114 0.034939
C25   C     C_R   0.000884 0.494657 0.474159 0.029759
C26   C     C_R   0.499908 0.505849 0.025488 0.031943
C27   C     C_R   0.917993 0.638101 0.980444 -0.126017
C28   C     C_R   0.719427 0.072439 0.520397 -0.095917
C29   C     C_R   0.346278 0.284180 0.978575 -0.108176
C30   C     C_R   0.917995 0.638102 0.519556 -0.126019
C31   C     C_R   0.719427 0.072442 0.979603 -0.095915
C32   C     C_R   0.544621 0.103281 0.822368 0.542980
C33   C     C_R   0.346276 0.284181 0.521425 -0.108175
C34   C     C_R   0.709127 0.055950 0.469291 -0.106485
C35   C     C_R   0.937046 0.645882 0.031345 -0.115181
C36   C     C_R   0.339079 0.294329 0.470349 -0.096138
C37   C     C_R   0.709127 0.055953 0.030709 -0.106484
C38   C     C_R   0.937048 0.645883 0.468655 -0.115182
C39   C     C_R   0.339081 0.294328 0.029651 -0.096138
C40   C     C_R   0.925839 0.555215 0.900579 -0.131824
C41   C     C_R   0.628513 0.068854 0.599934 -0.139630
C42   C     C_R   0.436943 0.373931 0.899388 -0.136628
C43   C     C_R   0.558345 0.455702 0.677752 0.542721
C44   C     C_R   0.925840 0.555216 0.599421 -0.131823
C45   C     C_R   0.628513 0.068856 0.900066 -0.139630
C46   C     C_R   0.436942 0.373932 0.600612 -0.136628
C47   C     C_R   0.583237 0.988437 0.395080 -0.144203
C48   C     C_R   0.010007 0.591691 0.104883 -0.146090
C49   C     C_R   0.400645 0.418528 0.395799 -0.128531
C50   C     C_R   0.583237 0.988438 0.104920 -0.144204
C51   C     C_R   0.010007 0.591691 0.395117 -0.146089
C52   C     C_R   0.400646 0.418527 0.104201 -0.128531
C53   C     C_R   0.052387 0.520617 0.127221 -0.008746
C54   C     C_R   0.896739 0.441321 0.822324 0.544402
C55   C     C_R   0.471229 0.951671 0.372199 -0.001840
C56   C     C_R   0.479149 0.528829 0.127565 -0.005889
C57   C     C_R   0.052386 0.520617 0.372779 -0.008746
C58   C     C_R   0.471229 0.951671 0.127801 -0.001840
C59   C     C_R   0.479149 0.528829 0.372435 -0.005888
C60   C     C_R   0.527787 0.051723 0.627797 -0.019231
C61   C     C_R   0.947892 0.475814 0.872169 -0.003924
C62   C     C_R   0.522145 0.473822 0.628305 -0.006740
C63   C     C_R   0.527787 0.051723 0.872203 -0.019232
C64   C     C_R   0.947892 0.475814 0.627831 -0.003924
C65   C     C_R   0.544621 0.103281 0.677632 0.542981
C66   C     C_R   0.522145 0.473821 0.871695 -0.006740
C67   C     C_R   0.944348 0.562506 0.951607 0.010580
C68   C     C_R   0.618093 0.050304 0.548817 0.010781
C69   C     C_R   0.427378 0.384925 0.950366 0.016967
C70   C     C_R   0.944349 0.562506 0.548393 0.010581
C71   C     C_R   0.618093 0.050306 0.951183 0.010781
C72   C     C_R   0.427378 0.384926 0.549634 0.016966
C73   C     C_R   0.597226 0.016334 0.445770 0.015734
C74   C     C_R   0.981467 0.577146 0.054309 0.016144
C75   C     C_R   0.413424 0.405201 0.446611 0.032771
C76   C     C_R   0.456480 0.559008 0.322369 0.543222
C77   C     C_R   0.597227 0.016336 0.054230 0.015734
C78   C     C_R   0.981468 0.577147 0.445691 0.016144
C79   C     C_R   0.413425 0.405200 0.053389 0.032772
C80   C     C_R   0.995812 0.409511 0.894534 -0.136819
C81   C     C_R   0.414761 0.008015 0.604821 -0.116794
C82   C     C_R   0.590767 0.587219 0.894562 -0.140651
C83   C     C_R   0.995811 0.409510 0.605466 -0.136819
C84   C     C_R   0.414761 0.008014 0.895179 -0.116794
C85   C     C_R   0.590768 0.587219 0.605438 -0.140651
C86   C     C_R   0.376632 0.950983 0.399541 -0.128217
C87   C     C_R   0.441061 0.897734 0.177690 0.543817
C88   C     C_R   0.059578 0.430769 0.099377 -0.118317
C89   C     C_R   0.574331 0.622372 0.399600 -0.133789
C90   C     C_R   0.376632 0.950982 0.100459 -0.128217
C91   C     C_R   0.059576 0.430768 0.400622 -0.118317
C92   C     C_R   0.574330 0.622372 0.100400 -0.133789
C93   C     C_R   0.011058 0.411870 0.945766 -0.005458
C94   C     C_R   0.403086 0.992309 0.553682 0.021043
C95   C     C_R   0.586041 0.599497 0.945747 -0.017340
C96   C     C_R   0.011057 0.411868 0.554234 -0.005458
C97   C     C_R   0.403086 0.992309 0.946318 0.021043
C98   C     C_R   0.103375 0.543690 0.322515 0.543687
C99   C     C_R   0.586042 0.599497 0.554252 -0.017340
C100  C     C_R   0.385299 0.969181 0.450456 -0.005226
C101  C     C_R   0.036391 0.418035 0.048842 0.005469
C102  C     C_R   0.582016 0.615041 0.450727 -0.020020
C103  C     C_R   0.385298 0.969180 0.049544 -0.005227
C104  C     C_R   0.036390 0.418034 0.451158 0.005470
C105  C     C_R   0.582016 0.615041 0.049273 -0.020020
C106  C     C_R   0.052184 0.332725 0.021010 0.150250
C107  C     C_R   0.283940 0.952098 0.478624 0.105076
C108  C     C_R   0.666683 0.716384 0.021316 0.143990
Cr1   Cr    Cr6+3 0.487630 0.241180 0.750000 1.017601
Cr2   Cr    Cr6+3 0.753550 0.512370 0.750000 1.013958
Cr3   Cr    Cr6+3 0.758820 0.246450 0.750000 1.011068
Cr4   Cr    Cr6+3 0.241180 0.487630 0.250000 1.013698
Cr5   Cr    Cr6+3 0.512370 0.753550 0.250000 1.009965
Cr6   Cr    Cr6+3 0.246450 0.758820 0.250000 1.010383
H1    H     H_    0.002282 0.659593 0.126335 0.107558
H2    H     H_    0.716576 0.103564 0.882602 0.129473
H3    H     H_    0.887620 0.605986 0.616435 0.130260
H4    H     H_    0.383450 0.285885 0.881952 0.133965
H5    H     H_    0.918868 0.707036 0.052696 0.119706
H6    H     H_    0.788278 0.072353 0.448209 0.114486
H7    H     H_    0.275326 0.215504 0.050650 0.121354
H8    H     H_    0.918871 0.707039 0.447304 0.119707
H9    H     H_    0.788279 0.072357 0.051792 0.114486
H10   H     H_    0.275324 0.215505 0.449351 0.121357
H11   H     H_    0.806410 0.101513 0.537744 0.131059
H12   H     H_    0.657503 0.991983 0.373991 0.106961
H13   H     H_    0.884969 0.693078 0.963465 0.125628
H14   H     H_    0.287905 0.197791 0.539005 0.128358
H15   H     H_    0.806411 0.101517 0.962256 0.131059
H16   H     H_    0.884973 0.693080 0.536535 0.125629
H17   H     H_    0.287907 0.197789 0.960995 0.128359
H18   H     H_    0.092582 0.375835 0.116543 0.170321
H19   H     H_    0.291721 0.926663 0.381432 0.140188
H20   H     H_    0.637365 0.705698 0.118909 0.137107
H21   H     H_    0.092579 0.375833 0.383456 0.170320
H22   H     H_    0.291720 0.926661 0.118568 0.140189
H23   H     H_    0.328497 0.345019 0.125053 0.120841
H24   H     H_    0.637366 0.705697 0.381091 0.137107
H25   H     H_    0.337478 0.994457 0.626653 0.173048
H26   H     H_    0.013054 0.349660 0.871846 0.131457
H27   H     H_    0.654466 0.663727 0.627484 0.129569
H28   H     H_    0.337477 0.994456 0.873347 0.173048
H29   H     H_    0.013052 0.349658 0.628154 0.131457
H30   H     H_    0.654464 0.663727 0.872515 0.129568
H31   H     H_    0.000660 0.193425 0.068992 0.205099
H32   H     H_    0.077914 0.183911 0.021569 0.270953
H33   H     H_    0.187731 0.996505 0.431723 0.217263
H34   H     H_    0.002283 0.659594 0.373665 0.107558
H35   H     H_    0.139020 0.845605 0.435381 0.230901
H36   H     H_    0.809287 0.809486 0.067625 0.209341
H37   H     H_    0.708302 0.859488 0.066038 0.220488
H38   H     H_    0.000657 0.193423 0.431007 0.205099
H39   H     H_    0.077909 0.183908 0.478431 0.270953
H40   H     H_    0.187729 0.996503 0.068276 0.217262
H41   H     H_    0.139019 0.845602 0.064619 0.230902
H42   H     H_    0.809287 0.809482 0.432373 0.209340
H43   H     H_    0.708305 0.859488 0.433962 0.220487
H44   H     H_    0.120700 0.844354 0.553011 0.257914
H45   H     H_    0.657504 0.991986 0.126009 0.106961
H46   H     H_    0.153033 0.989915 0.547029 0.251710
H47   H     H_    0.146974 0.309829 0.917046 0.236364
H48   H     H_    0.999024 0.196125 0.919983 0.218960
H49   H     H_    0.694295 0.839505 0.581076 0.225825
H50   H     H_    0.805634 0.802166 0.578257 0.210887
H51   H     H_    0.120702 0.844353 0.946987 0.257914
H52   H     H_    0.153030 0.989911 0.952971 0.251711
H53   H     H_    0.146971 0.309827 0.582954 0.236364
H54   H     H_    0.999022 0.196123 0.580016 0.218960
H55   H     H_    0.694291 0.839504 0.918922 0.225824
H56   H     H_    0.328495 0.345020 0.374947 0.120842
H57   H     H_    0.805633 0.802167 0.921744 0.210888
H58   H     H_    0.716576 0.103561 0.617398 0.129472
H59   H     H_    0.887618 0.605984 0.883565 0.130260
H60   H     H_    0.383448 0.285886 0.618048 0.133964
N1    N     N_3   0.075000 0.245817 0.046061 -0.642248
N2    N     N_3   0.187147 0.934688 0.940814 -0.649747
N3    N     N_3   0.074775 0.256256 0.559219 -0.656004
N4    N     N_3   0.745948 0.818237 0.942660 -0.597519
N5    N     N_3   0.171363 0.925546 0.455768 -0.652607
N6    N     N_3   0.754490 0.827614 0.044450 -0.597586
N7    N     N_3   0.074997 0.245815 0.453939 -0.642249
N8    N     N_3   0.171362 0.925543 0.044232 -0.652606
N9    N     N_3   0.754494 0.827613 0.455549 -0.597585
N10   N     N_3   0.187147 0.934688 0.559186 -0.649742
N11   N     N_3   0.074777 0.256258 0.940781 -0.656003
N12   N     N_3   0.745952 0.818237 0.557339 -0.597520
O1    O     O_R   0.460870 0.120930 0.805240 -0.520510
O2    O     O_R   0.120930 0.460870 0.194760 -0.524562
O3    O     O_R   0.539130 0.660060 0.305240 -0.523797
O4    O     O_R   0.339940 0.879070 0.194760 -0.524440
O5    O     O_R   0.498910 0.350470 0.801870 -0.501019
O6    O     O_R   0.851560 0.501090 0.698130 -0.500534
O7    O     O_R   0.649530 0.148440 0.801870 -0.500884
O8    O     O_R   0.498910 0.350470 0.698130 -0.501019
O9    O     O_R   0.851560 0.501090 0.801870 -0.500534
O10   O     O_R   0.649530 0.148440 0.698130 -0.500884
O11   O     O_R   0.350470 0.498910 0.301870 -0.498917
O12   O     O_R   0.660060 0.539130 0.694760 -0.522585
O13   O     O_R   0.501090 0.851560 0.198130 -0.498453
O14   O     O_R   0.148440 0.649530 0.301870 -0.498154
O15   O     O_R   0.350470 0.498910 0.198130 -0.498917
O16   O     O_R   0.501090 0.851560 0.301870 -0.498454
O17   O     O_R   0.148440 0.649530 0.198130 -0.498154
O18   O     O_3   0.666667 0.333333 0.750000 -0.235082
O19   O     O_3   0.333333 0.666667 0.250000 -0.233521
O20   O     O_R   0.879070 0.339940 0.805240 -0.522976
O21   O     O_R   0.460870 0.120930 0.694760 -0.520510
O22   O     O_R   0.660060 0.539130 0.805240 -0.522585
O23   O     O_R   0.879070 0.339940 0.694760 -0.522976
O24   O     O_R   0.120930 0.460870 0.305240 -0.524562
O25   O     O_R   0.539130 0.660060 0.194760 -0.523797
O26   O     O_R   0.339940 0.879070 0.305240 -0.524440

loop_
_geom_bond_atom_site_label_1
_geom_bond_atom_site_label_2
_ccdc_geom_bond_type
C3    C104  A    
C35   C74   A    
Cr6   O4    S    
C89   C102  A    
Cr2   O12   S    
Cr4   O11   S    
C35   H5    S    
C87   O13   A    
C91   C104  A    
C58   C87   S    
C15   C94   A    
C88   C101  A    
H41   N8    S    
C64   C83   A    
C29   H17   S    
C44   C64   A    
H51   N2    S    
C5    N9    S    
C98   O24   A    
C108  N6    S    
C2    O25   A    
C22   C101  A    
C46   C62   A    
C43   O8    A    
C18   C24   A    
C84   C97   A    
C44   H3    S    
C47   C55   A    
C28   C68   A    
C8    C99   A    
Cr4   O19   S    
H50   N12   S    
C76   O11   A    
C40   H59   S    
C23   C102  A    
C45   C71   A    
C15   C68   A    
C61   C80   A    
H54   N3    S    
C4    C103  A    
H35   N5    S    
C33   C36   A    
C30   C38   A    
C9    N2    S    
Cr2   O18   S    
C59   C89   A    
Cr6   O26   S    
Cr1   O21   S    
C1    O22   A    
C21   C64   S    
H47   N11   S    
C76   O3    A    
C33   C72   A    
C37   H9    S    
C27   H13   S    
H31   N1    S    
C6    C94   A    
C40   C67   A    
C6    C107  A    
C46   H60   S    
H57   N4    S    
C44   C70   A    
C51   C57   A    
C18   C97   A    
C84   H28   S    
C53   C88   A    
C52   C79   A    
C86   C100  A    
C14   C93   A    
C46   C72   A    
Cr5   O25   S    
Cr3   O10   S    
C65   O10   A    
C107  N5    S    
C11   C108  A    
C31   C71   A    
C28   C34   A    
C17   C70   A    
C13   O2    A    
Cr6   O14   S    
C34   H6    S    
C19   C72   A    
C15   C20   A    
C2    O15   A    
Cr5   O16   S    
Cr4   O15   S    
C26   C105  A    
C30   C70   A    
H42   N9    S    
C1    C66   S    
C41   C68   A    
C29   C69   A    
C16   C26   A    
C48   C53   A    
C7    C93   A    
C62   C85   A    
C25   C78   A    
C50   C58   A    
C48   C74   A    
H38   N7    S    
C50   H45   S    
C27   C67   A    
C47   C73   A    
C82   H30   S    
C85   H27   S    
C11   N4    S    
C19   C99   A    
C42   H4    S    
C21   O6    A    
C38   C78   A    
C27   C35   A    
C30   H16   S    
C37   C77   A    
C45   C63   A    
C33   H14   S    
Cr1   O1    S    
C40   C61   A    
C31   C37   A    
C6    N10   S    
Cr5   O19   S    
C19   C23   A    
Cr3   O23   S    
C13   C53   S    
C85   C99   A    
C36   C75   A    
H33   N5    S    
C66   C82   A    
C90   H22   S    
C60   C81   A    
C24   C77   A    
C86   H19   S    
C20   C100  A    
C10   C96   A    
C14   C67   A    
H32   N1    S    
C29   C39   A    
C49   C75   A    
C52   H23   S    
Cr5   O13   S    
C7    C106  A    
Cr1   O8    S    
C17   C96   A    
C105  C108  A    
C58   C90   A    
Cr3   O20   S    
C12   O26   A    
C38   H8    S    
Cr3   O7    S    
C87   O4    A    
C1    O5    A    
H53   N3    S    
H39   N7    S    
C60   C65   S    
C12   O16   A    
H49   N12   S    
C39   C79   A    
C3    N7    S    
C5    C8    A    
C22   C74   A    
C48   H1    S    
C50   C77   A    
H55   N4    S    
C101  C106  A    
C106  N1    S    
C28   H11   S    
C47   H12   S    
H36   N6    S    
C11   C95   A    
C18   C71   A    
C81   H25   S    
C5    C102  A    
C100  C107  A    
C9    C97   A    
C54   O9    A    
C57   C91   A    
C32   O1    A    
C36   H10   S    
C10   N3    S    
C7    N11   S    
Cr1   O18   S    
C92   H20   S    
C16   C69   A    
C41   C60   A    
C23   C75   A    
C32   O7    A    
C39   H7    S    
Cr3   O18   S    
Cr4   O2    S    
H48   N11   S    
Cr2   O22   S    
C25   C104  A    
C65   O21   A    
C54   C61   S    
C82   C95   A    
C32   C63   S    
Cr5   O3    S    
H52   N2    S    
C26   C79   A    
C49   C59   A    
Cr6   O19   S    
C98   O14   A    
C63   C84   A    
C24   C103  A    
C8    N12   S    
C14   C22   A    
C55   C86   A    
C80   C93   A    
C51   C78   A    
C17   C25   A    
C31   H15   S    
C3    C10   A    
C80   H26   S    
C41   H58   S    
C83   H29   S    
C81   C94   A    
C16   C95   A    
C45   H2    S    
H37   N6    S    
C49   H56   S    
C83   C96   A    
C51   H34   S    
Cr1   O5    S    
C57   C98   S    
H40   N8    S    
Cr2   O6    S    
C21   O23   A    
C20   C73   A    
C43   O12   A    
C42   C69   A    
C90   C103  A    
C12   C55   S    
C54   O20   A    
C34   C73   A    
C13   O17   A    
C92   C105  A    
C56   C92   A    
C91   H21   S    
C89   H24   S    
Cr2   O9    S    
C42   C66   A    
C88   H18   S    
Cr6   O17   S    
C2    C56   S    
H43   N9    S    
C4    N8    S    
C4    C9    A    
H44   N10   S    
C59   C76   S    
H46   N10   S    
C52   C56   A    
C43   C62   S    
Cr4   O24   S    
