data_mof_unit_67970.cif
_audit_creation_date              2012-12-10T20:52:09-0500
_audit_creation_method            fapswitch 2.2
_symmetry_space_group_name_H-M    P1
_symmetry_Int_Tables_number       1
_space_group_crystal_system       triclinic
_cell_length_a                    10.982135
_cell_length_b                    9.03829
_cell_length_c                    8.312595
_cell_angle_alpha                 89.743672
_cell_angle_beta                  92.834865
_cell_angle_gamma                 90.945953
_cell_volume                      823.978278617

loop_
_atom_site_label
_atom_site_type_symbol
_atom_type_description
_atom_site_fract_x
_atom_site_fract_y
_atom_site_fract_z
_atom_type_partial_charge
C1    C     C_R   0.497042 0.218645 0.500003 0.903876
C2    C     C_R   0.501521 0.781375 0.499889 0.908522
C3    C     C_R   0.873609 0.497533 0.509205 -0.145935
C4    C     C_R   0.126612 0.509617 0.490455 -0.141841
C5    C     C_R   0.948078 0.550128 0.640252 0.082494
C6    C     C_R   0.051860 0.462792 0.357788 0.081733
C7    C     C_1   0.497091 0.065091 0.500112 -0.212448
C8    C     C_1   0.499689 0.934841 0.499589 -0.201398
C9    C     C_R   0.259655 0.501357 0.496241 0.839780
C10   C     C_R   0.740380 0.499167 0.503897 0.861143
C11   C     C_R   0.226299 0.524384 0.993016 0.541148
C12   C     C_R   0.775876 0.482340 0.006407 0.528678
C13   C     C_R   0.147398 0.551415 0.116174 -0.315833
C14   C     C_R   0.851376 0.458379 0.878936 -0.325528
C15   C     C_R   0.099481 0.433342 0.201188 -0.107295
C16   C     C_R   0.901011 0.578638 0.797770 -0.079218
C17   C     C_R   0.106318 0.288654 0.144265 0.426742
C18   C     C_R   0.900890 0.722251 0.861872 0.427208
C19   C     C_R   0.173077 0.259250 0.009708 0.429880
C20   C     C_R   0.832977 0.746374 0.998430 0.391401
C21   C     C_R   0.239752 0.377346 0.943406 -0.393887
C22   C     C_R   0.762100 0.628803 0.057156 -0.355345
C23   C     C_R   0.927972 0.449831 0.371976 -0.228302
C24   C     C_R   0.072470 0.559262 0.627088 -0.201030
H1    H     H_    0.305374 0.354078 0.856769 0.214324
H2    H     H_    0.696536 0.653617 0.144165 0.214911
H3    H     H_    0.131058 0.662011 0.157248 0.165839
H4    H     H_    0.862682 0.349110 0.829907 0.156143
H5    H     H_    0.874398 0.400640 0.275193 0.225542
H6    H     H_    0.126733 0.606426 0.724341 0.241377
N1    N     N_1   0.500020 0.500030 0.073640 0.001222
N2    N     N_1   0.499980 0.499970 0.926360 0.007521
O1    O     O_R   0.499990 0.285340 0.636850 -0.642181
O2    O     O_R   0.500010 0.714660 0.363150 -0.653222
O3    O     O_R   0.500010 0.285350 0.363100 -0.592694
O4    O     O_R   0.499990 0.714650 0.636900 -0.595165
O5    O     O_R   0.316750 0.500000 0.636870 -0.590730
O6    O     O_R   0.683250 0.500000 0.363130 -0.592355
O7    O     O_R   0.316770 0.500020 0.363120 -0.637787
O8    O     O_R   0.683230 0.499980 0.636880 -0.625441
Zn1   Zn    Zn3+2 0.499990 0.499990 0.682780 0.987636
Zn2   Zn    Zn3+2 0.500010 0.500010 0.317220 0.978788
O9    O     O_3   0.289633 0.635244 0.913084 -0.592207
C25   C     C_3   0.309378 0.765356 0.003412 -0.305072
H7    H     H_    0.380177 0.833646 0.946206 0.196640
H8    H     H_    0.343368 0.741714 0.128616 0.190608
H9    H     H_    0.224566 0.829580 0.001360 0.215173
O10   O     O_3   0.709611 0.371546 0.083006 -0.599126
C26   C     C_3   0.735896 0.225824 0.039023 -0.268622
H10   H     H_    0.700074 0.202638 0.914610 0.171242
H11   H     H_    0.687978 0.148955 0.119876 0.215726
H12   H     H_    0.834775 0.203658 0.055582 0.201183
O11   O     O_3   0.043866 0.176128 0.218143 -0.652625
C27   C     C_3   0.117185 0.117347 0.346400 0.100636
H13   H     H_    0.057070 0.094737 0.446577 0.153586
H14   H     H_    0.190987 0.193397 0.395718 0.092637
C28   C     C_3   0.171998 0.973383 0.292898 -0.330019
H15   H     H_    0.106987 0.916204 0.206634 0.268361
H16   H     H_    0.258079 0.998430 0.232694 0.231040
C29   C     C_3   0.198698 0.871289 0.434440 -1.003486
H17   H     H_    0.259732 0.927531 0.524706 0.265146
H18   H     H_    0.245451 0.773455 0.390901 0.272056
H19   H     H_    0.112791 0.836882 0.489906 0.289934
O12   O     O_3   0.981981 0.826494 0.801973 -0.657385
C30   C     C_3   0.930386 0.965672 0.763896 0.183889
H20   H     H_    0.001832 0.029706 0.703937 0.160402
H21   H     H_    0.913138 0.031830 0.871386 0.210400
C31   C     C_3   0.818864 0.956059 0.646083 -0.463466
H22   H     H_    0.837281 0.874053 0.552355 0.217868
H23   H     H_    0.737714 0.916850 0.709726 0.232397
C32   C     C_3   0.791989 0.106533 0.568059 -0.948174
H24   H     H_    0.744911 0.178034 0.651964 0.267762
H25   H     H_    0.733271 0.091689 0.457160 0.266974
H26   H     H_    0.876055 0.164855 0.533140 0.257215
O13   O     O_3   0.174551 0.113003 0.957248 -0.604744
C33   C     C_3   0.235097 0.093420 0.813544 -0.403203
H27   H     H_    0.335330 0.107165 0.835014 0.190857
H28   H     H_    0.198971 0.167194 0.715455 0.158143
H29   H     H_    0.217556 0.978479 0.773396 0.227745
O14   O     O_3   0.830062 0.886390 0.064771 -0.629809
C34   C     C_3   0.840585 0.880303 0.234099 -0.351214
H30   H     H_    0.907217 0.796467 0.280125 0.174832
H31   H     H_    0.749706 0.860392 0.283714 0.173267
H32   H     H_    0.874033 0.989344 0.278110 0.245157

loop_
_geom_bond_atom_site_label_1
_geom_bond_atom_site_label_2
_ccdc_geom_bond_type
N1    Zn2   S    
C3    C23   A    
O2    Zn2   S    
C33   H29   S    
C12   O10   S    
C34   H30   S    
C1    O1    A    
C7    C8    T    
O11   C27   S    
C29   H19   S    
C23   H5    S    
C10   O8    A    
C19   C21   A    
C33   H28   S    
O6    Zn2   S    
C4    C24   A    
C28   H16   S    
C12   C22   A    
C9    O7    A    
C29   H18   S    
O3    Zn2   S    
C5    C16   S    
C6    C15   S    
C31   H22   S    
C30   H21   S    
N2    Zn1   S    
C11   O9    S    
C25   H9    S    
C2    O2    A    
O4    Zn1   S    
C34   H31   S    
C25   H8    S    
O7    Zn2   S    
C27   H14   S    
C20   O14   S    
C33   H27   S    
C4    C6    A    
C32   H25   S    
C28   C29   S    
C26   H11   S    
C11   C21   A    
C29   H17   S    
O13   C33   S    
N1    N2    T    
C30   C31   S    
C9    O5    A    
C31   H23   S    
O10   C26   S    
C12   C14   A    
C26   H10   S    
C13   C15   A    
O9    C25   S    
C14   C16   A    
C17   O11   S    
C34   H32   S    
C25   H7    S    
C1    O3    A    
C2    O4    A    
C15   C17   A    
C21   H1    S    
C27   H13   S    
O8    Zn1   S    
C1    C7    S    
C2    C8    S    
C26   H12   S    
C20   C22   A    
O14   C34   S    
C3    C5    A    
C32   H26   S    
C10   O6    A    
O1    Zn1   S    
O12   C30   S    
C19   O13   S    
C32   H24   S    
C3    C10   S    
C11   C13   A    
C18   O12   S    
C28   H15   S    
C5    C24   A    
C31   C32   S    
C6    C23   A    
C17   C19   A    
C18   C20   A    
O5    Zn1   S    
C24   H6    S    
C16   C18   A    
C30   H20   S    
C22   H2    S    
C13   H3    S    
C14   H4    S    
C4    C9    S    
C27   C28   S    
