data_mof_unit_55711.cif
_audit_creation_date              2012-12-10T20:27:52-0500
_audit_creation_method            fapswitch 2.2
_symmetry_space_group_name_H-M    P1
_symmetry_Int_Tables_number       1
_space_group_crystal_system       triclinic
_cell_length_a                    12.891451
_cell_length_b                    10.672374
_cell_length_c                    9.862384
_cell_angle_alpha                 89.770066
_cell_angle_beta                  96.88034
_cell_angle_gamma                 89.98139
_cell_volume                      1347.10739871

loop_
_atom_site_label
_atom_site_type_symbol
_atom_type_description
_atom_site_fract_x
_atom_site_fract_y
_atom_site_fract_z
_atom_type_partial_charge
C1    C     C_R   0.499603 0.260166 0.500140 0.915121
C2    C     C_R   0.029127 0.501749 0.565502 0.186963
C3    C     C_R   0.971112 0.505980 0.434718 0.199060
C4    C     C_R   0.863905 0.505933 0.423962 -0.290998
C5    C     C_R   0.871222 0.497751 0.671804 -0.207874
C6    C     C_R   0.979193 0.498024 0.683603 -0.247687
C7    C     C_R   0.460682 0.062836 0.603026 0.044630
C8    C     C_R   0.505230 0.128232 0.502323 -0.044629
C9    C     C_R   0.560862 0.065458 0.409472 -0.229032
C10   C     C_R   0.561983 0.935833 0.409529 -0.218131
C11   C     C_R   0.508004 0.871404 0.503023 -0.055899
C12   C     C_R   0.298217 0.500375 0.473593 0.904104
C13   C     C_R   0.463293 0.934867 0.604145 0.056357
C14   C     C_3   0.354567 0.923427 0.640373 -0.543179
C15   C     C_3   0.350398 0.065638 0.637449 0.303306
C16   C     C_R   0.415826 0.455354 0.058459 0.211137
C17   C     C_R   0.578622 0.554801 0.084004 -0.133875
C18   C     C_R   0.578635 0.554776 0.940025 -0.137057
C19   C     C_R   0.415989 0.455066 0.915881 0.227786
C20   C     C_3   0.374953 0.324673 0.905219 -0.535776
C21   C     C_3   0.373504 0.325571 0.058842 -0.499664
C22   C     C_R   0.501386 0.739700 0.500080 0.878297
C23   C     C_R   0.701831 0.500283 0.526427 0.876991
C24   C     C_R   0.813919 0.501361 0.541875 -0.046532
C25   C     C_R   0.186238 0.502531 0.458230 -0.053254
C26   C     C_R   0.021043 0.509124 0.316598 -0.228206
C27   C     C_R   0.128991 0.507558 0.328324 -0.225546
C28   C     C_R   0.136291 0.499825 0.576212 -0.292734
H1    H     H_    0.819731 0.508997 0.323201 0.155736
H2    H     H_    0.352982 0.883540 0.744385 0.171251
H3    H     H_    0.344000 0.108911 0.738398 0.063104
H4    H     H_    0.643003 0.597210 0.148046 0.142743
H5    H     H_    0.643028 0.597010 0.895612 0.144282
H6    H     H_    0.295749 0.320080 0.846886 0.188265
H7    H     H_    0.433325 0.258290 0.872214 0.213540
H8    H     H_    0.293314 0.323213 0.089535 0.197753
H9    H     H_    0.429334 0.257928 0.113865 0.225329
H10   H     H_    0.832857 0.494285 0.763642 0.158847
H11   H     H_    0.976838 0.512291 0.215965 0.134700
H12   H     H_    0.023413 0.494577 0.784223 0.136997
H13   H     H_    0.167367 0.509682 0.236452 0.161290
H14   H     H_    0.180442 0.495598 0.676949 0.156706
H15   H     H_    0.600316 0.116160 0.335192 0.158627
H16   H     H_    0.601714 0.886439 0.334957 0.157450
H17   H     H_    0.300617 0.877560 0.558875 0.213051
N1    N     N_R   0.499290 0.499140 0.142710 -0.107231
N2    N     N_R   0.499290 0.499180 0.857070 -0.107552
O1    O     O_R   0.500010 0.316790 0.614690 -0.627792
O2    O     O_R   0.500000 0.316760 0.385350 -0.621729
O3    O     O_R   0.346360 0.499990 0.595720 -0.624738
O4    O     O_R   0.346350 0.499960 0.366370 -0.622942
O5    O     O_R   0.500000 0.683240 0.614650 -0.614794
O6    O     O_R   0.499990 0.683210 0.385310 -0.621862
O7    O     O_R   0.653650 0.500040 0.633630 -0.631016
O8    O     O_R   0.653640 0.500010 0.404280 -0.633577
Zn1   Zn    Zn3+2 0.500010 0.500020 0.653130 0.945179
Zn2   Zn    Zn3+2 0.499990 0.499980 0.346870 0.944826
O9    O     O_3   0.280685 0.112576 0.527329 -0.620680
C29   C     C_3   0.180301 0.125870 0.569126 0.081312
H18   H     H_    0.180217 0.204910 0.642523 0.132954
H19   H     H_    0.155484 0.038194 0.618067 0.141449
C30   C     C_3   0.101795 0.154235 0.444137 -0.310619
H20   H     H_    0.123512 0.243320 0.396447 0.235097
H21   H     H_    0.104191 0.078095 0.367989 0.224186
C31   C     C_3   0.990855 0.165053 0.482346 -0.957223
H22   H     H_    0.965013 0.073656 0.520792 0.260737
H23   H     H_    0.936735 0.192581 0.390924 0.267047
H24   H     H_    0.987089 0.237030 0.562491 0.275622

loop_
_geom_bond_atom_site_label_1
_geom_bond_atom_site_label_2
_ccdc_geom_bond_type
C12   O3    A    
C23   C24   S    
C1    O1    A    
C23   O8    A    
C30   H20   S    
O4    Zn2   S    
C22   O6    A    
C1    C8    S    
C29   H18   S    
C9    C10   A    
C27   H13   S    
C11   C22   S    
C30   H21   S    
C4    H1    S    
C12   C25   S    
C31   H24   S    
C20   H6    S    
C18   N2    A    
C7    C15   S    
C17   C18   A    
C21   H9    S    
C7    C8    A    
C21   H8    S    
C5    H10   S    
C20   C21   S    
C25   C28   A    
C15   H3    S    
C11   C13   A    
C26   C27   A    
C2    C6    A    
C5    C24   A    
C1    O2    A    
C14   H2    S    
C16   C19   A    
C28   H14   S    
C15   O9    S    
C2    C3    A    
C14   H17   S    
O7    Zn1   S    
O8    Zn2   S    
N1    Zn2   S    
C5    C6    A    
C4    C24   A    
C18   H5    S    
C6    H12   S    
C26   H11   S    
C9    H15   S    
C29   H19   S    
C10   C11   A    
C10   H16   S    
C3    C4    A    
O5    Zn1   S    
C7    C13   A    
C12   O4    A    
O2    Zn2   S    
C17   N1    A    
C23   O7    A    
C22   O5    A    
C31   H22   S    
C19   N2    A    
C16   N1    A    
O1    Zn1   S    
C17   H4    S    
O6    Zn2   S    
C14   C15   S    
N2    Zn1   S    
C29   C30   S    
C2    C28   A    
C30   C31   S    
O9    C29   S    
C13   C14   S    
C20   H7    S    
C16   C21   S    
C3    C26   A    
O3    Zn1   S    
C19   C20   S    
C8    C9    A    
C31   H23   S    
C25   C27   A    
