data_mof_unit_41735.cif
_audit_creation_date              2012-12-11T16:05:13-0500
_audit_creation_method            fapswitch 2.2
_symmetry_space_group_name_H-M    P1
_symmetry_Int_Tables_number       1
_space_group_crystal_system       triclinic
_cell_length_a                    10.620463
_cell_length_b                    10.684601
_cell_length_c                    16.931553
_cell_angle_alpha                 98.795962
_cell_angle_beta                  98.505628
_cell_angle_gamma                 61.542253
_cell_volume                      1663.05622883

loop_
_atom_site_label
_atom_site_type_symbol
_atom_type_description
_atom_site_fract_x
_atom_site_fract_y
_atom_site_fract_z
_atom_type_partial_charge
C1    C     C_R   0.355403 0.773900 0.398458 0.549632
C2    C     C_3   0.291576 0.738047 0.248651 -0.110290
C3    C     C_3   0.347547 0.811954 0.319422 0.057857
C4    C     C_R   0.370542 0.346739 0.358823 0.567052
C5    C     C_3   0.474206 0.784787 0.273809 -0.117641
C6    C     C_3   0.379869 0.932399 0.241369 -0.115077
C7    C     C_3   0.254674 0.957754 0.288909 -0.149483
C8    C     C_3   0.197493 0.885032 0.217528 -0.104065
C9    C     C_3   0.323334 0.858230 0.171029 0.060428
C10   C     C_3   0.460131 0.250638 0.772766 -0.109049
C11   C     C_3   0.408495 0.391438 0.735299 -0.114821
C12   C     C_3   0.695843 0.402902 0.255775 -0.166875
C13   C     C_3   0.336152 0.335261 0.663374 0.053533
C14   C     C_3   0.387891 0.195262 0.700243 -0.111235
C15   C     C_3   0.246041 0.265258 0.740963 -0.107828
C16   C     C_R   0.779894 0.375059 0.402906 0.560792
C17   C     C_3   0.194587 0.406283 0.702897 -0.117503
C18   C     C_3   0.266738 0.461352 0.776357 -0.128807
C19   C     C_3   0.319166 0.320683 0.812755 0.052905
C20   C     C_1   0.817043 0.342295 0.709681 -0.045371
C21   C     C_1   0.843780 0.314859 0.778056 -0.045949
C22   C     C_1   0.357379 0.765575 0.714304 -0.048388
C23   C     C_3   0.820314 0.346009 0.321911 0.062028
C24   C     C_1   0.326401 0.811887 0.781965 -0.048932
C25   C     C_R   0.890103 0.311401 0.090102 0.540902
C26   C     C_R   0.319239 0.299668 0.120224 0.535776
C27   C     C_R   0.293958 0.892674 0.089127 0.545621
C28   C     C_R   0.379243 0.716176 0.631613 0.546836
C29   C     C_R   0.885141 0.299221 0.860870 0.541773
C30   C     C_R   0.308534 0.293603 0.891786 0.541611
C31   C     C_R   0.282518 0.880333 0.859692 0.544414
C32   C     C_R   0.366376 0.345988 0.585126 0.542918
C33   C     C_R   0.773476 0.380089 0.629724 0.535765
C34   C     C_3   0.895557 0.203663 0.271144 -0.178271
C35   C     C_1   0.343912 0.336289 0.275101 -0.028960
C36   C     C_1   0.331811 0.326644 0.203897 -0.050327
C37   C     C_3   0.772366 0.260184 0.203576 -0.144684
C38   C     C_3   0.976638 0.268190 0.236189 -0.093179
C39   C     C_3   0.898742 0.409901 0.287359 0.398899
C40   C     C_3   0.776146 0.468120 0.221192 -0.105309
C41   C     C_3   0.851753 0.325899 0.170405 0.008606
C42   C     C_3   0.416646 0.712372 0.201607 -0.158518
Cr1   Cr    Cr6+3 0.608340 0.611040 0.520430 1.042670
Cr2   Cr    Cr6+3 0.287650 0.601120 0.489350 1.070047
Cr3   Cr    Cr6+3 0.604040 0.287870 0.490280 1.029872
Cr4   Cr    Cr6+3 0.054020 0.052700 0.970850 1.023588
Cr5   Cr    Cr6+3 0.059230 0.375120 0.993390 1.035132
Cr6   Cr    Cr6+3 0.374950 0.061200 0.992340 1.024278
F1    F     F_    0.965452 0.484719 0.332165 -0.623046
H1    H     H_    0.580809 0.454960 0.267467 0.117778
H2    H     H_    0.219184 0.569315 0.809563 0.130067
H3    H     H_    0.718998 0.200530 0.166905 0.141632
H4    H     H_    0.941288 0.098225 0.295083 0.125847
H5    H     H_    0.091664 0.216989 0.224603 0.117547
H6    H     H_    0.730653 0.574169 0.197999 0.125357
H7    H     H_    0.254751 0.658111 0.252959 0.140974
H8    H     H_    0.478051 0.615404 0.161607 0.104680
H9    H     H_    0.586652 0.745924 0.300773 0.152518
H10   H     H_    0.416552 0.011859 0.235794 0.137113
H11   H     H_    0.193559 0.054547 0.329087 0.115722
H12   H     H_    0.083760 0.923930 0.192815 0.141155
H13   H     H_    0.476162 0.443177 0.730979 0.101399
H14   H     H_    0.568875 0.188962 0.802992 0.132131
H15   H     H_    0.435587 0.086944 0.667416 0.137712
H16   H     H_    0.178791 0.213194 0.745587 0.120262
H17   H     H_    0.086464 0.467932 0.672048 0.139872
O1    O     O_R   0.751220 0.499230 0.435170 -0.474848
O2    O     O_R   0.412990 0.180750 0.091610 -0.522332
O3    O     O_R   0.366620 0.943130 0.065760 -0.504959
O4    O     O_R   0.477220 0.727600 0.436870 -0.502854
O5    O     O_R   0.160510 0.906330 0.879210 -0.509099
O6    O     O_R   0.930190 0.179050 0.889450 -0.497021
O7    O     O_R   0.909140 0.398170 0.896710 -0.509217
O8    O     O_R   0.186190 0.363460 0.918830 -0.500921
O9    O     O_R   0.401670 0.173200 0.913310 -0.517349
O10   O     O_R   0.356120 0.936130 0.900470 -0.492587
O11   O     O_3   0.162740 0.163010 0.985530 -0.258963
O12   O     O_R   0.297880 0.469080 0.560050 -0.507091
O13   O     O_R   0.258650 0.745120 0.411470 -0.509007
O14   O     O_R   0.297070 0.467240 0.395960 -0.461136
O15   O     O_R   0.488830 0.252610 0.387790 -0.518172
O16   O     O_R   0.724400 0.302390 0.420980 -0.508642
O17   O     O_R   0.752100 0.501210 0.612190 -0.515322
O18   O     O_R   0.478040 0.729440 0.600970 -0.494599
O19   O     O_R   0.259530 0.747110 0.588490 -0.498505
O20   O     O_R   0.489720 0.254590 0.564810 -0.513417
O21   O     O_R   0.725220 0.304230 0.585080 -0.496568
O22   O     O_3   0.500010 0.500010 0.500020 -0.292521
O23   O     O_R   0.171830 0.913880 0.057510 -0.524030
O24   O     O_R   0.940690 0.186050 0.054730 -0.503323
O25   O     O_R   0.920470 0.405720 0.075010 -0.509120
O26   O     O_R   0.196690 0.370460 0.084120 -0.489489

loop_
_geom_bond_atom_site_label_1
_geom_bond_atom_site_label_2
_ccdc_geom_bond_type
C5    C42   S    
C11   C18   S    
C28   O18   A    
C34   C37   S    
Cr1   O17   S    
Cr5   O26   S    
Cr6   O10   S    
C13   C32   S    
Cr3   O16   S    
Cr6   O3    S    
C11   H13   S    
C6    C9    S    
Cr3   O20   S    
C7    C8    S    
Cr4   O23   S    
C15   C19   S    
C12   C23   S    
C17   H17   S    
C5    H9    S    
Cr1   O22   S    
Cr3   O21   S    
C4    O14   A    
C3    C7    S    
C38   C39   S    
C30   O8    A    
C29   O7    A    
C26   O26   A    
C15   H16   S    
C18   C19   S    
C12   C37   S    
C4    O15   A    
C10   H14   S    
C8    C9    S    
Cr4   O6    S    
C27   O3    A    
C8    H12   S    
C29   O6    A    
C40   H6    S    
C31   O5    A    
C4    C35   S    
C32   O20   A    
C22   C28   S    
C13   C14   S    
Cr1   O18   S    
Cr6   O9    S    
C42   H8    S    
C18   H2    S    
Cr3   O15   S    
C25   O25   A    
Cr2   O14   S    
Cr3   O22   S    
Cr5   O7    S    
C38   C41   S    
C10   C14   S    
C25   C41   S    
C39   C40   S    
C37   H3    S    
C21   C29   S    
C1    C3    S    
C35   C36   T    
Cr6   O11   S    
C12   C40   S    
C25   O24   A    
C38   H5    S    
C10   C19   S    
C23   C34   S    
C14   H15   S    
C16   O16   A    
C17   C18   S    
C9    C42   S    
C16   O1    A    
Cr6   O2    S    
C33   O17   A    
Cr4   O5    S    
C20   C33   S    
C26   C36   S    
C40   C41   S    
C39   F1    S    
Cr1   O4    S    
C1    O13   A    
C22   C24   T    
Cr5   O11   S    
Cr2   O19   S    
C7    H11   S    
C9    C27   S    
C15   C17   S    
C34   C38   S    
Cr5   O25   S    
C6    H10   S    
Cr2   O13   S    
C2    C8    S    
Cr5   O8    S    
C3    C5    S    
Cr4   O11   S    
C12   H1    S    
C6    C7    S    
Cr4   O24   S    
C16   C23   S    
C1    O4    A    
C13   C17   S    
C26   O2    A    
Cr2   O12   S    
C2    C3    S    
C33   O21   A    
C24   C31   S    
C2    H7    S    
C30   O9    A    
C11   C13   S    
C31   O10   A    
C5    C6    S    
C2    C42   S    
C23   C39   S    
C27   O23   A    
C37   C41   S    
C10   C11   S    
C32   O12   A    
C20   C21   T    
C34   H4    S    
Cr1   O1    S    
C28   O19   A    
C14   C15   S    
Cr2   O22   S    
C19   C30   S    
