data_mof_unit_47317.cif
_audit_creation_date              2013-03-05T16:15:20-0500
_audit_creation_method            fapswitch 2.2
_symmetry_space_group_name_H-M    P1
_symmetry_Int_Tables_number       1
_space_group_crystal_system       triclinic
_cell_length_a                    27.87797
_cell_length_b                    10.809773
_cell_length_c                    9.554665
_cell_angle_alpha                 88.65351
_cell_angle_beta                  90.786492
_cell_angle_gamma                 90.64968
_cell_volume                      2878.10050826

loop_
_atom_site_label
_atom_site_type_symbol
_atom_site_description
_atom_site_fract_x
_atom_site_fract_y
_atom_site_fract_z
_atom_type_partial_charge
O1    O     O_R   0.500020 0.316850 0.620870 -0.612259
O2    O     O_R   0.499980 0.683150 0.379130 -0.604966
O3    O     O_R   0.500000 0.316860 0.379090 -0.568192
O4    O     O_R   0.500000 0.683140 0.620910 -0.589626
C1    C     C_R   0.501002 0.259936 0.501711 0.798279
C2    C     C_R   0.496912 0.739331 0.498474 0.839049
O5    O     O_R   0.430270 0.500020 0.620880 -0.591087
O6    O     O_R   0.569730 0.499980 0.379120 -0.580082
O7    O     O_R   0.430250 0.500030 0.379090 -0.577776
O8    O     O_R   0.569750 0.499970 0.620910 -0.583740
C3    C     C_R   0.407670 0.501274 0.498715 0.806747
C4    C     C_R   0.592214 0.497827 0.499990 0.835851
Cu1   Cu    Cu3+1 0.500010 0.499990 0.643150 0.926037
Cu2   Cu    Cu3+1 0.499990 0.500010 0.356850 0.933312
C5    C     C_R   0.175204 0.391915 0.504531 0.558728
C6    C     C_R   0.822529 0.611874 0.493749 0.565554
O9    O     O_2   0.198638 0.284254 0.523854 -0.503018
O10   O     O_2   0.799142 0.700854 0.561199 -0.512038
N1    N     N_R   0.200917 0.500576 0.497113 -0.469823
N2    N     N_R   0.797727 0.511021 0.445201 -0.467787
C7    C     C_R   0.177933 0.611919 0.488600 0.571090
C8    C     C_R   0.821608 0.416069 0.384873 0.566951
C9    C     C_R   0.279030 0.577495 0.586660 -0.128304
C10   C     C_R   0.722870 0.397078 0.505988 -0.106416
C11   C     C_R   0.329015 0.588044 0.577449 0.036181
C12   C     C_R   0.672643 0.390227 0.519780 0.054425
C13   C     C_R   0.327923 0.422655 0.408654 0.079046
C14   C     C_R   0.668636 0.606827 0.442868 0.067219
C15   C     C_R   0.277680 0.423482 0.408546 -0.151010
C16   C     C_R   0.718047 0.607802 0.420805 -0.150165
C17   C     C_R   0.252836 0.498370 0.499644 0.268444
C18   C     C_R   0.745944 0.505293 0.457464 0.252311
C19   C     C_R   0.100679 0.507297 0.490553 -0.148571
C20   C     C_R   0.897963 0.516586 0.437819 -0.149577
C21   C     C_R   0.124578 0.392425 0.492712 -0.003446
C22   C     C_R   0.872503 0.621635 0.477797 0.003125
C23   C     C_R   0.097008 0.282429 0.487664 0.169764
C24   C     C_R   0.897575 0.733793 0.496295 0.164090
C25   C     C_R   0.127667 0.617424 0.500342 -0.036450
C26   C     C_R   0.872412 0.412426 0.388603 -0.040625
C27   C     C_R   0.354422 0.503635 0.495573 -0.054740
C28   C     C_R   0.645283 0.499084 0.495199 -0.077601
H1    H     H_    0.257976 0.364861 0.336950 0.166343
H2    H     H_    0.734797 0.690328 0.376232 0.171053
C29   C     C_R   0.973939 0.407430 0.418233 0.031396
C30   C     C_R   0.025600 0.625565 0.496968 0.034200
C31   C     C_R   0.974368 0.627011 0.481226 0.063719
C32   C     C_R   0.023671 0.402159 0.451347 0.069230
C33   C     C_R   0.948901 0.516700 0.446712 0.004936
C34   C     C_R   0.049847 0.512174 0.478351 0.004943
C35   C     C_R   0.948796 0.309765 0.350591 0.080578
C36   C     C_R   0.053742 0.729587 0.540238 0.089343
C37   C     C_R   0.898239 0.310718 0.339575 0.138723
C38   C     C_R   0.104144 0.728437 0.528513 0.132010
O11   O     O_2   0.796178 0.326439 0.320606 -0.510856
O12   O     O_2   0.203629 0.716809 0.465684 -0.514423
C39   C     C_R   0.047428 0.288510 0.468630 -0.218894
C40   C     C_R   0.947444 0.736477 0.488214 -0.222532
H3    H     H_    0.744456 0.316815 0.530355 0.182952
H4    H     H_    0.260048 0.638682 0.654417 0.169881
H5    H     H_    0.027688 0.202027 0.473928 0.162033
H6    H     H_    0.963571 0.827078 0.482469 0.173921
C41   C     C_3   0.513333 0.032546 0.628948 0.079180
C42   C     C_3   0.480449 0.965334 0.372375 0.111336
C43   C     C_3   0.539791 0.952368 0.523917 0.131403
C44   C     C_3   0.454269 0.046468 0.478040 0.134648
C45   C     C_3   0.494154 0.875447 0.495616 -0.168855
C46   C     C_3   0.500448 0.122997 0.505586 -0.194853
C47   C     C_3   0.467405 0.957031 0.598772 0.152560
C48   C     C_3   0.526760 0.040683 0.402041 0.139045
C49   C     C_3   0.532653 0.572778 0.049228 0.182368
C50   C     C_3   0.466268 0.429009 0.951332 0.242350
C51   C     C_3   0.492694 0.610498 0.945759 -0.113875
C52   C     C_3   0.507137 0.390851 0.054848 -0.161402
H7    H     H_    0.487887 0.703562 0.897967 0.134370
H8    H     H_    0.512702 0.298192 0.102976 0.127245
N3    N     N_3   0.500040 0.499970 0.858290 -0.201115
N4    N     N_3   0.499960 0.500030 0.141710 -0.222405
C53   C     C_3   0.540358 0.463489 0.955472 0.255794
C54   C     C_3   0.459411 0.538677 0.047544 0.236953
N5    N     N_3   0.351533 0.339902 0.318372 -0.604003
H9    H     H_    0.338124 0.250979 0.340468 0.235152
H10   H     H_    0.340673 0.361644 0.215830 0.209460
N6    N     N_3   0.642299 0.716669 0.410597 -0.573964
H11   H     H_    0.658832 0.787667 0.466550 0.247709
H12   H     H_    0.647166 0.739090 0.304731 0.223441
C55   C     C_3   0.533731 0.064397 0.772396 -0.416106
C56   C     C_3   0.531246 0.957370 0.878101 -0.885019
H13   H     H_    0.494578 0.945489 0.917977 0.253113
H14   H     H_    0.541704 0.870685 0.829078 0.267300
H15   H     H_    0.555434 0.976426 0.968451 0.249277
H16   H     H_    0.571983 0.088049 0.757688 0.216244
H17   H     H_    0.513965 0.143592 0.814241 0.221204
C57   C     C_3   0.458932 0.923755 0.232739 -0.361988
C58   C     C_3   0.443506 0.031722 0.137760 -0.855665
H18   H     H_    0.415903 0.087990 0.187422 0.275513
H19   H     H_    0.474824 0.090884 0.110276 0.239915
H20   H     H_    0.427161 0.995587 0.040225 0.229054
H21   H     H_    0.485523 0.867839 0.177621 0.198519
H22   H     H_    0.426966 0.864979 0.254738 0.206408
N7    N     N_3   0.432436 0.914480 0.701130 -0.608452
H23   H     H_    0.426049 0.987304 0.768151 0.217871
H24   H     H_    0.447533 0.842337 0.759995 0.225145
N8    N     N_3   0.562221 0.082217 0.300279 -0.592088
H25   H     H_    0.572099 0.005010 0.243968 0.224979
H26   H     H_    0.545422 0.142703 0.229492 0.219601
C59   C     C_3   0.570797 0.662977 0.105818 -0.366399
C60   C     C_3   0.604195 0.715529 0.992669 -0.935741
H27   H     H_    0.637798 0.661443 0.990847 0.254034
H28   H     H_    0.587405 0.712243 0.887049 0.263755
H29   H     H_    0.614337 0.812497 0.016206 0.259358
H30   H     H_    0.552694 0.739911 0.157718 0.216796
H31   H     H_    0.593554 0.613943 0.183385 0.244732
C61   C     C_3   0.431172 0.327358 0.901501 -0.403747
C62   C     C_3   0.379381 0.368337 0.880476 -0.803949
H32   H     H_    0.363370 0.392148 0.981331 0.237927
H33   H     H_    0.376567 0.448026 0.807074 0.272410
H34   H     H_    0.357957 0.290903 0.836382 0.239544
H35   H     H_    0.443861 0.287480 0.803745 0.234658
H36   H     H_    0.430879 0.251281 0.981185 0.184530
C63   C     C_3   0.591980 0.428914 0.923657 -0.367578
C64   C     C_3   0.595306 0.297277 0.879535 -0.881669
H37   H     H_    0.579478 0.233434 0.959496 0.244132
H38   H     H_    0.576137 0.289933 0.778564 0.280324
H39   H     H_    0.633424 0.273249 0.868889 0.264319
H40   H     H_    0.607950 0.492510 0.844431 0.237627
H41   H     H_    0.613873 0.437243 0.021156 0.203159
C65   C     C_3   0.414663 0.599144 0.106145 -0.345681
C66   C     C_3   0.388742 0.682793 0.000082 -0.939219
H42   H     H_    0.410303 0.767791 0.978456 0.249735
H43   H     H_    0.382303 0.634030 0.901519 0.266223
H44   H     H_    0.353743 0.710618 0.042821 0.264556
H45   H     H_    0.389621 0.526834 0.145073 0.225773
H46   H     H_    0.425738 0.657566 0.194714 0.223856
N9    N     N_3   0.118812 0.163256 0.498924 -0.511981
H47   H     H_    0.103549 0.114924 0.583638 0.202065
H48   H     H_    0.110362 0.115670 0.407654 0.213061
N10   N     N_3   0.872618 0.847731 0.512691 -0.518378
H49   H     H_    0.884967 0.887970 0.605102 0.228845
H50   H     H_    0.881520 0.907399 0.429107 0.197464
C67   C     C_3   0.649222 0.263722 0.541190 -0.378258
C68   C     C_3   0.677170 0.178794 0.643537 -0.846827
H51   H     H_    0.704920 0.127663 0.586743 0.261304
H52   H     H_    0.695178 0.232471 0.727237 0.257954
H53   H     H_    0.652824 0.109987 0.693722 0.233130
H54   H     H_    0.611971 0.271910 0.577265 0.188467
H55   H     H_    0.646787 0.218303 0.438171 0.229117
C69   C     C_3   0.351589 0.706016 0.629917 -0.439952
C70   C     C_3   0.344831 0.809538 0.519710 -0.704148
H56   H     H_    0.368169 0.793687 0.428773 0.228955
H57   H     H_    0.306890 0.813899 0.482976 0.274969
H58   H     H_    0.353991 0.900312 0.564779 0.276298
H59   H     H_    0.334060 0.733365 0.728095 0.214745
H60   H     H_    0.390249 0.695676 0.653821 0.230438
N11   N     N_3   0.873256 0.207424 0.279429 -0.511354
H61   H     H_    0.884313 0.197225 0.176336 0.220440
H62   H     H_    0.881478 0.127321 0.337796 0.206455
N12   N     N_3   0.131760 0.838386 0.555756 -0.510741
H63   H     H_    0.125379 0.867589 0.657215 0.214565
H64   H     H_    0.121207 0.907065 0.483580 0.224269
N13   N     N_3   0.974797 0.216837 0.278899 -0.610768
H65   H     H_    0.964235 0.129213 0.316372 0.201891
H66   H     H_    0.966838 0.224046 0.171826 0.228141
N14   N     N_3   0.032437 0.830508 0.610975 -0.623112
H67   H     H_    0.046116 0.833166 0.713287 0.227992
H68   H     H_    0.040932 0.913653 0.558397 0.199035
N15   N     N_3   0.587302 0.901053 0.544372 -0.579074
H69   H     H_    0.611301 0.974766 0.556527 0.231005
H70   H     H_    0.587712 0.848612 0.637427 0.227937
N16   N     N_3   0.407031 0.100175 0.459376 -0.587675
H71   H     H_    0.412100 0.179528 0.397263 0.236175
H72   H     H_    0.396343 0.131256 0.556774 0.219256

loop_
_geom_bond_atom_site_label_1
_geom_bond_atom_site_label_2
_geom_bond_distance
_ccdc_geom_bond_type
C40   H6    1.073547 S    
C44   C46   1.545235 S    
C55   C56   1.519386 S    
C41   C43   1.542062 S    
N7    H23   1.044726 S    
C49   C59   1.535994 S    
N11   H62   1.044807 S    
C59   H30   1.108139 S    
C58   H18   1.105209 S    
N1    C17   1.447738 S    
C65   C66   1.522637 S    
C49   C53   1.518251 S    
C61   C62   1.524328 S    
C58   H20   1.109079 S    
C32   C39   1.407514 A    
N15   H70   1.043155 S    
O5    C3    1.318663 A    
C53   C63   1.527308 S    
C19   C25   1.405341 A    
C52   H8    1.103946 S    
O1    C1    1.307528 A    
N14   H67   1.045321 S    
N1    C7    1.370122 A    
N6    H12   1.044900 S    
C63   H41   1.111538 S    
C70   H57   1.111007 S    
N4    C54   1.492315 S    
C25   C38   1.407276 A    
C14   N6    1.428407 S    
N16   H71   1.040963 S    
C29   C35   1.423531 A    
C62   H32   1.104616 S    
C30   C36   1.429592 A    
C50   C61   1.542332 S    
C60   H27   1.110422 S    
N9    H48   1.045590 S    
C14   C28   1.412325 A    
O4    Cu1   1.986213 S    
C59   H31   1.099526 S    
C4    C28   1.480705 S    
Cu1   Cu2   2.735487 S    
N13   H66   1.045143 S    
C24   C40   1.393371 A    
C67   C68   1.535989 S    
C41   C47   1.538203 S    
C43   C45   1.536328 S    
C59   C60   1.531393 S    
C23   N9    1.431801 S    
C35   N13   1.437424 S    
C42   C48   1.545159 S    
C12   C67   1.519365 S    
C61   H35   1.102182 S    
C6    N2    1.371003 A    
C66   H44   1.110212 S    
C41   C55   1.522109 S    
N9    H47   1.045800 S    
N7    H24   1.040184 S    
C55   H16   1.103865 S    
C15   H1    1.083245 S    
N12   H64   1.043368 S    
C51   H7    1.103768 S    
C68   H53   1.106589 S    
C16   H2    1.083228 S    
O2    C2    1.308742 A    
C69   H60   1.105000 S    
C1    C46   1.479790 S    
C5    C21   1.414366 A    
N8    H25   1.045100 S    
N5    H10   1.043782 S    
C36   C38   1.411333 A    
N5    H9    1.045361 S    
N3    C53   1.498409 S    
C9    H4    1.083545 S    
Cu1   N3    2.055575 S    
C42   C45   1.555292 S    
C13   N5    1.429241 S    
C69   C70   1.529872 S    
C50   C52   1.551461 S    
C70   H58   1.106627 S    
C11   C27   1.417614 A    
N15   H69   1.042178 S    
C49   C51   1.531557 S    
C54   C65   1.533574 S    
C62   H33   1.100770 S    
C19   C34   1.421752 A    
C50   C54   1.532369 S    
C45   C47   1.543103 S    
C9    C17   1.399508 A    
C5    N1    1.370019 A    
O7    Cu2   1.958688 S    
C10   C18   1.400987 A    
C50   N3    1.496548 S    
C65   H46   1.106261 S    
Cu2   N4    2.055575 S    
C38   N12   1.435729 S    
C13   C27   1.415755 A    
C7    C25   1.409364 A    
C56   H15   1.109779 S    
C57   H22   1.108157 S    
O6    C4    1.306276 A    
C62   H34   1.110487 S    
C8    C26   1.417228 A    
C29   C33   1.412601 A    
C24   N10   1.434258 S    
C6    O10   1.349247 S    
N6    H11   1.044879 S    
C32   C34   1.415256 A    
O7    C3    1.312815 A    
C63   C64   1.497807 S    
O3    Cu2   1.986212 S    
O8    C4    1.322493 A    
C67   H54   1.103833 S    
C36   N14   1.435290 S    
O4    C2    1.307630 A    
C2    C45   1.473857 S    
C56   H14   1.101366 S    
C37   N11   1.436532 S    
C52   C53   1.532468 S    
N12   H63   1.044721 S    
C20   C26   1.412016 A    
O1    Cu1   1.996086 S    
C69   H59   1.111321 S    
C64   H38   1.100491 S    
C22   C24   1.406125 A    
C68   H52   1.110143 S    
C12   C28   1.422687 A    
C66   H42   1.109129 S    
N2    C18   1.450461 S    
C29   C32   1.419316 A    
C5    O9    1.348745 S    
C30   C34   1.422436 A    
C30   C31   1.434307 A    
C20   C33   1.421409 A    
O6    Cu2   1.952916 S    
C21   C23   1.409902 A    
C41   C46   1.554515 S    
C48   N8    1.456039 S    
C44   N16   1.452278 S    
C10   C12   1.409157 A    
N2    C8    1.372164 A    
O3    C1    1.310606 A    
O8    Cu1   1.958688 S    
C7    O12   1.349420 S    
C58   H19   1.107244 S    
C39   H5    1.079929 S    
C8    O11   1.348635 S    
N10   H50   1.045479 S    
C47   N7    1.453726 S    
C31   C33   1.423926 A    
C43   N15   1.450773 S    
C60   H29   1.109892 S    
C64   H39   1.103409 S    
N14   H68   1.045691 S    
N8    H26   1.040061 S    
C42   C57   1.530354 S    
C63   H40   1.105292 S    
C15   C17   1.398218 A    
N13   H65   1.045334 S    
C70   H56   1.110231 S    
C6    C22   1.406051 A    
C31   C40   1.411833 A    
C16   C18   1.396151 A    
C13   C15   1.400797 A    
C57   H21   1.108179 S    
C10   H3    1.080572 S    
C55   H17   1.108686 S    
C14   C16   1.396270 A    
C19   C21   1.415430 A    
C51   C54   1.543520 S    
C60   H28   1.107754 S    
C3    C27   1.484840 S    
C11   C69   1.508913 S    
C20   C22   1.409006 A    
C9    C11   1.400647 A    
C57   C58   1.523647 S    
O2    Cu2   1.996085 S    
C61   H36   1.107530 S    
N10   H49   1.045773 S    
C67   H55   1.111144 S    
C44   C47   1.530851 S    
O5    Cu1   1.952916 S    
C56   H13   1.100922 S    
C46   C48   1.544234 S    
C26   C37   1.413520 A    
C52   N4    1.475687 S    
N11   H61   1.044818 S    
C51   N3    1.491670 S    
C68   H51   1.110752 S    
N16   H72   1.045109 S    
C35   C37   1.412052 A    
C64   H37   1.110070 S    
C65   H45   1.103524 S    
C49   N4    1.484283 S    
C23   C39   1.393705 A    
C43   C48   1.530811 S    
C42   C44   1.548392 S    
C66   H43   1.101591 S    
