data_mof_unit_40181.cif
_audit_creation_date              2012-12-10T18:44:04-0500
_audit_creation_method            fapswitch 2.2
_symmetry_space_group_name_H-M    P1
_symmetry_Int_Tables_number       1
_space_group_crystal_system       triclinic
_cell_length_a                    18.111353
_cell_length_b                    18.173517
_cell_length_c                    22.115734
_cell_angle_alpha                 114.144463
_cell_angle_beta                  114.257852
_cell_angle_gamma                 90.250655
_cell_volume                      5924.51906192

loop_
_atom_site_label
_atom_site_type_symbol
_atom_type_description
_atom_site_fract_x
_atom_site_fract_y
_atom_site_fract_z
_atom_type_partial_charge
C1    C     C_R   0.350081 0.349670 0.699367 0.828987
C2    C     C_1   0.889757 0.888250 0.778632 -0.096110
C3    C     C_3   0.423285 0.741868 0.377766 -0.361796
C4    C     C_3   0.453125 0.661025 0.364743 -0.947843
C5    C     C_3   0.590332 0.210248 0.595356 0.102073
C6    C     C_3   0.560517 0.284063 0.583588 -0.356573
C7    C     C_3   0.562993 0.351497 0.654425 -0.955503
C8    C     C_3   0.805699 0.977182 0.996884 0.173049
C9    C     C_3   0.766671 0.891284 0.978601 -0.376638
C10   C     C_3   0.735834 0.894911 0.034186 -0.951179
C11   C     C_3   0.216931 0.979797 0.067454 0.118592
C12   C     C_3   0.227808 0.976723 0.138849 -0.350941
C13   C     C_3   0.083797 0.009772 0.024950 0.451568
C14   C     C_3   0.290937 0.925143 0.159745 -0.945589
C15   C     C_3   0.126852 0.622451 0.691011 0.225362
C16   C     C_3   0.211736 0.680505 0.742223 -0.404121
C17   C     C_3   0.207162 0.760552 0.800104 -0.847803
C18   C     C_3   0.864209 0.454837 0.305445 0.166539
C19   C     C_3   0.857292 0.543758 0.319101 -0.374983
C20   C     C_3   0.846964 0.556825 0.252364 -0.857013
C21   C     C_3   0.920416 0.984111 0.975362 0.458470
C22   C     C_3   0.038443 0.034754 0.073675 -0.106120
C23   C     C_3   0.964778 0.959713 0.926378 -0.080432
C24   C     C_1   0.077680 0.076413 0.154674 0.083344
C25   C     C_1   0.923470 0.920536 0.845323 0.135065
C26   C     C_3   0.062641 0.528705 0.565317 0.245616
C27   C     C_3   0.936923 0.471737 0.428385 0.294941
C28   C     C_3   0.970568 0.506908 0.545536 0.250431
C29   C     C_R   0.650202 0.650449 0.300749 0.816835
C30   C     C_3   0.029712 0.492214 0.448097 0.217470
C31   C     C_3   0.949156 0.552245 0.496763 -0.439010
C32   C     C_3   0.050717 0.447997 0.497809 -0.404265
C33   C     C_R   0.150177 0.150337 0.300628 0.827130
C34   C     C_R   0.849834 0.849526 0.699371 0.829384
C35   C     C_3   0.041994 0.573557 0.516285 0.225832
C36   C     C_3   0.958534 0.426829 0.477568 0.373434
C37   C     C_3   0.583952 0.544210 0.024598 0.455396
C38   C     C_3   0.432550 0.463298 0.976417 0.441933
C39   C     C_3   0.551374 0.450502 0.976533 0.490888
C40   C     C_3   0.498682 0.577788 0.542185 -0.137124
C41   C     C_3   0.464777 0.556595 0.023825 0.413919
C42   C     C_1   0.392460 0.389444 0.778694 -0.106091
C43   C     C_1   0.612329 0.611374 0.221649 -0.136807
C44   C     C_3   0.503403 0.560093 0.973694 -0.465730
C45   C     C_3   0.512848 0.445983 0.026166 -0.502394
C46   C     C_3   0.470897 0.465671 0.926458 -0.045975
C47   C     C_3   0.545444 0.540762 0.074315 -0.106748
C48   C     C_1   0.428315 0.423453 0.845408 0.089926
C49   C     C_1   0.581585 0.579391 0.155088 0.005824
C50   C     C_3   0.058242 0.965218 0.487613 0.409883
C51   C     C_3   0.500935 0.422540 0.457446 -0.127710
C52   C     C_3   0.940460 0.037076 0.514072 0.390168
C53   C     C_3   0.965519 0.935275 0.434446 0.457104
C54   C     C_3   0.033397 0.067052 0.567203 0.416249
C55   C     C_3   0.949394 0.948662 0.500808 -0.238616
C56   C     C_3   0.049592 0.053431 0.500555 -0.260279
C57   C     C_R   0.392412 0.109705 0.500959 0.852112
C58   C     C_R   0.606357 0.889003 0.498054 0.870414
C59   C     C_3   0.042910 0.978397 0.555033 -0.449030
C60   C     C_3   0.955369 0.023898 0.446464 -0.427674
C61   C     C_3   0.474940 0.008501 0.550610 0.365557
C62   C     C_3   0.024151 0.045060 0.974673 -0.389984
C63   C     C_3   0.521139 0.987671 0.446071 0.379439
C64   C     C_3   0.565403 0.026964 0.564074 0.212903
C65   C     C_3   0.430443 0.969743 0.432480 0.270368
C66   C     C_3   0.547639 0.943506 0.496474 -0.433284
C67   C     C_3   0.447828 0.052040 0.500179 -0.358407
C68   C     C_3   0.456270 0.925378 0.482413 0.293388
C69   C     C_3   0.538060 0.070337 0.514100 0.347022
C70   C     C_R   0.108026 0.391283 0.500323 1.041720
C71   C     C_R   0.891976 0.608892 0.498437 0.983136
C72   C     C_R   0.107970 0.109192 0.500441 0.958869
C73   C     C_3   0.979045 0.948382 0.025170 -0.503846
C74   C     C_R   0.891806 0.891369 0.499996 0.949045
C75   C     C_R   0.391730 0.391694 0.499976 0.801843
C76   C     C_R   0.608356 0.608343 0.500093 0.799683
C77   C     C_3   0.422935 0.514058 0.472309 -0.164620
C78   C     C_3   0.576669 0.486254 0.527381 -0.154426
C79   C     C_3   0.475756 0.488557 0.429907 -0.180872
C80   C     C_3   0.523886 0.511876 0.569772 -0.179236
C81   C     C_3   0.550647 0.551302 0.499833 0.045517
C82   C     C_3   0.449006 0.448978 0.499895 0.042176
C83   C     C_3   0.659420 0.384362 0.006803 0.106165
C84   C     C_3   0.978893 0.068862 0.023624 0.359569
C85   C     C_3   0.726979 0.352780 0.984731 -0.353197
C86   C     C_3   0.797570 0.342861 0.047238 -0.803721
C87   C     C_3   0.349186 0.614349 0.995556 0.122485
C88   C     C_3   0.326752 0.698929 0.021395 -0.416514
C89   C     C_3   0.246367 0.700852 0.961581 -0.824213
C90   C     C_3   0.695459 0.658582 0.103427 0.131977
C91   C     C_3   0.650568 0.723844 0.085238 -0.427292
C92   C     C_3   0.695788 0.810756 0.146563 -0.868093
C93   C     C_3   0.334154 0.418392 0.002752 0.100250
C94   C     C_3   0.327339 0.330340 0.994065 -0.334688
C95   C     C_3   0.024308 0.924190 0.975446 0.326890
C96   C     C_3   0.307866 0.324247 0.052963 -0.913962
C97   C     C_3   0.151809 0.879405 0.502700 0.184045
C98   C     C_3   0.225381 0.929401 0.579555 -0.429664
C99   C     C_3   0.243782 0.883260 0.626567 -0.830279
C100  C     C_3   0.861437 0.137303 0.519753 0.175252
C101  C     C_3   0.800566 0.173974 0.549584 -0.392204
C102  C     C_3   0.779567 0.250020 0.538386 -0.758731
C103  C     C_3   0.709299 0.070365 0.631797 0.137697
C104  C     C_3   0.773811 0.037770 0.679484 -0.422268
C105  C     C_3   0.854785 0.045077 0.674414 -0.835802
C106  C     C_1   0.110428 0.110358 0.221363 -0.103936
C107  C     C_3   0.286393 0.937843 0.365333 0.157109
C108  C     C_3   0.221384 0.863832 0.297245 -0.416366
C109  C     C_3   0.138084 0.861066 0.298973 -0.807090
C110  C     C_3   0.501240 0.992157 0.655612 0.186775
C111  C     C_3   0.453509 0.962270 0.686970 -0.399046
C112  C     C_3   0.510740 0.941955 0.748738 -0.928222
C113  C     C_3   0.505513 0.919569 0.325478 0.168605
C114  C     C_3   0.556881 0.897431 0.282774 -0.344964
C115  C     C_3   0.507434 0.826511 0.205074 -0.935426
C116  C     C_3   0.427650 0.785158 0.455278 0.100088
H1    H     H_    0.457197 0.479988 0.372584 0.152460
H2    H     H_    0.501119 0.357924 0.422770 0.163228
H3    H     H_    0.066611 0.802983 0.033176 0.350151
H4    H     H_    0.757565 0.015086 0.992598 0.183786
H5    H     H_    0.854791 0.008693 0.055695 0.155514
H6    H     H_    0.713771 0.863272 0.921898 0.241534
H7    H     H_    0.812893 0.851269 0.979313 0.240110
H8    H     H_    0.788208 0.920370 0.091014 0.278233
H9    H     H_    0.707016 0.831778 0.018582 0.274106
H10   H     H_    0.688782 0.933935 0.033956 0.270106
H11   H     H_    0.279223 0.000302 0.074808 0.166037
H12   H     H_    0.192810 0.918182 0.019286 0.202712
H13   H     H_    0.042269 0.084107 0.953343 0.200213
H14   H     H_    0.249487 0.040332 0.185084 0.245457
H15   H     H_    0.167789 0.949388 0.131177 0.218868
H16   H     H_    0.269041 0.860259 0.115917 0.286724
H17   H     H_    0.299544 0.926336 0.212766 0.282399
H18   H     H_    0.351704 0.950602 0.167335 0.257853
H19   H     H_    0.943716 0.464101 0.683786 0.381078
H20   H     H_    0.082295 0.530287 0.318268 0.383446
H21   H     H_    0.107780 0.601293 0.723989 0.203236
H22   H     H_    0.081029 0.657339 0.669830 0.197651
H23   H     H_    0.255722 0.649431 0.770833 0.222083
H24   H     H_    0.961769 0.909800 0.047244 0.186077
H25   H     H_    0.235676 0.695575 0.708893 0.257197
H26   H     H_    0.167380 0.794949 0.772626 0.298935
H27   H     H_    0.270192 0.799759 0.838337 0.252478
H28   H     H_    0.181316 0.747194 0.832942 0.294844
H29   H     H_    0.809618 0.413134 0.252744 0.161587
H30   H     H_    0.918209 0.438189 0.295803 0.212189
H31   H     H_    0.802676 0.557639 0.329132 0.239828
H32   H     H_    0.913480 0.587195 0.368653 0.264740
H33   H     H_    0.900935 0.543866 0.240852 0.292107
H34   H     H_    0.842276 0.621693 0.264125 0.296016
H35   H     H_    0.631969 0.338141 0.016724 0.139473
H36   H     H_    0.789474 0.515823 0.202443 0.228169
H37   H     H_    0.211191 0.630623 0.579868 0.367682
H38   H     H_    0.770791 0.276693 0.392120 0.360975
H39   H     H_    0.688967 0.442789 0.059616 0.151112
H40   H     H_    0.700180 0.292369 0.934196 0.240401
H41   H     H_    0.752093 0.397234 0.971745 0.245096
H42   H     H_    0.824692 0.402396 0.098616 0.243573
H43   H     H_    0.846936 0.322916 0.030566 0.312306
H44   H     H_    0.774813 0.295763 0.058905 0.281805
H45   H     H_    0.542897 0.522231 0.627583 0.146499
H46   H     H_    0.298323 0.567222 0.982324 0.170787
H47   H     H_    0.354960 0.600478 0.943849 0.139887
H48   H     H_    0.319830 0.714430 0.072653 0.240578
H49   H     H_    0.377435 0.746094 0.034343 0.230140
H50   H     H_    0.250787 0.681476 0.908834 0.248639
H51   H     H_    0.234889 0.764462 0.979603 0.295216
H52   H     H_    0.193533 0.658917 0.951879 0.293190
H53   H     H_    0.761550 0.676096 0.117949 0.180201
H54   H     H_    0.696121 0.658661 0.153692 0.149816
H55   H     H_    0.646323 0.718446 0.031976 0.236166
H56   H     H_    0.517885 0.399960 0.047856 0.173937
H57   H     H_    0.587083 0.714151 0.079561 0.233070
H58   H     H_    0.697664 0.818070 0.199553 0.301621
H59   H     H_    0.662463 0.856400 0.131272 0.257923
H60   H     H_    0.759954 0.823436 0.154354 0.280775
H61   H     H_    0.273638 0.436358 0.995351 0.159985
H62   H     H_    0.380326 0.462174 0.060459 0.145758
H63   H     H_    0.277437 0.288175 0.938053 0.253504
H64   H     H_    0.386451 0.310152 0.998970 0.223673
H65   H     H_    0.357955 0.364600 0.109426 0.262291
H66   H     H_    0.302920 0.259643 0.044904 0.280087
H67   H     H_    0.498457 0.605598 0.951420 0.175229
H68   H     H_    0.248162 0.342826 0.048313 0.273965
H69   H     H_    0.921304 0.809616 0.241038 0.366578
H70   H     H_    0.059510 0.207069 0.752290 0.381705
H71   H     H_    0.174148 0.831701 0.467393 0.183826
H72   H     H_    0.103112 0.844879 0.505352 0.206394
H73   H     H_    0.280626 0.942215 0.572568 0.257007
H74   H     H_    0.212524 0.989763 0.609646 0.267790
H75   H     H_    0.188736 0.870300 0.633657 0.306539
H76   H     H_    0.295364 0.921634 0.682570 0.250318
H77   H     H_    0.261377 0.824533 0.599819 0.303332
H78   H     H_    0.075514 0.959555 0.599466 0.219586
H79   H     H_    0.833521 0.119838 0.459323 0.152428
H80   H     H_    0.919573 0.184455 0.549744 0.216954
H81   H     H_    0.742535 0.126934 0.520533 0.258483
H82   H     H_    0.828003 0.191244 0.609887 0.227570
H83   H     H_    0.736034 0.275014 0.561445 0.246503
H84   H     H_    0.749450 0.233427 0.478262 0.269772
H85   H     H_    0.836371 0.298517 0.567565 0.312246
H86   H     H_    0.732191 0.137443 0.655497 0.139735
H87   H     H_    0.703962 0.041094 0.574570 0.155282
H88   H     H_    0.785911 0.073032 0.738362 0.235124
H89   H     H_    0.920958 0.042984 0.402552 0.217944
H90   H     H_    0.749511 0.972158 0.660593 0.251109
H91   H     H_    0.844583 0.006697 0.616552 0.271714
H92   H     H_    0.901007 0.023166 0.711310 0.255605
H93   H     H_    0.879674 0.110307 0.692116 0.292824
H94   H     H_    0.265390 0.995097 0.365015 0.130606
H95   H     H_    0.290556 0.935148 0.416088 0.183411
H96   H     H_    0.213204 0.867393 0.245993 0.228441
H97   H     H_    0.242753 0.806092 0.295477 0.240607
H98   H     H_    0.143622 0.852564 0.347459 0.303025
H99   H     H_    0.091628 0.808422 0.247575 0.264957
H100  H     H_    0.358928 0.524491 0.449781 0.178329
H101  H     H_    0.116112 0.918935 0.302259 0.263766
H102  H     H_    0.551944 0.045314 0.701971 0.191872
H103  H     H_    0.528559 0.940335 0.630154 0.156307
H104  H     H_    0.421516 0.010628 0.709248 0.250717
H105  H     H_    0.406762 0.905704 0.641497 0.241236
H106  H     H_    0.542682 0.893009 0.727373 0.270607
H107  H     H_    0.473795 0.919504 0.769617 0.269980
H108  H     H_    0.557661 0.997779 0.795597 0.275809
H109  H     H_    0.450753 0.940399 0.295525 0.182660
H110  H     H_    0.484670 0.863279 0.327175 0.130897
H111  H     H_    0.640659 0.475778 0.549929 0.175826
H112  H     H_    0.576342 0.952151 0.278070 0.230195
H113  H     H_    0.613368 0.879107 0.313512 0.266357
H114  H     H_    0.489918 0.770179 0.208491 0.288230
H115  H     H_    0.545449 0.812770 0.174771 0.279032
H116  H     H_    0.450593 0.843531 0.173467 0.255350
H117  H     H_    0.385649 0.743747 0.458522 0.170396
H118  H     H_    0.489028 0.793942 0.500401 0.164109
H119  H     H_    0.358430 0.729392 0.335035 0.234506
H120  H     H_    0.462655 0.781827 0.371434 0.202915
H121  H     H_    0.519896 0.673596 0.403073 0.250423
H122  H     H_    0.498528 0.642423 0.576860 0.153622
H123  H     H_    0.444825 0.629152 0.306821 0.261767
H124  H     H_    0.417318 0.620044 0.373612 0.260883
H125  H     H_    0.657322 0.230227 0.634444 0.147833
H126  H     H_    0.558117 0.193099 0.622737 0.149682
H127  H     H_    0.600078 0.309313 0.566316 0.225290
H128  H     H_    0.496178 0.264272 0.538865 0.250778
H129  H     H_    0.523272 0.327477 0.672256 0.256473
H130  H     H_    0.539198 0.403283 0.643928 0.253840
H131  H     H_    0.627494 0.374788 0.699662 0.278087
H132  H     H_    0.889961 0.157012 0.943390 0.345915
O1    O     O_3   0.250010 0.250010 0.500010 -0.529465
O2    O     O_R   0.893710 0.832180 0.664370 -0.612741
O3    O     O_R   0.332200 0.393690 0.664400 -0.641779
O4    O     O_R   0.667800 0.606310 0.335600 -0.653503
O5    O     O_R   0.229300 0.167820 0.335610 -0.645436
O6    O     O_R   0.770700 0.832180 0.664390 -0.643963
O7    O     O_R   0.358130 0.123520 0.543120 -0.615313
O8    O     O_R   0.641870 0.876480 0.456880 -0.628169
O9    O     O_R   0.080390 0.314990 0.456920 -0.585674
O10   O     O_R   0.919610 0.685010 0.543080 -0.587226
O11   O     O_R   0.185040 0.123520 0.543150 -0.607873
O12   O     O_3   0.749990 0.749990 0.499990 -0.516065
O13   O     O_R   0.814960 0.876480 0.456850 -0.598539
O14   O     O_R   0.358080 0.419590 0.543080 -0.629259
O15   O     O_R   0.641920 0.580410 0.456920 -0.618638
O16   O     O_R   0.080420 0.141920 0.456950 -0.635385
O17   O     O_R   0.919580 0.858080 0.543050 -0.638814
O18   O     O_R   0.376490 0.315000 0.456880 -0.652866
O19   O     O_R   0.623510 0.685000 0.543120 -0.657196
O20   O     O_3   0.597209 0.395632 0.948511 -0.612339
O21   O     O_3   0.422742 0.615263 0.053440 -0.645357
O22   O     O_3   0.664512 0.579174 0.042235 -0.637440
O23   O     O_R   0.376520 0.141930 0.456900 -0.639342
O24   O     O_3   0.350681 0.421084 0.946402 -0.631571
O25   O     O_2   0.956903 0.773949 0.357896 -0.306570
O26   O     O_2   0.829814 0.826094 0.316964 -0.336323
O27   O     O_3   0.946667 0.861770 0.287724 -0.557105
O28   O     O_2   0.169997 0.152647 0.695776 -0.287230
O29   O     O_2   0.076606 0.232384 0.644857 -0.310631
O30   O     O_3   0.031296 0.155824 0.705058 -0.555372
O31   O     O_3   0.120343 0.930985 0.468887 -0.636353
O32   O     O_3   0.876302 0.067076 0.531225 -0.632300
O33   O     O_3   0.634168 0.057605 0.635141 -0.653915
O34   O     O_R   0.623480 0.858070 0.543100 -0.667866
O35   O     O_3   0.362177 0.937370 0.360993 -0.657240
O36   O     O_3   0.447592 0.018450 0.604303 -0.606517
O37   O     O_3   0.553930 0.984098 0.397117 -0.597601
O38   O     O_3   0.398738 0.859065 0.467009 -0.630946
O39   O     O_3   0.579477 0.145375 0.526978 -0.610215
O40   O     O_2   0.918644 0.173084 0.110491 -0.268657
O41   O     O_2   0.018176 0.234512 0.086831 -0.269224
O42   O     O_3   0.868368 0.166905 0.979967 -0.545935
O43   O     O_2   0.957157 0.762550 0.888520 -0.254420
O44   O     O_2   0.082092 0.815145 0.889133 -0.304671
O45   O     O_R   0.184990 0.419580 0.543110 -0.598440
O46   O     O_3   0.097625 0.796185 0.003987 -0.582359
O47   O     O_3   0.833216 0.970872 0.944021 -0.616733
O48   O     O_3   0.169878 0.037876 0.053845 -0.623834
O49   O     O_2   0.940735 0.603507 0.660250 -0.326471
O50   O     O_2   0.836301 0.478492 0.562964 -0.253435
O51   O     O_3   0.974067 0.462355 0.654965 -0.514647
O52   O     O_2   0.172730 0.500875 0.438312 -0.287060
O53   O     O_2   0.055561 0.392080 0.332370 -0.299588
O54   O     O_3   0.054655 0.543146 0.350759 -0.521857
O55   O     O_3   0.133045 0.553107 0.634420 -0.609825
O56   O     O_R   0.815010 0.580420 0.456890 -0.603763
O57   O     O_3   0.861649 0.438223 0.361608 -0.565309
O58   O     O_2   0.054983 0.690769 0.474844 -0.246886
O59   O     O_2   0.095445 0.737988 0.606704 -0.328966
O60   O     O_3   0.195011 0.666498 0.554877 -0.506251
O61   O     O_2   0.904644 0.266963 0.378093 -0.270235
O62   O     O_2   0.940987 0.300324 0.507528 -0.297220
O63   O     O_3   0.803430 0.332678 0.430467 -0.489917
O64   O     O_R   0.332220 0.270690 0.664420 -0.609482
O65   O     O_R   0.667780 0.729310 0.335580 -0.627277
O66   O     O_R   0.106290 0.167820 0.335630 -0.607609
S1    S     S_3+6 0.922267 0.845161 0.347289 0.009589
S2    S     S_3+6 0.080952 0.155636 0.655415 0.030773
S3    S     S_3+6 0.947023 0.164548 0.053390 0.038164
S4    S     S_3+6 0.039687 0.821402 0.936326 0.007875
S5    S     S_3+6 0.927572 0.514652 0.607206 0.054943
S6    S     S_3+6 0.080599 0.480077 0.391053 0.044922
S7    S     S_3+6 0.096462 0.670984 0.539055 0.058278
S8    S     S_3+6 0.902270 0.327555 0.447862 0.098735
Zn1   Zn    Zn3+2 0.307090 0.219220 0.438420 0.973205
Zn2   Zn    Zn3+2 0.692910 0.780780 0.561580 0.953272
Zn3   Zn    Zn3+2 0.280820 0.192930 0.561610 1.030498
Zn4   Zn    Zn3+2 0.719180 0.807070 0.438390 0.996601
Zn5   Zn    Zn3+2 0.131340 0.219220 0.438450 1.087152
Zn6   Zn    Zn3+2 0.868660 0.780780 0.561550 1.061733
Zn7   Zn    Zn3+2 0.280790 0.368660 0.561580 1.034089
Zn8   Zn    Zn3+2 0.719210 0.631340 0.438420 1.017697

loop_
_geom_bond_atom_site_label_1
_geom_bond_atom_site_label_2
_ccdc_geom_bond_type
C63   C65   S    
C55   C59   S    
C19   C20   S    
C98   H74   S    
C114  C115  S    
C14   H16   S    
C71   O10   A    
C7    H130  S    
C12   H14   S    
C50   C59   S    
C104  H88   S    
C96   H68   S    
O40   S3    D    
C10   H8    S    
H69   O27   S    
C5    C6    S    
C8    H5    S    
C51   H2    S    
C108  C109  S    
C91   H57   S    
O59   S7    D    
C110  C111  S    
C89   H51   S    
C38   C45   S    
C3    H119  S    
C55   C74   S    
C56   C72   S    
C116  H117  S    
C4    H121  S    
C58   O8    A    
C10   H9    S    
O12   Zn8   S    
C108  H97   S    
C2    C34   S    
C112  H108  S    
H3    O46   S    
C90   O22   S    
O10   Zn6   S    
C104  C105  S    
C44   C46   S    
C100  H80   S    
C92   H59   S    
O8    Zn4   S    
C50   C53   S    
C27   C31   S    
C29   O4    A    
C71   O56   A    
C58   O34   A    
C54   S2    S    
O52   S6    D    
O54   S6    S    
C17   H26   S    
C64   C66   S    
C30   S6    S    
C113  H109  S    
C65   C68   S    
C53   S1    S    
C34   O2    A    
C94   C96   S    
C73   C95   S    
C45   H56   S    
C97   H71   S    
O45   Zn7   S    
C13   O48   S    
O66   Zn5   S    
C33   C106  S    
C6    C7    S    
C8    O47   S    
C99   H77   S    
C19   H32   S    
C91   H55   S    
C37   C44   S    
C51   C78   S    
O1    Zn7   S    
C102  H83   S    
C77   C82   S    
O7    Zn3   S    
C9    H7    S    
C4    H123  S    
C23   C95   S    
C60   H89   S    
O3    Zn7   S    
C74   O13   A    
C26   C35   S    
C88   C89   S    
C98   C99   S    
C40   C77   S    
O2    Zn6   S    
O50   S5    D    
C77   H100  S    
C15   H21   S    
C26   C32   S    
C111  C112  S    
C96   H65   S    
C97   C98   S    
C90   C91   S    
C107  H94   S    
C85   C86   S    
C20   H33   S    
O9    Zn5   S    
C17   H28   S    
C32   C36   S    
O11   Zn3   S    
C102  H85   S    
C29   O65   A    
C3    C116  S    
O30   S2    S    
C99   H76   S    
C78   C80   S    
C110  O36   S    
C57   O23   A    
C21   C73   S    
C40   H122  S    
C52   C60   S    
C70   O9    A    
O1    Zn5   S    
C63   C69   S    
C107  C108  S    
C41   O21   S    
C37   C47   S    
C9    C10   S    
C39   C45   S    
C113  O37   S    
C31   C71   S    
C6    H128  S    
C108  H96   S    
C53   C60   S    
C54   C59   S    
O56   Zn8   S    
C38   C41   S    
C80   C82   S    
C109  H98   S    
C91   C92   S    
C93   H61   S    
C32   C70   S    
C92   H58   S    
C88   H48   S    
C50   C56   S    
C11   H11   S    
O13   Zn4   S    
C110  H103  S    
H19   O51   S    
C61   C67   S    
C15   O55   S    
C41   C47   S    
C42   C48   T    
C64   C69   S    
O61   S8    D    
C44   H67   S    
C115  H116  S    
O25   S1    D    
C1    O64   A    
C36   S8    S    
C24   C106  T    
O49   S5    D    
C3    C4    S    
O14   Zn7   S    
C78   H111  S    
C62   C84   S    
C1    O3    A    
C75   C82   S    
C14   H17   S    
C7    H129  S    
C63   O37   S    
C34   O6    A    
C16   H25   S    
C97   O31   S    
C90   H53   S    
C100  C101  S    
C20   H34   S    
O43   S4    D    
C94   H63   S    
C51   C79   S    
C89   H50   S    
C38   C46   S    
C109  H101  S    
C114  H112  S    
C46   C48   S    
C87   H46   S    
C72   O11   A    
C88   H49   S    
C37   O22   S    
C116  H118  S    
C10   H10   S    
C38   O24   S    
H70   O30   S    
O4    Zn8   S    
O46   S4    S    
C87   C88   S    
C101  C102  S    
C66   C68   S    
C21   O47   S    
C18   H29   S    
C114  H113  S    
H37   O60   S    
O51   S5    S    
C92   H60   S    
C26   O55   S    
C105  H92   S    
C83   O20   S    
C74   O17   A    
H20   O54   S    
C107  H95   S    
O5    Zn1   S    
C105  H93   S    
C18   C19   S    
C70   O45   A    
C115  H114  S    
C13   C62   S    
C16   C17   S    
C65   C67   S    
C104  H90   S    
C5    H126  S    
C52   C55   S    
C45   C47   S    
C63   C66   S    
C29   C43   S    
C85   H41   S    
C98   H73   S    
O44   S4    D    
C83   H35   S    
C72   O16   A    
C28   S5    S    
O12   Zn2   S    
C39   O20   S    
C109  H99   S    
O18   Zn1   S    
O42   S3    S    
C19   H31   S    
C56   C60   S    
C18   O57   S    
C5    O39   S    
C85   H40   S    
C57   O7    A    
C61   C64   S    
C89   H52   S    
C102  H84   S    
C3    H120  S    
C21   C84   S    
C93   H62   S    
O23   Zn1   S    
C9    H6    S    
C4    H124  S    
C77   C79   S    
C68   O38   S    
C83   C85   S    
C21   C23   S    
C112  H107  S    
C31   C35   S    
C113  C114  S    
C100  H79   S    
O16   Zn5   S    
C28   C31   S    
C107  O35   S    
C96   H66   S    
O62   S8    D    
C27   C36   S    
C17   H27   S    
O34   Zn2   S    
C103  H86   S    
C37   C39   S    
C99   H75   S    
C78   C81   S    
C113  H110  S    
C79   H1    S    
C13   C22   S    
C2    C25   T    
C101  H81   S    
C20   H36   S    
O6    Zn2   S    
C1    C42   S    
C83   H39   S    
C28   C36   S    
O41   S3    D    
O64   Zn3   S    
C103  C104  S    
C95   S4    S    
C86   H44   S    
O1    Zn1   S    
O60   S7    S    
C75   O18   A    
C97   H72   S    
C87   H47   S    
C93   C94   S    
C12   H15   S    
C7    H131  S    
O17   Zn6   S    
O12   Zn4   S    
C47   C49   S    
C30   C35   S    
C13   C95   S    
C15   C16   S    
C111  H105  S    
C64   O33   S    
C58   C66   S    
C8    C9    S    
C40   C80   S    
C116  O38   S    
O65   Zn4   S    
O28   S2    D    
C115  H115  S    
C52   O32   S    
C15   H22   S    
H38   O63   S    
C75   O14   A    
C100  O32   S    
C27   C30   S    
C62   H13   S    
C57   C67   S    
C52   C54   S    
C105  H91   S    
O15   Zn8   S    
C53   C55   S    
C59   H78   S    
C11   O48   S    
C54   C56   S    
C61   O36   S    
O29   S2    D    
C79   C81   S    
C101  H82   S    
C43   C49   T    
C14   H18   S    
O27   S1    S    
C50   O31   S    
C27   O57   S    
C67   C69   S    
C22   C84   S    
C33   O66   A    
C90   H54   S    
C65   O35   S    
C94   H64   S    
C86   H42   S    
C51   C82   S    
O1    Zn3   S    
C39   C46   S    
C76   O15   A    
C12   C14   S    
C6    H127  S    
C16   H23   S    
C111  H104  S    
C35   S7    S    
O12   Zn6   S    
O63   S8    S    
O19   Zn2   S    
C8    H4    S    
C86   H43   S    
C69   O39   S    
C112  H106  S    
C40   C81   S    
C18   H30   S    
C76   C81   S    
C11   C12   S    
C73   H24   S    
O53   S6    D    
C26   C28   S    
H132  O42   S    
C33   O5    A    
C11   H12   S    
C84   S3    S    
C87   O21   S    
C30   C32   S    
C61   C68   S    
C93   O24   S    
C41   C44   S    
C22   C24   S    
C23   C25   S    
C110  H102  S    
O58   S7    D    
C103  H87   S    
C80   H45   S    
O26   S1    D    
C76   O19   A    
C23   C62   S    
C22   C73   S    
C5    H125  S    
C103  O33   S    
