data_mof_unit_11602.cif
_audit_creation_date              2012-12-10T16:55:05-0500
_audit_creation_method            fapswitch 2.2
_symmetry_space_group_name_H-M    P1
_symmetry_Int_Tables_number       1
_space_group_crystal_system       triclinic
_cell_length_a                    9.692964
_cell_length_b                    10.922579
_cell_length_c                    15.502221
_cell_angle_alpha                 89.862689
_cell_angle_beta                  73.743897
_cell_angle_gamma                 89.928002
_cell_volume                      1575.63162856

loop_
_atom_site_label
_atom_site_type_symbol
_atom_type_description
_atom_site_fract_x
_atom_site_fract_y
_atom_site_fract_z
_atom_type_partial_charge
C1    C     C_R   0.997730 0.265369 0.505319 0.784226
C2    C     C_R   0.677213 0.526976 0.909832 0.104068
C3    C     C_R   0.775513 0.495203 0.958863 0.158272
C4    C     C_R   0.531251 0.553143 0.956441 0.043859
C5    C     C_R   0.481984 0.532256 0.050399 0.072066
C6    C     C_R   0.584511 0.503937 0.097128 -0.204058
C7    C     C_R   0.728471 0.486867 0.052037 -0.226232
C8    C     C_R   0.434779 0.603201 0.912416 -0.266736
C9    C     C_R   0.290004 0.623845 0.956978 -0.043261
C10   C     C_R   0.235927 0.587447 0.047690 0.082378
C11   C     C_R   0.332364 0.542044 0.094730 0.079289
C12   C     C_R   0.916774 0.499895 0.672238 0.809055
C13   C     C_R   0.087486 0.593013 0.092503 -0.170488
C14   C     C_R   0.035695 0.561157 0.182829 -0.203681
C15   C     C_R   0.275580 0.505388 0.184761 -0.225796
C16   C     C_2   0.886687 0.933378 0.502227 -0.102934
C17   C     C_2   0.006329 0.866414 0.488901 -0.269207
C18   C     C_2   0.894524 0.066941 0.495902 -0.230352
C19   C     C_2   0.988594 0.134660 0.525246 -0.157740
C20   C     C_2   0.397708 0.433218 0.554523 -0.017431
C21   C     C_2   0.554381 0.430025 0.552338 -0.053538
C22   C     C_R   0.001245 0.734607 0.497148 0.860321
C23   C     C_R   0.083297 0.502408 0.327764 0.794317
C24   C     C_R   0.870921 0.500780 0.770885 -0.062327
C25   C     C_R   0.130231 0.519702 0.229842 -0.047956
C26   C     C_R   0.919891 0.470638 0.914039 -0.189773
C27   C     C_R   0.967549 0.474270 0.820614 -0.126075
C28   C     C_R   0.727144 0.526250 0.815485 -0.242099
Cu1   Cu    Cu3+1 0.138640 0.500020 0.499980 0.981629
Cu2   Cu    Cu3+1 0.861360 0.499980 0.500020 0.951029
H1    H     H_    0.802904 0.464311 0.090430 0.143144
H2    H     H_    0.009532 0.621731 0.058695 0.176218
H3    H     H_    0.782211 0.890308 0.513290 0.173653
H4    H     H_    0.111518 0.909404 0.471883 0.152658
H5    H     H_    0.824087 0.110284 0.461291 0.172231
H6    H     H_    0.324318 0.375846 0.603789 0.174492
H7    H     H_    0.415296 0.550290 0.452218 0.190212
H8    H     H_    0.585521 0.366677 0.597546 0.161028
H9    H     H_    0.623756 0.561755 0.460120 0.190425
H10   H     H_    0.342203 0.464002 0.221837 0.148219
H11   H     H_    0.922122 0.571401 0.216224 0.154011
H12   H     H_    0.995598 0.446774 0.951215 0.135179
H13   H     H_    0.078982 0.453384 0.787310 0.176671
H14   H     H_    0.654780 0.540979 0.774933 0.160832
H15   H     H_    0.558094 0.497699 0.169253 0.140699
H16   H     H_    0.471847 0.634704 0.843835 0.175537
N1    N     N_2   0.346430 0.498660 0.500980 -0.282553
N2    N     N_2   0.652550 0.498630 0.501000 -0.285004
O1    O     O_R   0.117050 0.321960 0.499980 -0.540004
O2    O     O_R   0.882890 0.321920 0.500020 -0.578477
O3    O     O_R   0.052910 0.500040 0.629810 -0.567811
O4    O     O_R   0.818750 0.499990 0.629840 -0.580704
O5    O     O_R   0.117110 0.678080 0.499980 -0.567371
O6    O     O_R   0.882950 0.678040 0.500020 -0.580149
O7    O     O_R   0.181250 0.500010 0.370160 -0.585168
O8    O     O_R   0.947090 0.499960 0.370190 -0.580489
C29   C     C_2   0.068716 0.086266 0.587554 0.841518
O9    O     O_2   0.188678 0.125049 0.583486 -0.599827
O10   O     O_R   0.004793 0.999137 0.652762 -0.741433
H17   H     H_    0.069414 0.974006 0.691094 0.339760
C30   C     C_2   0.200781 0.687192 0.906414 0.825251
O11   O     O_2   0.218997 0.664869 0.826710 -0.603202
O12   O     O_R   0.101550 0.776847 0.948193 -0.762679
H18   H     H_    0.048739 0.813513 0.906319 0.342309

loop_
_geom_bond_atom_site_label_1
_geom_bond_atom_site_label_2
_ccdc_geom_bond_type
C8    C9    A    
C2    C4    A    
C23   O7    A    
Cu1   Cu2   S    
C6    H15   S    
C16   H3    S    
H7    N1    S    
C9    C10   A    
C12   C24   S    
C13   H2    S    
C17   C22   S    
C24   C27   A    
C4    C8    A    
C21   N2    D    
C30   O11   D    
C11   C15   A    
C2    C3    A    
C26   C27   A    
O10   H17   S    
C22   O6    A    
Cu1   O1    S    
C13   C14   A    
C19   C29   S    
Cu2   O6    S    
C29   O9    D    
C6    C7    A    
Cu1   O5    S    
Cu1   N1    S    
C14   H11   S    
C9    C30   S    
Cu2   N2    S    
C12   O4    A    
Cu1   O3    S    
C1    O2    A    
C5    C11   A    
C22   O5    A    
C3    C7    A    
C10   C11   A    
C23   C25   S    
C14   C25   A    
Cu2   O2    S    
C5    C6    A    
C8    H16   S    
C15   H10   S    
C29   O10   S    
C20   N1    D    
C15   C25   A    
C17   H4    S    
O12   H18   S    
C20   H6    S    
C27   H13   S    
C23   O8    A    
C12   O3    A    
C7    H1    S    
C20   C21   S    
C26   H12   S    
C16   C18   S    
C18   C19   D    
C18   H5    S    
C30   O12   S    
Cu2   O4    S    
C16   C17   D    
C2    C28   A    
Cu1   O7    S    
C1    C19   S    
Cu2   O8    S    
C28   H14   S    
C3    C26   A    
C21   H8    S    
C24   C28   A    
C4    C5    A    
H9    N2    S    
C10   C13   A    
C1    O1    A    
