data_mof_unit_66500.cif
_audit_creation_date              2012-12-10T16:51:50-0500
_audit_creation_method            fapswitch 2.2
_symmetry_space_group_name_H-M    P1
_symmetry_Int_Tables_number       1
_space_group_crystal_system       triclinic
_cell_length_a                    30.112894
_cell_length_b                    30.054203
_cell_length_c                    21.834179
_cell_angle_alpha                 90.092348
_cell_angle_beta                  133.793638
_cell_angle_gamma                 89.656142
_cell_volume                      14263.4061916

loop_
_atom_site_label
_atom_site_type_symbol
_atom_type_description
_atom_site_fract_x
_atom_site_fract_y
_atom_site_fract_z
_atom_type_partial_charge
C1    C     C_R   0.686445 0.810036 0.882660 0.847653
C2    C     C_R   0.523370 0.667896 0.999516 -0.155113
C3    C     C_R   0.662940 0.249961 0.999570 0.951467
C4    C     C_R   0.406671 0.789636 0.998846 -0.292693
C5    C     C_R   0.594373 0.789671 0.004222 -0.316016
C6    C     C_R   0.906671 0.289636 0.998846 -0.292693
C7    C     C_R   0.094373 0.289671 0.004222 -0.316016
C8    C     C_R   0.384721 0.749228 0.000153 -0.180859
C9    C     C_R   0.615970 0.749312 0.001181 -0.180215
C10   C     C_R   0.884721 0.249228 0.000153 -0.180859
C11   C     C_R   0.115970 0.249312 0.001181 -0.180215
C12   C     C_R   0.408492 0.708564 0.001968 0.562349
C13   C     C_R   0.977786 0.167871 0.000736 -0.153721
C14   C     C_R   0.592363 0.708650 0.998721 0.571048
C15   C     C_R   0.908492 0.208564 0.001968 0.562349
C16   C     C_R   0.092363 0.208650 0.998721 0.571048
C17   C     C_R   0.454467 0.708182 0.001397 -0.003849
C18   C     C_R   0.546683 0.708227 0.999860 -0.006435
C19   C     C_R   0.954467 0.208182 0.001397 -0.003849
C20   C     C_R   0.046683 0.208227 0.999860 -0.006435
C21   C     C_R   0.477368 0.749021 0.001175 0.015162
C22   C     C_R   0.523950 0.749036 0.001438 0.017708
C23   C     C_R   0.977368 0.249021 0.001175 0.015162
C24   C     C_R   0.023370 0.167896 0.999516 -0.155113
C25   C     C_R   0.023950 0.249036 0.001438 0.017708
C26   C     C_2   0.834138 0.743234 0.759245 0.429271
C27   C     C_2   0.166042 0.754881 0.240883 0.440937
C28   C     C_2   0.334138 0.243234 0.759245 0.429271
C29   C     C_2   0.666041 0.254881 0.240883 0.440937
C30   C     C_2   0.826597 0.606931 0.142911 0.454436
C31   C     C_2   0.175742 0.607001 0.857696 0.462658
C32   C     C_2   0.326597 0.106931 0.142911 0.454437
C33   C     C_2   0.675742 0.107001 0.857696 0.462658
C34   C     C_2   0.488452 0.877127 0.633168 0.464969
C35   C     C_R   0.524337 0.830228 0.003469 -0.167399
C36   C     C_2   0.457116 0.920079 0.266137 0.537543
C37   C     C_2   0.988452 0.377127 0.633168 0.464969
C38   C     C_2   0.957116 0.420079 0.266137 0.537542
C39   C     C_2   0.643538 0.880019 0.694519 0.503969
C40   C     C_2   0.388252 0.865398 0.346887 0.524457
C41   C     C_2   0.143538 0.380019 0.694519 0.503969
C42   C     C_2   0.888252 0.365398 0.346887 0.524457
C43   C     C_2   0.555017 0.793293 0.723189 0.370111
C44   C     C_2   0.448241 0.813492 0.251212 0.423585
C45   C     C_2   0.055017 0.293293 0.723189 0.370111
C46   C     C_R   0.477210 0.830224 0.001651 -0.156545
C47   C     C_2   0.948241 0.313492 0.251212 0.423584
C48   C     C_R   0.024337 0.330228 0.003469 -0.167399
C49   C     C_R   0.977210 0.330224 0.001651 -0.156545
C50   C     C_2   0.554470 0.871505 0.679837 -0.125735
C51   C     C_2   0.431136 0.887954 0.286450 -0.130662
C52   C     C_2   0.054470 0.371505 0.679837 -0.125735
C53   C     C_R   0.310002 0.810210 0.116992 0.891840
C54   C     C_2   0.931136 0.387954 0.286450 -0.130663
C55   C     C_2   0.584086 0.896264 0.664811 -0.154563
C56   C     C_2   0.418580 0.898220 0.334072 -0.213248
C57   C     C_2   0.084086 0.396264 0.664811 -0.154563
C58   C     C_2   0.918580 0.398220 0.334072 -0.213247
C59   C     C_2   0.587731 0.836146 0.745160 -0.260065
C60   C     C_2   0.405202 0.847510 0.235670 -0.196450
C61   C     C_2   0.087731 0.336146 0.745160 -0.260065
C62   C     C_2   0.905202 0.347510 0.235670 -0.196449
C63   C     C_2   0.644728 0.844695 0.821571 0.445060
C64   C     C_R   0.186445 0.310036 0.882660 0.847653
C65   C     C_2   0.343427 0.846014 0.175375 0.418447
C66   C     C_2   0.144728 0.344694 0.821571 0.445060
C67   C     C_2   0.843427 0.346014 0.175375 0.418447
C68   C     C_R   0.131343 0.749362 0.076521 -0.334585
C69   C     C_R   0.868664 0.748017 0.923549 -0.335782
C70   C     C_R   0.631342 0.249362 0.076521 -0.334585
C71   C     C_R   0.368664 0.248017 0.923549 -0.335782
C72   C     C_R   0.115048 0.750336 0.999320 -0.167900
C73   C     C_R   0.884924 0.749301 0.000712 -0.169759
C74   C     C_R   0.615048 0.250335 0.999320 -0.167900
C75   C     C_R   0.810002 0.310210 0.116992 0.891840
C76   C     C_R   0.384924 0.249301 0.000712 -0.169759
C77   C     C_R   0.053675 0.751489 0.922483 0.577592
C78   C     C_R   0.946275 0.750151 0.077554 0.577527
C79   C     C_R   0.553675 0.251489 0.922483 0.577592
C80   C     C_R   0.446275 0.250151 0.077554 0.577527
C81   C     C_R   0.663352 0.749802 0.000351 0.970376
C82   C     C_R   0.336806 0.749693 0.999890 0.997688
C83   C     C_R   0.163352 0.249802 0.000351 0.970376
C84   C     C_R   0.836806 0.249693 0.999890 0.997688
C85   C     C_R   0.007499 0.750621 0.922455 -0.050562
C86   C     C_R   0.453618 0.789879 0.000513 0.115071
C87   C     C_R   0.992472 0.750035 0.077601 -0.049505
C88   C     C_R   0.507499 0.250621 0.922455 -0.050562
C89   C     C_R   0.492472 0.250035 0.077601 -0.049505
C90   C     C_R   0.023411 0.750292 0.000399 0.024989
C91   C     C_R   0.976586 0.749374 0.999677 0.024122
C92   C     C_R   0.523411 0.250292 0.000399 0.024989
C93   C     C_R   0.476586 0.249374 0.999677 0.024122
C94   C     C_R   0.086129 0.750737 0.078828 0.046535
C95   C     C_R   0.913907 0.747840 0.921272 0.046510
C96   C     C_R   0.586129 0.250737 0.078828 0.046535
C97   C     C_R   0.547729 0.789895 0.003184 0.120436
C98   C     C_R   0.413907 0.247840 0.921272 0.046510
C99   C     C_R   0.945869 0.749365 0.845479 -0.116205
C100  C     C_R   0.054120 0.751016 0.154582 -0.114782
C101  C     C_R   0.445869 0.249365 0.845479 -0.116205
C102  C     C_R   0.554120 0.251016 0.154582 -0.114782
C103  C     C_R   0.898528 0.747199 0.843439 -0.036159
C104  C     C_R   0.101534 0.751685 0.156665 -0.042222
C105  C     C_R   0.398528 0.247199 0.843439 -0.036159
C106  C     C_R   0.601534 0.251685 0.156665 -0.042222
C107  C     C_2   0.941433 0.626852 0.318626 -0.099322
C108  C     C_R   0.953618 0.289879 0.000513 0.115071
C109  C     C_2   0.058657 0.626594 0.682735 -0.102550
C110  C     C_2   0.441433 0.126852 0.318626 -0.099322
C111  C     C_2   0.558657 0.126594 0.682735 -0.102550
C112  C     C_2   0.912750 0.599801 0.330198 -0.273658
C113  C     C_2   0.086984 0.599502 0.670124 -0.269764
C114  C     C_2   0.412750 0.099801 0.330198 -0.273659
C115  C     C_2   0.586984 0.099502 0.670124 -0.269764
C116  C     C_2   0.905314 0.661605 0.253700 -0.139989
C117  C     C_2   0.094776 0.661435 0.747112 -0.141613
C118  C     C_2   0.405314 0.161605 0.253700 -0.139989
C119  C     C_R   0.047729 0.289895 0.003184 0.120436
C120  C     C_2   0.594776 0.161435 0.747112 -0.141613
C121  C     C_2   0.849281 0.653042 0.176630 -0.192317
C122  C     C_2   0.151520 0.653045 0.823669 -0.197638
C123  C     C_2   0.349281 0.153042 0.176630 -0.192317
C124  C     C_2   0.651520 0.153045 0.823669 -0.197638
C125  C     C_R   0.057397 0.561572 0.614513 0.933338
C126  C     C_R   0.942465 0.561643 0.385560 0.918441
C127  C     C_R   0.557397 0.061572 0.614513 0.933338
C128  C     C_R   0.442465 0.061643 0.385560 0.918441
C129  C     C_R   0.810943 0.689376 0.117546 0.856310
C130  C     C_R   0.477786 0.667871 0.000736 -0.153721
C131  C     C_R   0.189217 0.689372 0.882459 0.857502
C132  C     C_R   0.310943 0.189376 0.117546 0.856310
C133  C     C_R   0.689217 0.189372 0.882459 0.857502
C134  C     C_R   0.557195 0.937541 0.613912 0.948908
C135  C     C_R   0.441853 0.939149 0.383321 0.890151
C136  C     C_R   0.057195 0.437541 0.613912 0.948908
C137  C     C_R   0.941853 0.439150 0.383321 0.890151
C138  C     C_R   0.836969 0.749744 0.000344 0.951119
C139  C     C_R   0.162940 0.749961 0.999570 0.951467
C140  C     C_R   0.336969 0.249744 0.000344 0.951119
F1    F     F_    0.039198 0.751524 0.848004 -0.664768
F2    F     F_    0.309373 0.882260 0.160135 -0.643284
F3    F     F_    0.165478 0.387367 0.843930 -0.629304
F4    F     F_    0.809373 0.382260 0.160135 -0.643284
F5    F     F_    0.960735 0.750324 0.152019 -0.664445
F6    F     F_    0.539198 0.251524 0.848004 -0.664768
F7    F     F_    0.460735 0.250324 0.152019 -0.664445
F8    F     F_    0.385569 0.669644 0.001827 -0.666066
F9    F     F_    0.615058 0.669738 0.997476 -0.664222
F10   F     F_    0.885569 0.169644 0.001827 -0.666066
F11   F     F_    0.115058 0.169738 0.997476 -0.664222
F12   F     F_    0.665478 0.887367 0.843930 -0.629304
H1    H     H_    0.387890 0.820774 0.998153 0.187870
H2    H     H_    0.009891 0.623626 0.646073 0.174761
H3    H     H_    0.490379 0.123736 0.356147 0.176978
H4    H     H_    0.509891 0.123626 0.646073 0.174761
H5    H     H_    0.865232 0.606325 0.297957 0.152006
H6    H     H_    0.134198 0.605954 0.701408 0.153509
H7    H     H_    0.365232 0.106325 0.297957 0.152006
H8    H     H_    0.634198 0.105954 0.701408 0.153509
H9    H     H_    0.923947 0.695050 0.270792 0.185228
H10   H     H_    0.075288 0.694796 0.730179 0.185581
H11   H     H_    0.423947 0.195050 0.270792 0.185228
H12   H     H_    0.613086 0.820816 0.005585 0.183621
H13   H     H_    0.575288 0.194796 0.730179 0.185581
H14   H     H_    0.460672 0.636268 0.000733 0.211516
H15   H     H_    0.540394 0.636310 0.998545 0.211376
H16   H     H_    0.960672 0.136268 0.000733 0.211516
H17   H     H_    0.040394 0.136310 0.998545 0.211376
H18   H     H_    0.542252 0.861716 0.004620 0.158522
H19   H     H_    0.459356 0.861707 0.001420 0.162943
H20   H     H_    0.042252 0.361716 0.004620 0.158522
H21   H     H_    0.959356 0.361707 0.001420 0.162943
H22   H     H_    0.179659 0.747664 0.133897 0.164104
H23   H     H_    0.887890 0.320774 0.998153 0.187870
H24   H     H_    0.820306 0.748673 0.866144 0.161293
H25   H     H_    0.679659 0.247664 0.133897 0.164104
H26   H     H_    0.320306 0.248673 0.866144 0.161293
H27   H     H_    0.797891 0.730171 0.753272 0.062053
H28   H     H_    0.202683 0.767013 0.246938 0.072722
H29   H     H_    0.297891 0.230171 0.753272 0.062053
H30   H     H_    0.702683 0.267013 0.246938 0.072722
H31   H     H_    0.777504 0.600555 0.095760 0.095054
H32   H     H_    0.225010 0.600885 0.903836 0.094633
H33   H     H_    0.277504 0.100555 0.095760 0.095053
H34   H     H_    0.113086 0.320816 0.005585 0.183621
H35   H     H_    0.725010 0.100885 0.903836 0.094633
H36   H     H_    0.474346 0.874177 0.667198 0.084721
H37   H     H_    0.455121 0.955661 0.272247 0.103805
H38   H     H_    0.974346 0.374177 0.667198 0.084721
H39   H     H_    0.955121 0.455661 0.272247 0.103805
H40   H     H_    0.655218 0.844853 0.706695 0.029088
H41   H     H_    0.387112 0.830311 0.334110 0.027962
H42   H     H_    0.155218 0.344853 0.706695 0.029088
H43   H     H_    0.887112 0.330311 0.334110 0.027962
H44   H     H_    0.522069 0.782210 0.657726 0.096591
H45   H     H_    0.934557 0.748958 0.786329 0.239109
H46   H     H_    0.496421 0.814561 0.310129 0.104434
H47   H     H_    0.022069 0.282210 0.657726 0.096591
H48   H     H_    0.996421 0.314561 0.310129 0.104434
H49   H     H_    0.065431 0.752049 0.213715 0.239266
H50   H     H_    0.434557 0.248958 0.786329 0.239109
H51   H     H_    0.565431 0.252049 0.213715 0.239266
H52   H     H_    0.990379 0.623736 0.356147 0.176978
O1    O     O_R   0.679230 0.769690 0.858450 -0.628571
O2    O     O_R   0.492070 0.954750 0.409550 -0.667490
O3    O     O_R   0.007930 0.454750 0.590450 -0.581408
O4    O     O_R   0.992070 0.454750 0.409550 -0.667490
O5    O     O_R   0.582530 0.954770 0.590430 -0.580005
O6    O     O_R   0.417470 0.954770 0.409570 -0.529138
O7    O     O_R   0.082530 0.454770 0.590430 -0.580005
O8    O     O_R   0.917470 0.454770 0.409570 -0.529138
O9    O     O_R   0.730270 0.820760 0.960570 -0.582364
O10   O     O_R   0.269730 0.820760 0.039430 -0.593537
O11   O     O_R   0.230270 0.320760 0.960570 -0.582364
O12   O     O_R   0.320770 0.769690 0.141550 -0.629961
O13   O     O_R   0.769730 0.320760 0.039430 -0.593537
O14   O     O_R   0.658400 0.724440 0.948940 -0.535058
O15   O     O_R   0.341600 0.724440 0.051060 -0.537755
O16   O     O_R   0.158400 0.224440 0.948940 -0.535058
O17   O     O_R   0.841600 0.224440 0.051060 -0.537755
O18   O     O_R   0.709450 0.775510 0.051050 -0.644378
O19   O     O_R   0.290550 0.775510 0.948950 -0.647545
O20   O     O_R   0.209450 0.275510 0.051050 -0.644378
O21   O     O_R   0.790550 0.275510 0.948950 -0.647545
O22   O     O_R   0.769710 0.679220 0.039380 -0.624557
O23   O     O_R   0.179230 0.269690 0.858450 -0.628571
O24   O     O_R   0.230290 0.679220 0.960620 -0.625442
O25   O     O_R   0.269710 0.179220 0.039380 -0.624557
O26   O     O_R   0.730290 0.179220 0.960620 -0.625442
O27   O     O_R   0.820750 0.730290 0.141500 -0.603983
O28   O     O_R   0.179250 0.730290 0.858500 -0.604586
O29   O     O_R   0.320750 0.230290 0.141500 -0.603983
O30   O     O_R   0.679250 0.230290 0.858500 -0.604586
O31   O     O_R   0.790530 0.724470 0.948890 -0.638090
O32   O     O_R   0.209470 0.724470 0.051110 -0.638296
O33   O     O_R   0.290530 0.224470 0.948890 -0.638090
O34   O     O_R   0.820770 0.269690 0.141550 -0.629961
O35   O     O_R   0.709470 0.224470 0.051110 -0.638296
O36   O     O_R   0.841580 0.775540 0.051010 -0.565054
O37   O     O_R   0.158420 0.775540 0.948990 -0.566412
O38   O     O_R   0.341580 0.275540 0.051010 -0.565054
O39   O     O_R   0.658420 0.275540 0.948990 -0.566412
O40   O     O_R   0.007900 0.545210 0.590430 -0.611678
O41   O     O_R   0.992100 0.545210 0.409570 -0.613840
O42   O     O_R   0.507900 0.045210 0.590430 -0.611678
O43   O     O_R   0.492100 0.045210 0.409570 -0.613840
O44   O     O_2   0.820804 0.753909 0.694192 -0.538686
O45   O     O_R   0.082500 0.545230 0.590410 -0.618162
O46   O     O_2   0.179046 0.744620 0.305859 -0.535878
O47   O     O_2   0.320804 0.253909 0.694192 -0.538686
O48   O     O_2   0.679046 0.244620 0.305859 -0.535878
O49   O     O_2   0.861925 0.576535 0.163810 -0.532049
O50   O     O_2   0.141575 0.576383 0.838337 -0.517127
O51   O     O_2   0.361925 0.076535 0.163810 -0.532049
O52   O     O_2   0.641575 0.076383 0.838337 -0.517127
O53   O     O_2   0.449140 0.881357 0.556137 -0.521763
O54   O     O_2   0.479154 0.906934 0.238923 -0.563146
O55   O     O_2   0.949140 0.381357 0.556137 -0.521763
O56   O     O_R   0.917500 0.545230 0.409590 -0.628045
O57   O     O_2   0.979154 0.406934 0.238923 -0.563145
O58   O     O_2   0.680219 0.905663 0.706546 -0.503397
O59   O     O_2   0.363824 0.877170 0.371309 -0.476203
O60   O     O_2   0.180219 0.405663 0.706546 -0.503397
O61   O     O_2   0.863824 0.377170 0.371309 -0.476203
O62   O     O_2   0.561227 0.771814 0.776159 -0.541571
O63   O     O_2   0.431776 0.785580 0.198458 -0.563997
O64   O     O_2   0.061227 0.271814 0.776159 -0.541571
O65   O     O_2   0.931776 0.285580 0.198458 -0.563996
O66   O     O_R   0.582500 0.045230 0.590410 -0.618162
O67   O     O_R   0.417500 0.045230 0.409590 -0.628045
O68   O     O_R   0.507930 0.954750 0.590450 -0.581408
Zn1   Zn    Zn3+2 0.715910 0.715890 0.931790 1.055907
Zn2   Zn    Zn3+2 0.549820 0.999980 0.500010 1.030723
Zn3   Zn    Zn3+2 0.950180 0.499980 0.499990 1.076378
Zn4   Zn    Zn3+2 0.049820 0.499980 0.500010 1.030723
Zn5   Zn    Zn3+2 0.284090 0.715890 0.068210 1.057233
Zn6   Zn    Zn3+2 0.215910 0.215890 0.931790 1.055907
Zn7   Zn    Zn3+2 0.784090 0.215890 0.068210 1.057233
Zn8   Zn    Zn3+2 0.784070 0.784090 0.068160 1.061039
Zn9   Zn    Zn3+2 0.215930 0.784090 0.931840 1.059834
Zn10  Zn    Zn3+2 0.284070 0.284090 0.068160 1.061039
Zn11  Zn    Zn3+2 0.715930 0.284090 0.931840 1.059834
Zn12  Zn    Zn3+2 0.450180 0.999980 0.499990 1.076378

loop_
_geom_bond_atom_site_label_1
_geom_bond_atom_site_label_2
_ccdc_geom_bond_type
C78   C87   A    
O68   Zn12  S    
C99   C103  A    
C44   H46   S    
C53   O10   A    
C65   F2    S    
C48   C119  A    
C87   C91   A    
C123  C132  S    
C2    C18   A    
C30   H31   S    
C14   C18   A    
C7    H34   S    
C19   C23   A    
C47   O65   D    
C100  C104  A    
C4    C8    A    
C132  O25   A    
C42   C58   S    
C47   C62   S    
C49   H21   S    
C88   C101  A    
O67   Zn12  S    
C109  C117  S    
O5    Zn2   S    
C24   H17   S    
C26   H27   S    
C15   C19   A    
C81   O18   A    
C100  H49   S    
C41   H42   S    
C98   C105  A    
O27   Zn8   S    
O41   Zn4   S    
C8    C82   S    
C50   C59   S    
C71   H26   S    
C27   O46   D    
C84   O17   A    
C52   C61   S    
C71   C76   A    
C89   C102  A    
C40   O59   D    
O13   Zn11  S    
C31   H32   S    
C113  C125  S    
C20   C25   A    
C75   O13   A    
C134  O68   A    
C30   O49   D    
O1    Zn1   S    
C27   C104  S    
C92   C96   A    
C115  C127  S    
C46   H19   S    
O8    Zn3   S    
C125  O40   A    
C124  C133  S    
C51   C56   D    
O12   Zn5   S    
C10   C84   S    
C80   C89   A    
C3    C74   S    
O66   Zn2   S    
C133  O26   A    
C92   C93   A    
C126  O41   A    
C83   O16   A    
C110  H3    S    
C64   O11   A    
C78   F5    S    
O39   Zn11  S    
C48   H20   S    
O56   Zn3   S    
C61   C66   D    
C45   O64   D    
O20   Zn10  S    
C82   O15   A    
C88   C92   A    
C95   C103  A    
C40   C56   S    
C127  O66   A    
O35   Zn7   S    
C129  O22   A    
C70   C74   A    
O40   Zn3   S    
C73   C78   A    
O36   Zn8   S    
C57   C136  S    
C69   C73   A    
C69   H24   S    
C36   O54   D    
O28   Zn9   S    
C79   F6    S    
C1    O1    A    
C111  H4    S    
C110  C114  D    
C112  C126  S    
C8    C12   A    
C133  O30   A    
C76   C140  S    
O29   Zn10  S    
C17   C130  A    
O9    Zn8   S    
C77   C85   A    
C22   C97   A    
C21   C22   A    
C64   O23   A    
C32   C123  S    
C110  C118  S    
C138  O31   A    
C42   H43   S    
C139  O37   A    
C84   O21   A    
C131  O24   A    
C79   C88   A    
C13   C24   A    
C26   O44   D    
C120  H13   S    
C90   C94   A    
C44   O63   D    
C77   F1    S    
C40   H41   S    
C72   C139  S    
C101  C105  A    
C114  H7    S    
C71   C98   A    
C39   C55   S    
C118  H11   S    
C34   C50   S    
C29   H30   S    
O2    Zn2   S    
C137  O8    A    
O32   Zn5   S    
C5    H12   S    
C20   C24   A    
C116  H9    S    
C116  C121  D    
C27   H28   S    
C68   C72   A    
C43   O62   D    
O34   Zn7   S    
C112  H5    S    
C38   O57   D    
C121  C129  S    
C94   C104  A    
C9    C14   A    
C13   C19   A    
C13   H16   S    
O3    Zn3   S    
C66   F3    S    
C54   C62   S    
C11   C83   S    
C68   C94   A    
C36   H37   S    
C34   O53   D    
C111  C120  S    
C43   H44   S    
C42   O61   D    
C64   C66   S    
C12   C17   A    
C70   C96   A    
C117  C122  D    
C29   O48   D    
C5    C9    A    
C72   C77   A    
C85   C99   A    
C7    C119  A    
C26   C103  S    
C33   C124  S    
C136  O7    A    
C114  C128  S    
C11   C16   A    
C130  H14   S    
C7    C11   A    
C38   C54   S    
C30   C121  S    
C63   F12   S    
C28   C105  S    
C16   C20   A    
C50   C55   D    
C99   H45   S    
O11   Zn10  S    
C33   H35   S    
C127  O42   A    
C3    O39   A    
O43   Zn2   S    
O42   Zn12  S    
C109  H2    S    
C32   H33   S    
C36   C51   S    
O7    Zn4   S    
C135  O2    A    
C83   O20   A    
C62   C67   D    
C58   C137  S    
C67   F4    S    
C48   C49   A    
O22   Zn1   S    
O10   Zn9   S    
C5    C97   A    
C60   C65   D    
C38   H39   S    
O14   Zn1   S    
C74   C79   A    
O16   Zn6   S    
O31   Zn1   S    
C128  O67   A    
C29   C106  S    
C14   F9    S    
C67   C75   S    
O18   Zn8   S    
C82   O19   A    
C122  C131  S    
C56   C135  S    
C53   C65   S    
C53   O12   A    
C43   C59   S    
C87   C100  A    
C54   C58   D    
C132  O29   A    
C37   C52   S    
C96   C106  A    
C21   C86   A    
C1    C63   S    
C68   H22   S    
C31   O50   D    
O15   Zn5   S    
C101  H50   S    
C18   C22   A    
C128  O43   A    
C135  O6    A    
C41   O60   D    
C4    H1    S    
C76   C80   A    
C31   C122  S    
O37   Zn9   S    
C69   C95   A    
C39   O58   D    
C6    C10   A    
C136  O3    A    
C111  C115  D    
C85   C90   A    
C33   O52   D    
C131  O28   A    
C34   H36   S    
C109  C113  D    
O24   Zn5   S    
C80   F7    S    
C55   C134  S    
C129  O27   A    
C59   C63   D    
C25   C119  A    
C126  O56   A    
C115  H8    S    
C10   C15   A    
O6    Zn12  S    
C12   F8    S    
C125  O45   A    
O33   Zn6   S    
C113  H6    S    
C41   C57   S    
C107  H52   S    
C1    O9    A    
C39   H40   S    
C90   C91   A    
C44   C60   S    
C28   H29   S    
O26   Zn7   S    
C23   C108  A    
C2    H15   S    
C32   O51   D    
C45   C61   S    
C140  O33   A    
C2    C130  A    
C6    H23   S    
C102  H51   S    
C37   H38   S    
C16   F11   S    
C140  O38   A    
C118  C123  D    
O21   Zn11  S    
C89   C93   A    
O25   Zn6   S    
C47   H48   S    
O23   Zn6   S    
C49   C108  A    
C107  C116  S    
C28   O47   D    
O17   Zn7   S    
C52   C57   D    
C138  O36   A    
C91   C95   A    
C70   H25   S    
C81   O14   A    
O4    Zn4   S    
C23   C25   A    
C4    C86   A    
C117  H10   S    
O30   Zn11  S    
C73   C138  S    
C102  C106  A    
C3    O35   A    
C139  O32   A    
C134  O5    A    
C35   H18   S    
C6    C108  A    
C45   H47   S    
C107  C112  D    
C75   O34   A    
O45   Zn4   S    
C51   C60   S    
C37   O55   D    
O19   Zn9   S    
C35   C97   A    
C35   C46   A    
C93   C98   A    
O38   Zn10  S    
C15   F10   S    
C120  C124  D    
C9    C81   S    
C46   C86   A    
C137  O4    A    
C17   C21   A    
