data_mof_unit_47328.cif
_audit_creation_date              2012-12-10T19:04:13-0500
_audit_creation_method            fapswitch 2.2
_symmetry_space_group_name_H-M    P1
_symmetry_Int_Tables_number       1
_space_group_crystal_system       triclinic
_cell_length_a                    10.632473
_cell_length_b                    10.816958
_cell_length_c                    9.549378
_cell_angle_alpha                 90.057908
_cell_angle_beta                  89.456543
_cell_angle_gamma                 90.233425
_cell_volume                      1098.2246082

loop_
_atom_site_label
_atom_site_type_symbol
_atom_type_description
_atom_site_fract_x
_atom_site_fract_y
_atom_site_fract_z
_atom_type_partial_charge
C1    C     C_R   0.497444 0.262336 0.499941 0.792076
C2    C     C_3   0.961152 0.499241 0.366481 -0.167795
C3    C     C_3   0.042547 0.398247 0.435402 -0.222627
C4    C     C_3   0.122590 0.500291 0.502224 -0.047511
C5    C     C_R   0.486769 0.063750 0.625742 0.124814
C6    C     C_R   0.484644 0.129207 0.499973 -0.100946
C7    C     C_R   0.464738 0.064194 0.374470 -0.214005
C8    C     C_R   0.464960 0.935272 0.374523 -0.165805
C9    C     C_R   0.485135 0.870741 0.500069 -0.093260
C10   C     C_R   0.487172 0.936536 0.625775 0.143471
C11   C     C_3   0.578326 0.930883 0.743646 -0.480997
C12   C     C_R   0.259367 0.500039 0.500696 0.835551
C13   C     C_3   0.577511 0.071224 0.743929 -0.457488
C14   C     C_R   0.560142 0.591770 0.073090 0.259324
C15   C     C_R   0.430747 0.416536 0.075059 -0.061355
C16   C     C_R   0.430714 0.416542 0.926189 -0.078971
C17   C     C_R   0.560406 0.591589 0.925719 0.261576
C18   C     C_3   0.697278 0.621981 0.918814 -0.506858
C19   C     C_3   0.696777 0.622486 0.077625 -0.490419
C20   C     C_R   0.497740 0.737672 0.500006 0.820216
C21   C     C_R   0.740687 0.500111 0.499419 0.805521
C22   C     C_3   0.038758 0.501373 0.634138 -0.187019
C23   C     C_3   0.956595 0.399208 0.567150 -0.150014
C24   C     C_3   0.877515 0.500314 0.498478 -0.043393
C25   C     C_3   0.957177 0.602596 0.565681 -0.204234
C26   C     C_3   0.042603 0.600140 0.434622 0.420057
Cu1   Cu    Cu3+1 0.499990 0.499980 0.640670 0.945941
Cu2   Cu    Cu3+1 0.500010 0.500020 0.359330 0.962925
H1    H     H_    0.917945 0.316495 0.621504 0.138428
H2    H     H_    0.670462 0.891176 0.711315 0.192064
H3    H     H_    0.533905 0.111247 0.839961 0.197513
H4    H     H_    0.669240 0.113002 0.712376 0.197945
H5    H     H_    0.376603 0.347460 0.131338 0.133882
H6    H     H_    0.376552 0.347474 0.870902 0.138433
H7    H     H_    0.754914 0.546038 0.873540 0.223640
H8    H     H_    0.715571 0.714606 0.872786 0.192006
H9    H     H_    0.753537 0.546535 0.122199 0.214245
H10   H     H_    0.714387 0.715413 0.123390 0.205770
H11   H     H_    0.072895 0.501985 0.743650 0.160589
H12   H     H_    0.919425 0.686470 0.618089 0.148106
H13   H     H_    0.929275 0.498478 0.256362 0.148279
H14   H     H_    0.080356 0.314603 0.382603 0.151228
H15   H     H_    0.455066 0.112262 0.275726 0.160725
H16   H     H_    0.455381 0.886889 0.275803 0.173507
H17   H     H_    0.535635 0.889908 0.839751 0.202131
N1    N     N_R   0.500800 0.500930 0.147930 -0.184375
N2    N     N_R   0.500800 0.500890 0.852020 -0.185776
O1    O     O_R   0.500000 0.319640 0.618810 -0.585588
O2    O     O_R   0.500010 0.319680 0.381230 -0.593074
O3    O     O_R   0.316850 0.499950 0.618770 -0.589668
O4    O     O_R   0.316860 0.499990 0.381190 -0.559547
O5    O     O_R   0.499990 0.680320 0.618770 -0.580007
O6    O     O_R   0.500000 0.680360 0.381190 -0.575592
O7    O     O_R   0.683140 0.500010 0.618810 -0.587284
O8    O     O_R   0.683150 0.500050 0.381230 -0.587224
Cl1   Cl    Cl    0.102266 0.733752 0.347212 -0.649133

loop_
_geom_bond_atom_site_label_1
_geom_bond_atom_site_label_2
_ccdc_geom_bond_type
Cu1   O1    S    
C12   O3    A    
C23   C24   S    
C18   H8    S    
C3    H14   S    
C6    C7    A    
C19   H10   S    
C7    H15   S    
C4    C12   S    
C4    C22   S    
C18   H7    S    
C9    C20   S    
C4    C26   S    
Cu1   O3    S    
Cu2   O6    S    
C17   C18   S    
C25   C26   S    
Cu1   O7    S    
C7    C8    A    
C2    C26   S    
Cu1   O5    S    
C11   C13   S    
C14   C17   A    
Cu2   N1    S    
C5    C6    A    
C1    O2    A    
C22   H11   S    
C23   H1    S    
C16   N2    A    
Cu2   O8    S    
C13   H3    S    
C2    C3    S    
C25   H12   S    
C2    C24   S    
C21   O7    A    
Cu2   O4    S    
C11   H17   S    
C10   C11   S    
C2    H13   S    
C1    C6    S    
C9    C10   A    
C8    H16   S    
C5    C10   A    
C12   O4    A    
C24   C25   S    
C11   H2    S    
C20   O5    A    
C18   C19   S    
Cu2   O2    S    
C21   C24   S    
Cu1   N2    S    
Cu1   Cu2   S    
C21   O8    A    
C22   C23   S    
C20   O6    A    
C1    O1    A    
C19   H9    S    
C15   N1    A    
C16   H6    S    
C3    C23   S    
C13   H4    S    
C5    C13   S    
C14   C19   S    
C15   H5    S    
C3    C4    S    
C15   C16   A    
C17   N2    A    
C8    C9    A    
C14   N1    A    
C22   C25   S    
C26   Cl1   S    
