data_mof_unit_20840.cif
_audit_creation_date              2013-03-05T17:00:26-0500
_audit_creation_method            fapswitch 2.2
_symmetry_space_group_name_H-M    P1
_symmetry_Int_Tables_number       1
_space_group_crystal_system       triclinic
_cell_length_a                    10.872007
_cell_length_b                    16.108895
_cell_length_c                    16.903144
_cell_angle_alpha                 84.846399
_cell_angle_beta                  94.472974
_cell_angle_gamma                 92.691655
_cell_volume                      2937.02113401

loop_
_atom_site_label
_atom_site_type_symbol
_atom_site_description
_atom_site_fract_x
_atom_site_fract_y
_atom_site_fract_z
_atom_type_partial_charge
O1    O     O_R   0.494530 0.422540 0.612660 -0.584649
O2    O     O_R   0.505470 0.577460 0.387340 -0.529611
O3    O     O_R   0.504350 0.561840 0.618900 -0.538145
O4    O     O_R   0.495650 0.438160 0.381100 -0.530020
C1    C     C_R   0.494707 0.487509 0.653646 1.025283
C2    C     C_R   0.507344 0.512377 0.345870 1.075443
O5    O     O_R   0.678310 0.430340 0.496890 -0.612351
O6    O     O_R   0.321690 0.569660 0.503110 -0.581200
O7    O     O_R   0.688140 0.569650 0.503130 -0.562617
O8    O     O_R   0.311860 0.430350 0.496870 -0.588596
C3    C     C_R   0.739637 0.500573 0.491611 0.957591
C4    C     C_R   0.260667 0.498793 0.509622 0.955447
Zn1   Zn    Zn3+2 0.493440 0.406980 0.495830 1.103478
Zn2   Zn    Zn3+2 0.506560 0.593020 0.504170 1.148740
C5    C     C_R   0.877299 0.346634 0.469659 -0.257334
C6    C     C_R   0.120032 0.651267 0.531922 -0.237555
C7    C     C_R   0.931544 0.270615 0.489200 0.342028
C8    C     C_R   0.065188 0.726939 0.507458 0.323504
C9    C     C_R   0.036203 0.267246 0.542999 0.333201
C10   C     C_R   0.961344 0.727321 0.452117 0.363515
C11   C     C_R   0.103964 0.343468 0.559003 0.365840
C12   C     C_R   0.899587 0.650171 0.436911 0.390176
C13   C     C_R   0.056927 0.420999 0.524280 -0.045321
C14   C     C_R   0.943743 0.574768 0.476948 -0.100670
C15   C     C_R   0.933848 0.422191 0.492588 -0.090063
C16   C     C_R   0.065507 0.574555 0.510190 -0.075671
C17   C     C_R   0.127148 0.497907 0.522368 0.004256
C18   C     C_R   0.873186 0.499190 0.480594 0.005170
H1    H     H_    0.791832 0.345243 0.433757 0.296346
H2    H     H_    0.203106 0.653033 0.570496 0.281597
C19   C     C_R   0.492522 0.481650 0.741568 -0.367442
C20   C     C_R   0.522675 0.521331 0.257414 -0.432996
C21   C     C_R   0.451531 0.550653 0.776541 0.296777
C22   C     C_R   0.583290 0.460177 0.219509 0.257596
C23   C     C_R   0.507733 0.572292 0.849560 0.314705
C24   C     C_R   0.581326 0.465870 0.135826 0.320891
C25   C     C_R   0.597149 0.520133 0.891359 0.008110
C26   C     C_R   0.554296 0.541477 0.092104 0.015538
C27   C     C_R   0.635132 0.451431 0.855351 0.299796
C28   C     C_R   0.514799 0.607297 0.130155 0.298306
C29   C     C_R   0.563351 0.423434 0.789641 0.222235
C30   C     C_R   0.479154 0.591814 0.208481 0.195002
N1    N     N_2   0.627574 0.523542 0.974419 0.017622
N2    N     N_2   0.538803 0.546424 0.008307 -0.024717
N3    N     N_R   0.515300 0.716920 0.509720 -0.212289
N4    N     N_R   0.484700 0.283080 0.490280 -0.226965
C31   C     C_R   0.442402 0.761561 0.453100 0.577288
C32   C     C_R   0.551909 0.245369 0.554127 0.498850
C33   C     C_R   0.473281 0.847117 0.432435 0.220905
C34   C     C_R   0.528380 0.160135 0.578731 0.231794
C35   C     C_R   0.530696 0.894078 0.492601 0.045327
C36   C     C_R   0.475733 0.107453 0.521859 0.065947
C37   C     C_R   0.602917 0.850138 0.555165 0.186347
C38   C     C_R   0.399360 0.145183 0.458151 0.210731
C39   C     C_R   0.599423 0.759665 0.560394 0.302256
C40   C     C_R   0.404152 0.235121 0.442728 0.329445
N5    N     N_2   0.528873 0.984086 0.482048 -0.048818
N6    N     N_2   0.482528 0.017932 0.536485 -0.018246
O9    O     O_3   0.932716 0.800179 0.405728 -0.601902
C41   C     C_3   0.819784 0.829164 0.425410 -0.040138
H3    H     H_    0.794417 0.883155 0.382813 0.187470
H4    H     H_    0.830034 0.851792 0.485484 0.228625
H5    H     H_    0.742754 0.781709 0.421198 0.165809
O10   O     O_3   0.074054 0.190187 0.576371 -0.548339
C42   C     C_3   0.021030 0.170836 0.649866 -0.225868
H6    H     H_    0.928322 0.140328 0.640502 0.205006
H7    H     H_    0.016340 0.225889 0.684949 0.147641
H8    H     H_    0.079020 0.124874 0.686538 0.207108
O11   O     O_3   0.500171 0.145284 0.657480 -0.615173
C43   C     C_3   0.564270 0.079117 0.697971 0.003672
H9    H     H_    0.663851 0.083321 0.687350 0.171570
H10   H     H_    0.517094 0.019339 0.684113 0.212697
H11   H     H_    0.559110 0.083059 0.762786 0.193103
O12   O     O_3   0.502140 0.866201 0.353954 -0.612746
C44   C     C_3   0.444333 0.937340 0.317063 -0.011215
H12   H     H_    0.488390 0.995546 0.338040 0.193076
H13   H     H_    0.343389 0.933462 0.322290 0.181496
H14   H     H_    0.457156 0.940119 0.252416 0.199091
S1    S     S_3+6 0.705351 0.909562 0.619988 0.045615
O13   O     O_2   0.719348 0.998811 0.587216 -0.342740
O14   O     O_2   0.652772 0.905078 0.699889 -0.316505
O15   O     O_3   0.849338 0.875708 0.634137 -0.420922
H15   H     H_    0.892411 0.911860 0.672839 0.397970
S2    S     S_3+6 0.278235 0.081479 0.413517 0.081406
O16   O     O_2   0.278426 0.093230 0.324295 -0.258157
O17   O     O_2   0.286845 0.990555 0.440251 -0.316188
O18   O     O_3   0.142351 0.108563 0.441418 -0.421403
H16   H     H_    0.080998 0.073078 0.412128 0.418295
S3    S     S_3+6 0.712540 0.707518 0.630190 0.103585
O19   O     O_2   0.710385 0.741006 0.710020 -0.249340
O20   O     O_2   0.705655 0.614867 0.644097 -0.304291
O21   O     O_3   0.852290 0.728852 0.597749 -0.537015
H17   H     H_    0.908967 0.696909 0.636621 0.411795
S4    S     S_3+6 0.307293 0.282485 0.360892 0.124023
O22   O     O_2   0.179595 0.243168 0.356289 -0.195547
O23   O     O_2   0.290218 0.373591 0.363142 -0.302612
O24   O     O_3   0.372017 0.267865 0.276466 -0.501104
H18   H     H_    0.309577 0.285416 0.233077 0.370450
S5    S     S_3+6 0.863087 0.181601 0.445765 0.085315
O25   O     O_2   0.725070 0.186811 0.438231 -0.328891
O26   O     O_2   0.907053 0.181408 0.363687 -0.191391
O27   O     O_3   0.900436 0.092064 0.499131 -0.495339
H19   H     H_    0.866838 0.047385 0.465959 0.390758
S6    S     S_3+6 0.123030 0.817983 0.552304 0.066303
O28   O     O_2   0.087245 0.811462 0.636750 -0.245069
O29   O     O_2   0.261391 0.823871 0.554658 -0.340682
O30   O     O_3   0.065805 0.904933 0.503351 -0.481583
H20   H     H_    0.081059 0.948611 0.541029 0.414533
O31   O     O_3   0.202673 0.347796 0.616728 -0.611089
C45   C     C_3   0.278239 0.278423 0.622965 0.091187
H21   H     H_    0.281250 0.249645 0.566205 0.101059
H22   H     H_    0.250559 0.232017 0.671320 0.203455
H23   H     H_    0.373139 0.298890 0.640883 0.231008
O32   O     O_3   0.799886 0.647493 0.380873 -0.603880
C46   C     C_3   0.844179 0.649728 0.304438 -0.160835
H24   H     H_    0.915791 0.603078 0.301552 0.147928
H25   H     H_    0.881371 0.713128 0.285263 0.205210
H26   H     H_    0.765880 0.634487 0.261360 0.197360
S7    S     S_3+6 0.686383 0.389361 0.272396 0.080137
O33   O     O_2   0.620969 0.327668 0.328129 -0.205220
O34   O     O_2   0.753145 0.341295 0.217825 -0.182275
O35   O     O_3   0.790737 0.448151 0.323004 -0.636914
H27   H     H_    0.863943 0.453722 0.291246 0.377325
S8    S     S_3+6 0.319820 0.603443 0.734033 0.068372
O36   O     O_2   0.238084 0.545074 0.686917 -0.308604
O37   O     O_2   0.247804 0.632135 0.798290 -0.201383
O38   O     O_3   0.365440 0.686410 0.674107 -0.563022
H28   H     H_    0.331136 0.735363 0.694769 0.403156
O39   O     O_3   0.614336 0.399839 0.096279 -0.512017
C47   C     C_3   0.511498 0.343685 0.089108 -0.051857
H29   H     H_    0.485222 0.316586 0.148467 0.174910
H30   H     H_    0.536832 0.291250 0.056203 0.239108
H31   H     H_    0.431497 0.374013 0.054803 0.121926
O40   O     O_3   0.471173 0.641973 0.882355 -0.525430
C48   C     C_3   0.541759 0.711845 0.852663 0.029334
H32   H     H_    0.642492 0.703417 0.866327 0.177717
H33   H     H_    0.516560 0.767217 0.881432 0.194288
H34   H     H_    0.520754 0.725592 0.787766 0.183847
S9    S     S_3+6 0.766025 0.396480 0.895617 0.127482
O41   O     O_2   0.736678 0.343638 0.970038 -0.188492
O42   O     O_2   0.806034 0.341714 0.835643 -0.277111
O43   O     O_3   0.881152 0.465742 0.918129 -0.498931
H35   H     H_    0.951497 0.431457 0.939505 0.393534
S10   S     S_3+6 0.519260 0.708649 0.078653 0.116875
O44   O     O_2   0.404602 0.719402 0.023700 -0.188652
O45   O     O_2   0.529692 0.775929 0.135156 -0.223981
O46   O     O_3   0.643927 0.717821 0.025090 -0.555301
H36   H     H_    0.656002 0.778431 0.010486 0.377343
S11   S     S_3+6 0.490760 0.323803 0.807386 0.077592
O47   O     O_2   0.540559 0.264409 0.756233 -0.215420
O48   O     O_2   0.512866 0.290353 0.892941 -0.263926
O49   O     O_3   0.337613 0.329993 0.786352 -0.530519
H37   H     H_    0.310379 0.366958 0.824829 0.371471
S12   S     S_3+6 0.373467 0.657173 0.241250 0.084818
O50   O     O_2   0.451507 0.723869 0.279314 -0.190900
O51   O     O_2   0.291918 0.696228 0.173472 -0.231970
O52   O     O_3   0.282978 0.604034 0.306396 -0.543630
H38   H     H_    0.240627 0.559336 0.276650 0.347510
O53   O     O_3   0.621717 0.296293 0.603829 -0.533889
C49   C     C_3   0.734557 0.260871 0.632764 -0.167794
H39   H     H_    0.766307 0.216160 0.593424 0.133221
H40   H     H_    0.727206 0.229074 0.693125 0.216855
H41   H     H_    0.806331 0.311774 0.637680 0.168681
O54   O     O_3   0.347946 0.718208 0.411993 -0.524972
C50   C     C_3   0.254605 0.769824 0.373920 -0.017498
H42   H     H_    0.279274 0.796720 0.314555 0.210169
H43   H     H_    0.232486 0.821239 0.408839 0.175313
H44   H     H_    0.169448 0.730681 0.363382 0.163259

loop_
_geom_bond_atom_site_label_1
_geom_bond_atom_site_label_2
_geom_bond_distance
_ccdc_geom_bond_type
C48   H34   1.107490 S    
C2    C20   1.510639 S    
O18   H16   0.990111 S    
C50   H42   1.104323 S    
C46   H25   1.110766 S    
C37   C39   1.451047 A    
O46   H36   0.990535 S    
S2    O18   1.673757 S    
O7    Zn2   2.028710 S    
C38   S2    1.792667 S    
O32   C46   1.410491 S    
S11   O47   1.492123 D    
C48   H32   1.113581 S    
C27   C29   1.402786 A    
C15   C18   1.423151 A    
C40   S4    1.806434 S    
C16   C17   1.423584 A    
O52   H38   0.990487 S    
C41   H5    1.109581 S    
O1    C1    1.305825 A    
O54   C50   1.420070 S    
C30   S12   1.747356 S    
C34   O11   1.386614 S    
C14   C16   1.397242 A    
O11   C43   1.398035 S    
S11   O48   1.502459 D    
Zn1   N4    2.003958 S    
S9    O43   1.681408 S    
C5    C15   1.409580 A    
C29   S11   1.766402 S    
C6    H2    1.072724 S    
C46   H24   1.113883 S    
O24   H18   0.990847 S    
C41   H4    1.105175 S    
N3    C31   1.368496 A    
O4    Zn1   1.960835 S    
C44   H13   1.106267 S    
C45   H21   1.105766 S    
C21   C23   1.399242 A    
S5    O25   1.501644 D    
C10   O9    1.385674 S    
C33   C35   1.411042 A    
C21   S8    1.770340 S    
C34   C36   1.409635 A    
O30   H20   0.990574 S    
C19   C21   1.410436 A    
C43   H9    1.109134 S    
C35   N5    1.445754 S    
C13   C17   1.423584 A    
S3    O20   1.489179 D    
S12   O51   1.502955 D    
C46   H26   1.109478 S    
C28   C30   1.406015 A    
O9    C41   1.407711 S    
C50   H43   1.104923 S    
O2    C2    1.314234 A    
S10   O46   1.681423 S    
C23   O40   1.383223 S    
S6    O29   1.500439 D    
S6    O28   1.501907 D    
C36   C38   1.417322 A    
C5    H1    1.069917 S    
Zn2   N3    2.003958 S    
C27   S9    1.769453 S    
S7    O34   1.504239 D    
C6    C16   1.411447 A    
C36   N6    1.445438 S    
C32   O53   1.385875 S    
C38   C40   1.448059 A    
O12   C44   1.405429 S    
C4    C17   1.483266 S    
C49   H41   1.109157 S    
S2    O16   1.503145 D    
S12   O52   1.683365 S    
S10   O45   1.502397 D    
S7    O33   1.500280 D    
S11   O49   1.680926 S    
S1    O14   1.501699 D    
S4    O24   1.679213 S    
C42   H7    1.115453 S    
C41   H3    1.109037 S    
C35   C37   1.422707 A    
C49   H40   1.106674 S    
C25   N1    1.422431 S    
C47   H30   1.108518 S    
C44   H12   1.106964 S    
C26   N2    1.408821 S    
O7    C3    1.305392 A    
O5    C3    1.285615 A    
O53   C49   1.411329 S    
O5    Zn1   2.026379 S    
C9    O10   1.383624 S    
O6    C4    1.293508 A    
C42   H8    1.109211 S    
C43   H11   1.109010 S    
S4    O22   1.498013 D    
C6    C8    1.397044 A    
C8    S6    1.777579 S    
S3    O21   1.665624 S    
S4    O23   1.492163 D    
C32   C34   1.415839 A    
C7    S5    1.775602 S    
C45   H23   1.096445 S    
S12   O50   1.497199 D    
O3    Zn2   1.960835 S    
O8    C4    1.300345 A    
S8    O38   1.682602 S    
C31   O54   1.390547 S    
O4    C2    1.292197 A    
S5    O26   1.502557 D    
C10   C12   1.418987 A    
C42   H6    1.106819 S    
C50   H44   1.107295 S    
C11   C13   1.430842 A    
N1    N2    1.246196 D    
C12   C14   1.421366 A    
C47   H31   1.114347 S    
O1    Zn1   2.011910 S    
O38   H28   0.990128 S    
C23   C25   1.418850 A    
S8    O37   1.504372 D    
O39   C47   1.409466 S    
S7    O35   1.676042 S    
C22   S7    1.771253 S    
C48   H33   1.108526 S    
O6    Zn2   2.026378 S    
C19   C29   1.402167 A    
C37   S1    1.804196 S    
C33   O12   1.391171 S    
C14   C18   1.407366 A    
S2    O17   1.498545 D    
S10   O44   1.502507 D    
O3    C1    1.288848 A    
O8    Zn1   2.028711 S    
S1    O15   1.674362 S    
C11   O31   1.396591 S    
S9    O41   1.501189 D    
C5    C7    1.386110 A    
O40   C48   1.408955 S    
C31   C33   1.422163 A    
O10   C42   1.413523 S    
C28   S10   1.780340 S    
C47   H29   1.110494 S    
O35   H27   0.990424 S    
C25   C27   1.403194 A    
C24   O39   1.381336 S    
C49   H39   1.106942 S    
C26   C28   1.389476 A    
S9    O42   1.503557 D    
N5    N6    1.259409 D    
C3    C18   1.479618 S    
C24   C26   1.397839 A    
O21   H17   0.991000 S    
C7    C9    1.400054 A    
C22   C24   1.407791 A    
C8    C10   1.408761 A    
C13   C15   1.402381 A    
O27   H19   0.990810 S    
O2    Zn2   2.011909 S    
C44   H14   1.109011 S    
C45   H22   1.106773 S    
S1    O13   1.498850 D    
N4    C32   1.366949 A    
C12   O32   1.384498 S    
S5    O27   1.680188 S    
O49   H37   0.990655 S    
N3    C39   1.403173 A    
C39   S3    1.817311 S    
O15   H15   0.990686 S    
N4    C40   1.395720 A    
C20   C30   1.420499 A    
O43   H35   0.990562 S    
C43   H10   1.104807 S    
C1    C19   1.482633 S    
S3    O19   1.499755 D    
O31   C45   1.409418 S    
S6    O30   1.681363 S    
C20   C22   1.433697 A    
S8    O36   1.501244 D    
C9    C11   1.437759 A    
