data_mof_unit_24414.cif
_audit_creation_date              2012-10-26T21:33:20-0400
_audit_creation_method            fapswitch 2.2
_symmetry_space_group_name_H-M    P1
_symmetry_Int_Tables_number       1
_space_group_crystal_system       triclinic
_cell_length_a                    28.197943
_cell_length_b                    18.337879
_cell_length_c                    16.970419
_cell_angle_alpha                 89.838327
_cell_angle_beta                  60.552797
_cell_angle_gamma                 89.886796
_cell_volume                      7641.52819195

loop_
_atom_site_label
_atom_site_type_symbol
_atom_type_description
_atom_site_fract_x
_atom_site_fract_y
_atom_site_fract_z
_atom_type_partial_charge
C1    C     C_R   0.701289 0.268214 0.676775 0.989462
C2    C     C_R   0.093239 0.495129 0.522118 -0.071235
C3    C     C_R   0.202970 0.174756 0.891697 0.001559
C4    C     C_R   0.071998 0.103395 0.936404 0.960130
C5    C     C_R   0.928035 0.897156 0.063193 1.003874
C6    C     C_R   0.930003 0.104802 0.061573 0.984439
C7    C     C_R   0.077207 0.904345 0.930758 1.038551
C8    C     C_R   0.571101 0.603698 0.937547 0.991610
C9    C     C_R   0.425278 0.399189 0.065397 0.992781
C10   C     C_R   0.423931 0.598662 0.068385 1.015641
C11   C     C_R   0.571368 0.396388 0.937370 0.984588
C12   C     C_R   0.578019 0.111824 0.428038 -0.271387
C13   C     C_R   0.406387 0.004358 0.480075 -0.074461
C14   C     C_R   0.422560 0.886396 0.571032 -0.280135
C15   C     C_R   0.481161 0.120851 0.416894 -0.273230
C16   C     C_R   0.519094 0.877845 0.583291 -0.297418
C17   C     C_R   0.077649 0.612125 0.429271 -0.286011
C18   C     C_R   0.921430 0.387731 0.574527 -0.275220
C19   C     C_R   0.980955 0.621029 0.417655 -0.294152
C20   C     C_R   0.017970 0.379221 0.587251 -0.289778
C21   C     C_R   0.569398 0.170596 0.383033 0.641674
C22   C     C_R   0.431949 0.826521 0.613658 0.658493
C23   C     C_R   0.521205 0.175751 0.378977 0.603465
C24   C     C_R   0.593377 0.994997 0.521331 -0.070361
C25   C     C_R   0.479763 0.821936 0.619003 0.618871
C26   C     C_R   0.068681 0.671428 0.385408 0.646802
C27   C     C_R   0.929759 0.329437 0.620657 0.621117
C28   C     C_R   0.020708 0.676326 0.380675 0.616313
C29   C     C_R   0.977706 0.324653 0.625761 0.621085
C30   C     C_R   0.490543 0.060215 0.458751 -0.063666
C31   C     C_R   0.509472 0.938765 0.542063 -0.066344
C32   C     C_R   0.538247 0.056647 0.466390 -0.061715
C33   C     C_R   0.461845 0.942235 0.534154 -0.070059
C34   C     C_R   0.990342 0.560335 0.459516 -0.070721
C35   C     C_R   0.066615 0.375383 0.591893 0.735960
C36   C     C_R   0.008855 0.439413 0.544269 -0.069904
C37   C     C_R   0.038013 0.556776 0.467277 -0.069837
C38   C     C_R   0.961235 0.442854 0.536198 -0.068435
C39   C     C_R   0.952413 0.502832 0.492748 0.120404
C40   C     C_R   0.046943 0.496724 0.510447 0.121021
C41   C     C_R   0.452652 0.002653 0.491848 0.125411
C42   C     C_R   0.547211 0.996516 0.509349 0.126161
C43   C     C_R   0.870285 0.444724 0.507741 -0.127634
C44   C     C_R   0.129389 0.554694 0.494221 -0.126653
C45   C     C_R   0.104727 0.433263 0.559250 -0.123091
C46   C     C_R   0.932462 0.624925 0.412858 0.759400
C47   C     C_R   0.894702 0.566609 0.443960 -0.116674
C48   C     C_R   0.370480 0.944569 0.507011 -0.126909
C49   C     C_R   0.629413 0.054707 0.493853 -0.120181
C50   C     C_R   0.605004 0.932904 0.557902 -0.117281
C51   C     C_R   0.394708 0.066592 0.443789 -0.098156
C52   C     C_R   0.833070 0.440142 0.473019 -0.237918
C53   C     C_R   0.166830 0.559575 0.528264 -0.224472
C54   C     C_R   0.153584 0.433380 0.564982 -0.161459
C55   C     C_R   0.846152 0.566407 0.437236 -0.128011
C56   C     C_R   0.333100 0.940134 0.472698 -0.233646
C57   C     C_R   0.874543 0.391556 0.564990 0.719569
C58   C     C_R   0.666738 0.059576 0.528155 -0.222828
C59   C     C_R   0.653638 0.933269 0.564286 -0.155046
C60   C     C_R   0.346114 0.066431 0.437188 -0.124847
C61   C     C_R   0.825713 0.500490 0.429130 0.319075
C62   C     C_R   0.174396 0.499402 0.572249 0.326532
C63   C     C_R   0.325626 0.000553 0.429063 0.314001
C64   C     C_R   0.674164 0.999330 0.572150 0.323966
C65   C     C_R   0.124954 0.607759 0.437217 0.720721
C66   C     C_R   0.567497 0.874227 0.588418 0.740612
C67   C     C_R   0.432504 0.124844 0.412623 0.758690
C68   C     C_R   0.375207 0.890871 0.563166 0.731492
C69   C     C_R   0.300967 0.738267 0.323257 1.000687
C70   C     C_R   0.625155 0.107663 0.436558 0.724844
C71   C     C_R   0.725840 0.266720 0.947135 -0.269265
C72   C     C_R   0.282534 0.752488 0.047441 -0.276831
C73   C     C_R   0.293968 0.212437 0.033927 -0.287577
C74   C     C_R   0.722286 0.736534 0.951172 -0.268125
C75   C     C_R   0.230424 0.782226 0.944516 -0.270373
C76   C     C_R   0.780435 0.238556 0.045625 -0.273115
C77   C     C_R   0.774468 0.767039 0.052293 -0.264259
C78   C     C_R   0.240393 0.172892 0.933850 -0.267326
C79   C     C_R   0.753657 0.323035 0.963604 0.590513
C80   C     C_R   0.298445 0.268659 0.322958 0.974397
C81   C     C_R   0.225555 0.747909 0.087444 0.642955
C82   C     C_R   0.245445 0.170006 0.074626 0.578316
C83   C     C_R   0.720444 0.807242 0.984305 0.623554
C84   C     C_R   0.287287 0.788320 0.904982 0.648450
C85   C     C_R   0.753177 0.182122 0.028218 0.586631
C86   C     C_R   0.776306 0.696365 0.019133 0.589955
C87   C     C_R   0.295633 0.196067 0.889761 0.600316
C88   C     C_R   0.780164 0.309230 0.013576 0.619599
C89   C     C_R   0.199861 0.761961 0.036273 0.473992
C90   C     C_R   0.220452 0.148226 0.023919 0.561022
C91   C     C_R   0.701205 0.731629 0.676908 0.979389
C92   C     C_R   0.745851 0.822226 0.035514 0.584486
C93   C     C_R   0.313125 0.773153 0.955833 0.469265
C94   C     C_R   0.726342 0.196006 0.978854 0.608856
C95   C     C_R   0.750687 0.681320 0.968315 0.582811
C96   C     C_R   0.323304 0.204861 0.939206 0.546845
C97   C     C_R   0.640676 0.319402 0.954889 0.304344
C98   C     C_R   0.344753 0.666415 0.070427 0.273103
C99   C     C_R   0.356720 0.315424 0.044763 0.316025
C100  C     C_R   0.638494 0.682693 0.957068 0.351059
C101  C     C_R   0.162791 0.856699 0.922056 0.297018
C102  C     C_R   0.200924 0.766010 0.676877 0.998666
C103  C     C_R   0.864567 0.187184 0.041656 0.326053
C104  C     C_R   0.858433 0.821624 0.045410 0.303185
C105  C     C_R   0.145138 0.174413 0.947135 0.395919
C106  C     C_R   0.610975 0.336879 0.908065 -0.297581
C107  C     C_R   0.381639 0.655500 0.104746 -0.324548
C108  C     C_R   0.385318 0.338532 0.092999 -0.329471
C109  C     C_R   0.610099 0.663612 0.908988 -0.328644
C110  C     C_R   0.123344 0.855705 0.892070 -0.341952
C111  C     C_R   0.891785 0.165932 0.090801 -0.319032
C112  C     C_R   0.888047 0.838505 0.092274 -0.323418
C113  C     C_R   0.798706 0.231571 0.323183 1.018055
C114  C     C_R   0.113015 0.161618 0.905299 -0.294844
C115  C     C_R   0.624721 0.303607 0.825903 0.168796
C116  C     C_R   0.375617 0.698445 0.177063 0.259618
C117  C     C_R   0.374011 0.302666 0.172127 0.268034
C118  C     C_R   0.624378 0.696171 0.826507 0.232480
C119  C     C_R   0.129393 0.808088 0.823916 0.278968
C120  C     C_R   0.876221 0.196296 0.175190 0.269007
C121  C     C_R   0.874548 0.804581 0.173624 0.250434
C122  C     C_R   0.129164 0.193573 0.823364 0.248139
C123  C     C_R   0.677713 0.278246 0.774258 -0.339518
C124  C     C_R   0.798610 0.768522 0.323239 0.977204
C125  C     C_R   0.327540 0.736276 0.224713 -0.308172
C126  C     C_R   0.322379 0.275293 0.224109 -0.340730
C127  C     C_R   0.677498 0.721041 0.774662 -0.328375
C128  C     C_R   0.179366 0.776009 0.773751 -0.335108
C129  C     C_R   0.823291 0.222355 0.225254 -0.350223
C130  C     C_R   0.821591 0.779672 0.225908 -0.342461
C131  C     C_R   0.184780 0.200641 0.766241 -0.362681
C132  C     C_R   0.710385 0.266319 0.815486 0.683422
C133  C     C_R   0.300081 0.761210 0.178912 0.678823
C134  C     C_R   0.292512 0.254490 0.180438 0.606043
C135  C     C_R   0.204713 0.223751 0.673774 1.036244
C136  C     C_R   0.709650 0.733212 0.816634 0.623689
C137  C     C_R   0.212180 0.762797 0.814592 0.683482
C138  C     C_R   0.792112 0.235980 0.181680 0.668924
C139  C     C_R   0.788736 0.768359 0.185016 0.607932
C140  C     C_R   0.221863 0.181436 0.797136 0.592653
C141  C     C_R   0.695124 0.127122 0.522730 0.973522
C142  C     C_R   0.304803 0.872805 0.477534 0.968002
C143  C     C_R   0.309775 0.130086 0.461553 0.946709
C144  C     C_R   0.690136 0.869754 0.539007 0.938454
C145  C     C_R   0.195163 0.627132 0.522689 0.980508
C146  C     C_R   0.906254 0.504459 0.480652 -0.078140
C147  C     C_R   0.804755 0.372817 0.477753 0.970389
C148  C     C_R   0.809782 0.630070 0.461565 0.931674
C149  C     C_R   0.190094 0.369744 0.539218 0.959848
C150  C     C_R   0.691008 0.283191 0.906188 -0.011658
C151  C     C_R   0.310863 0.728303 0.097647 0.006092
C152  C     C_R   0.316187 0.258605 0.085318 -0.005685
C153  C     C_R   0.688945 0.718470 0.908429 0.003047
C154  C     C_R   0.201693 0.800671 0.893042 0.002884
C155  C     C_R   0.813687 0.222086 0.089447 -0.015673
C156  C     C_R   0.808336 0.785032 0.094053 0.013122
F1    F     F_    0.984159 0.266368 0.669177 -0.514474
F2    F     F_    0.924499 0.683019 0.371497 -0.557886
F3    F     F_    0.831532 0.347836 0.617545 -0.585102
F4    F     F_    0.168140 0.650811 0.383319 -0.582551
F5    F     F_    0.575756 0.815801 0.629016 -0.553118
F6    F     F_    0.424411 0.182919 0.371590 -0.590483
F7    F     F_    0.332209 0.847391 0.616621 -0.581494
F8    F     F_    0.668334 0.150841 0.383071 -0.586091
F9    F     F_    0.699126 0.141167 0.964725 -0.515799
F10   F     F_    0.368164 0.778652 0.915726 -0.561633
F11   F     F_    0.378341 0.207948 0.894263 -0.516083
F12   F     F_    0.013702 0.735583 0.339329 -0.541771
F13   F     F_    0.752900 0.612764 0.936670 -0.524716
F14   F     F_    0.144961 0.754453 0.075910 -0.547961
F15   F     F_    0.807013 0.364145 0.028425 -0.516555
F16   F     F_    0.743905 0.890867 0.066745 -0.528502
F17   F     F_    0.176133 0.104250 0.064076 -0.507910
F18   F     F_    0.753924 0.391608 0.933030 -0.524689
F19   F     F_    0.195169 0.725125 0.174386 -0.489360
F20   F     F_    0.224862 0.141618 0.158824 -0.511599
F21   F     F_    0.692423 0.860863 0.969588 -0.515099
F22   F     F_    0.317518 0.811210 0.818104 -0.509154
F23   F     F_    0.892460 0.275173 0.658449 -0.502559
F24   F     F_    0.752832 0.113556 0.058898 -0.523064
F25   F     F_    0.804543 0.642798 0.033432 -0.534844
F26   F     F_    0.323626 0.213703 0.801041 -0.493823
F27   F     F_    0.761547 0.238240 0.768181 -0.523995
F28   F     F_    0.261127 0.813725 0.215516 -0.537241
F29   F     F_    0.238629 0.240359 0.231431 -0.560933
F30   F     F_    0.761093 0.760305 0.769463 -0.580121
F31   F     F_    0.254499 0.715032 0.777606 -0.529694
F32   F     F_    0.740605 0.263025 0.228005 -0.518043
F33   F     F_    0.737549 0.740466 0.232518 -0.590891
F34   F     F_    0.105068 0.726959 0.350551 -0.489646
F35   F     F_    0.274303 0.168099 0.734366 -0.573765
F36   F     F_    0.487123 0.762301 0.659444 -0.506829
F37   F     F_    0.514371 0.234718 0.337065 -0.576598
F38   F     F_    0.396238 0.770094 0.646401 -0.491527
F39   F     F_    0.606560 0.225073 0.345664 -0.497580
F40   F     F_    0.074509 0.318113 0.634635 -0.555450
H1    H     H_    0.798473 0.565706 0.251332 0.420852
H2    H     H_    0.969038 0.137549 0.810655 0.406752
H3    H     H_    0.956163 0.790578 0.836830 0.398124
H4    H     H_    0.138519 0.302305 0.119020 0.406154
H5    H     H_    0.600056 0.386663 0.719473 0.342592
H6    H     H_    0.447682 0.802984 0.268479 0.397103
H7    H     H_    0.447902 0.304875 0.293485 0.438122
H8    H     H_    0.548818 0.838769 0.802099 0.418345
H9    H     H_    0.055595 0.813610 0.704121 0.377969
H10   H     H_    0.939814 0.292068 0.288449 0.390402
H11   H     H_    0.962873 0.821192 0.273086 0.436220
H12   H     H_    0.284772 0.512360 0.626516 0.401599
H13   H     H_    0.072979 0.355886 0.787554 0.417381
H14   H     H_    0.297634 0.066358 0.252312 0.416043
H15   H     H_    0.783066 0.010585 0.630054 0.404912
H16   H     H_    0.542121 0.295212 0.170759 0.427367
H17   H     H_    0.378097 0.630041 0.881957 0.396397
H18   H     H_    0.450490 0.364989 0.843175 0.389199
H19   H     H_    0.627250 0.572553 0.145658 0.406511
H20   H     H_    0.140139 0.898359 0.121179 0.401526
O1    O     O_R   0.746490 0.236330 0.638080 -0.508236
O2    O     O_R   0.325830 0.813840 0.483730 -0.582924
O3    O     O_2   0.923133 0.149171 0.271323 -0.259033
O4    O     O_2   0.980934 0.213491 0.129192 -0.209604
O5    O     O_3   0.913007 0.290160 0.266786 -0.510367
O6    O     O_2   0.915785 0.699443 0.229973 -0.170078
O7    O     O_2   0.981454 0.779914 0.112190 -0.235859
O8    O     O_3   0.927580 0.831208 0.275817 -0.480968
O9    O     O_2   0.068563 0.197702 0.741753 -0.168581
O10   O     O_2   0.028721 0.249410 0.894844 -0.219168
O11   O     O_3   0.104927 0.322882 0.761983 -0.485616
O12   O     O_R   0.325830 0.186160 0.483730 -0.575968
O13   O     O_R   0.674170 0.813840 0.516270 -0.579237
O14   O     O_R   0.174170 0.686160 0.516270 -0.587940
O15   O     O_R   0.825830 0.313840 0.483730 -0.581309
O16   O     O_R   0.825830 0.686160 0.483730 -0.585595
O17   O     O_R   0.174170 0.313840 0.516270 -0.582610
O18   O     O_R   0.739960 0.127620 0.525000 -0.584915
O19   O     O_R   0.260040 0.872380 0.475000 -0.585301
O20   O     O_R   0.260040 0.127620 0.475000 -0.603149
O21   O     O_R   0.253510 0.763670 0.361920 -0.512946
O22   O     O_R   0.739960 0.872380 0.525000 -0.588132
O23   O     O_R   0.239960 0.627620 0.525000 -0.578776
O24   O     O_R   0.760040 0.372380 0.475000 -0.590254
O25   O     O_R   0.760040 0.627620 0.475000 -0.598407
O26   O     O_R   0.239960 0.372380 0.525000 -0.587487
O27   O     O_R   0.680700 0.294870 0.629350 -0.626700
O28   O     O_R   0.319300 0.705130 0.370650 -0.604317
O29   O     O_R   0.319300 0.294870 0.370650 -0.581393
O30   O     O_R   0.680700 0.705130 0.629350 -0.578825
O31   O     O_R   0.180700 0.794870 0.629350 -0.616175
O32   O     O_R   0.253510 0.236330 0.361920 -0.553855
O33   O     O_R   0.819300 0.205130 0.370650 -0.593303
O34   O     O_R   0.819300 0.794870 0.370650 -0.562246
O35   O     O_R   0.180700 0.205130 0.629350 -0.583555
O36   O     O_R   0.062020 0.072840 0.007170 -0.545664
O37   O     O_R   0.937980 0.927160 0.992830 -0.541707
O38   O     O_R   0.937980 0.072840 0.992830 -0.571368
O39   O     O_R   0.062020 0.927160 0.007170 -0.546184
O40   O     O_R   0.562020 0.572840 0.007170 -0.551796
O41   O     O_R   0.437980 0.427160 0.992830 -0.594739
O42   O     O_R   0.437980 0.572840 0.992830 -0.542835
O43   O     O_R   0.746490 0.763670 0.638080 -0.553747
O44   O     O_R   0.562020 0.427160 0.007170 -0.536721
O45   O     O_R   0.947860 0.073950 0.109290 -0.581810
O46   O     O_R   0.052140 0.926050 0.890710 -0.567596
O47   O     O_R   0.052140 0.073950 0.890710 -0.614596
O48   O     O_R   0.947860 0.926050 0.109290 -0.594137
O49   O     O_R   0.447860 0.573950 0.109290 -0.583365
O50   O     O_R   0.552140 0.426050 0.890710 -0.628975
O51   O     O_R   0.552140 0.573950 0.890710 -0.600383
O52   O     O_R   0.447860 0.426050 0.109290 -0.561125
O53   O     O_2   0.818202 0.427137 0.297915 -0.225887
O54   O     O_R   0.246490 0.736330 0.638080 -0.518052
O55   O     O_2   0.737357 0.495010 0.407195 -0.257439
O56   O     O_3   0.819299 0.568116 0.284232 -0.503518
O57   O     O_2   0.184239 0.573350 0.700759 -0.243358
O58   O     O_2   0.186500 0.440252 0.707347 -0.230242
O59   O     O_3   0.271795 0.506126 0.582285 -0.515561
O60   O     O_2   0.318093 0.927466 0.297736 -0.229849
O61   O     O_2   0.237145 0.994903 0.407467 -0.244203
O62   O     O_3   0.318833 0.068451 0.284598 -0.514136
O63   O     O_2   0.682885 0.073374 0.701636 -0.239755
O64   O     O_2   0.684386 0.940171 0.708838 -0.220520
O65   O     O_R   0.753510 0.263670 0.361920 -0.509526
O66   O     O_3   0.770633 0.005466 0.584978 -0.513908
O67   O     O_2   0.640490 0.293311 0.115075 -0.280044
O68   O     O_2   0.636791 0.419489 0.073678 -0.159818
O69   O     O_3   0.549869 0.340909 0.135319 -0.449135
O70   O     O_2   0.323030 0.527362 0.075764 -0.255388
O71   O     O_2   0.274844 0.604242 0.021684 -0.251553
O72   O     O_3   0.377593 0.583487 0.912060 -0.424052
O73   O     O_2   0.315869 0.349271 0.931801 -0.223565
O74   O     O_2   0.369624 0.441675 0.946338 -0.163830
O75   O     O_3   0.421002 0.331239 0.851529 -0.371493
O76   O     O_R   0.753510 0.736330 0.361920 -0.559684
O77   O     O_2   0.632256 0.717409 0.119209 -0.304094
O78   O     O_2   0.553217 0.658378 0.128823 -0.186661
O79   O     O_3   0.639475 0.580009 0.080616 -0.442460
O80   O     O_2   0.225610 0.934458 0.973147 -0.280772
O81   O     O_2   0.161855 0.001622 0.943410 -0.283669
O82   O     O_3   0.122852 0.927130 0.092633 -0.419458
O83   O     O_2   0.868345 0.100219 0.911649 -0.201374
O84   O     O_2   0.876854 0.230821 0.878556 -0.227119
O85   O     O_3   0.959920 0.164392 0.866937 -0.432256
O86   O     O_2   0.857865 0.799060 0.884730 -0.321973
O87   O     O_R   0.246490 0.263670 0.638080 -0.561456
O88   O     O_2   0.865658 0.923798 0.925509 -0.143197
O89   O     O_3   0.949677 0.839158 0.865742 -0.456321
O90   O     O_2   0.076012 0.282554 0.036026 -0.192190
O91   O     O_2   0.081588 0.182706 0.127493 -0.165962
O92   O     O_3   0.159616 0.278915 0.059001 -0.550582
O93   O     O_2   0.586031 0.213873 0.744945 -0.202651
O94   O     O_2   0.519030 0.279074 0.879142 -0.218680
O95   O     O_3   0.571086 0.351594 0.728805 -0.491347
O96   O     O_2   0.438635 0.657964 0.247461 -0.239162
O97   O     O_2   0.480318 0.731175 0.107105 -0.226316
O98   O     O_R   0.674170 0.186160 0.516270 -0.567046
O99   O     O_3   0.416276 0.796339 0.258242 -0.522425
O100  O     O_2   0.413664 0.199011 0.232516 -0.203595
O101  O     O_2   0.479040 0.269636 0.102086 -0.248307
O102  O     O_3   0.433318 0.333410 0.260620 -0.492719
O103  O     O_2   0.572005 0.682032 0.730112 -0.160502
O104  O     O_2   0.517411 0.720522 0.888006 -0.260030
O105  O     O_3   0.584859 0.814468 0.772904 -0.469386
O106  O     O_2   0.086970 0.706944 0.761694 -0.277130
O107  O     O_2   0.024113 0.772540 0.899123 -0.231960
O108  O     O_3   0.064514 0.842044 0.744659 -0.507753
S1    S     S_3+6 0.798549 0.495368 0.353881 0.111755
S2    S     S_3+6 0.891788 0.170572 0.922530 0.144629
S3    S     S_3+6 0.881785 0.846153 0.928743 0.120069
S4    S     S_3+6 0.113755 0.229828 0.045560 0.137067
S5    S     S_3+6 0.573709 0.284992 0.795129 0.132097
S6    S     S_3+6 0.430022 0.719382 0.196980 0.116394
S7    S     S_3+6 0.427069 0.273810 0.191050 0.121587
S8    S     S_3+6 0.572291 0.726365 0.804198 0.155051
S9    S     S_3+6 0.074440 0.779815 0.808255 0.091819
S10   S     S_3+6 0.925298 0.210625 0.210793 0.117355
S11   S     S_3+6 0.926823 0.776844 0.196792 0.154799
S12   S     S_3+6 0.203450 0.505022 0.644882 0.103676
S13   S     S_3+6 0.080226 0.240151 0.805869 0.160060
S14   S     S_3+6 0.298331 0.995532 0.353983 0.111714
S15   S     S_3+6 0.702226 0.004871 0.646129 0.115113
S16   S     S_3+6 0.617864 0.343432 0.071352 0.137164
S17   S     S_3+6 0.328145 0.593786 0.020140 0.126027
S18   S     S_3+6 0.364588 0.361088 0.943883 0.169892
S19   S     S_3+6 0.614084 0.661624 0.074972 0.112336
S20   S     S_3+6 0.169835 0.932075 0.982234 0.115465
Zn1   Zn    Zn3+2 0.792340 0.208750 0.507670 1.224590
Zn2   Zn    Zn3+2 0.494040 0.500000 0.919480 1.184988
Zn3   Zn    Zn3+2 0.005960 0.000000 0.080520 1.254789
Zn4   Zn    Zn3+2 0.994040 0.000000 0.919480 1.216383
Zn5   Zn    Zn3+2 0.207660 0.791250 0.492330 1.218084
Zn6   Zn    Zn3+2 0.207660 0.208750 0.492330 1.211943
Zn7   Zn    Zn3+2 0.792340 0.791250 0.507670 1.211631
Zn8   Zn    Zn3+2 0.292340 0.708750 0.507670 1.221624
Zn9   Zn    Zn3+2 0.707660 0.291250 0.492330 1.239642
Zn10  Zn    Zn3+2 0.707660 0.708750 0.492330 1.208535
Zn11  Zn    Zn3+2 0.292340 0.291250 0.507670 1.204282
Zn12  Zn    Zn3+2 0.505960 0.500000 0.080520 1.258879

loop_
_geom_bond_atom_site_label_1
_geom_bond_atom_site_label_2
_ccdc_geom_bond_type
C100  C153  A    
C145  O14   A    
O41   Zn2   S    
C10   O49   A    
O68   S16   D    
C132  C150  A    
C133  C151  A    
C74   C83   A    
O40   Zn12  S    
C14   C33   A    
C19   C46   A    
C147  O24   A    
C3    C105  A    
C16   C31   A    
C91   C127  S    
C50   C59   A    
C31   C42   A    
O64   S15   D    
O60   S14   D    
C52   C61   A    
C65   F4    S    
C77   C156  S    
H10   O5    S    
O17   Zn6   S    
O3    S10   D    
C7    O46   A    
H6    O99   S    
C131  C140  A    
C1    O27   A    
O26   Zn11  S    
C13   C51   A    
C147  O15   A    
C44   C53   A    
H19   O79   S    
C97   C150  A    
C117  C126  A    
O16   Zn7   S    
C20   C29   A    
C119  C128  A    
C57   F3    S    
C47   C146  A    
C100  C109  A    
C24   C50   A    
C87   F26   S    
C94   F9    S    
C98   S17   S    
C109  C118  A    
O55   S1    D    
C115  C123  A    
C144  O13   A    
C127  C136  A    
C4    O36   A    
C101  C110  A    
C8    O40   A    
O30   Zn10  S    
C34   C39   A    
C66   F5    S    
C9    C108  S    
O97   S6    D    
C99   S18   S    
C133  F28   S    
C72   C151  S    
C120  S10   S    
O104  S8    D    
C124  C130  S    
O48   Zn3   S    
O99   S6    S    
C35   F40   S    
O27   Zn9   S    
O44   Zn12  S    
H5    O95   S    
O91   S4    D    
O88   S3    D    
C35   C45   A    
C15   C30   A    
C16   C25   A    
O29   Zn11  S    
C76   C155  S    
C136  F30   S    
O85   S2    S    
O77   S19   D    
C124  O76   A    
C25   F36   S    
H16   O69   S    
C69   O28   A    
O100  S7    D    
C106  C115  A    
C18   C38   A    
C136  C153  A    
C67   F6    S    
C80   C126  S    
C92   F16   S    
C84   C93   A    
O7    S11   D    
O10   S13   D    
C86   C95   A    
C28   F12   S    
C2    C40   A    
O18   Zn1   S    
O50   Zn2   S    
C111  C120  A    
C76   C85   A    
C78   C87   A    
C64   S15   S    
C119  S9    S    
C123  C132  A    
C27   C29   A    
C6    C111  S    
C116  S6    S    
C58   C141  S    
O79   S19   S    
C121  C130  A    
C71   C79   A    
O101  S7    D    
C99   C108  A    
O9    S13   D    
O62   S14   S    
C77   C86   A    
C37   C40   A    
C102  C128  S    
C60   C143  S    
C38   C39   A    
C43   C52   A    
C71   C150  S    
O103  S8    D    
C46   F2    S    
C113  O33   A    
O11   S13   S    
C5    O37   A    
C142  O2    A    
C124  O34   A    
C20   C35   A    
O6    S11   D    
C2    C44   A    
C22   C25   A    
C86   F25   S    
C100  S19   S    
C91   O30   A    
C88   F15   S    
C44   C65   A    
O98   Zn9   S    
C8    O51   A    
O22   Zn7   S    
C104  S3    S    
O38   Zn4   S    
C2    C45   A    
C58   C64   A    
C56   C63   A    
C101  S20   S    
C120  C129  A    
H7    O102  S    
H8    O105  S    
C104  C112  A    
C149  O17   A    
O14   Zn5   S    
O95   S5    S    
C143  O20   A    
O12   Zn11  S    
C138  F32   S    
O73   S18   D    
C50   C66   A    
C15   C67   A    
C51   C67   A    
C19   C28   A    
C126  C134  A    
C142  O19   A    
H9    O108  S    
C93   F10   S    
O83   S2    D    
C116  C125  A    
C73   C152  S    
O102  S7    S    
O82   S20   S    
C118  C127  A    
H4    O92   S    
C122  C131  A    
O21   Zn5   S    
C62   S12   S    
O106  S9    D    
C12   C70   A    
C32   C42   A    
O24   Zn9   S    
O33   Zn1   S    
C108  C117  A    
O93   S5    D    
C102  O31   A    
C135  O35   A    
C110  C119  A    
C45   C54   A    
C1    O1    A    
C5    C112  S    
C52   C147  S    
C99   C152  A    
C7    C110  S    
O80   S20   D    
O36   Zn3   S    
C56   C142  S    
C112  C121  A    
O51   Zn2   S    
C55   C148  S    
C101  C154  A    
C85   F24   S    
O46   Zn4   S    
O47   Zn4   S    
C55   C61   A    
C11   O50   A    
C107  C116  A    
C91   O43   A    
C121  S11   S    
O58   S12   D    
O89   S3    S    
C140  F35   S    
C51   C60   A    
C138  C155  A    
O28   Zn8   S    
O2    Zn8   S    
O66   S15   S    
O71   S17   D    
C9    O41   A    
C34   C37   A    
C24   C42   A    
C13   C41   A    
C78   C90   A    
O15   Zn1   S    
C81   F19   S    
C4    C114  S    
C27   F23   S    
O75   S18   S    
O5    S10   S    
O87   Zn11  S    
C103  C111  A    
O42   Zn2   S    
O90   S4    D    
C117  S7    S    
C149  O26   A    
C80   O32   A    
O84   S2    D    
C148  O16   A    
C72   C81   A    
C81   C89   A    
C69   C125  S    
C79   F18   S    
C130  C139  A    
C79   C88   A    
C98   C151  A    
H2    O85   S    
H20   O82   S    
C83   F21   S    
O69   S16   S    
O8    S11   S    
C29   F1    S    
C54   C62   A    
C105  S4    S    
C98   C107  A    
C1    C123  S    
O92   S4    S    
C18   C57   A    
C134  C152  A    
C23   F37   S    
C11   C106  S    
C53   C145  S    
C96   F11   S    
C21   F39   S    
O70   S17   D    
O45   Zn3   S    
C113  C129  S    
C97   C106  A    
C115  S5    S    
C103  C155  A    
C49   C70   A    
C21   C23   A    
C16   C66   A    
C73   C82   A    
C68   F7    S    
O108  S9    S    
C46   C47   A    
C141  O98   A    
C102  O54   A    
C7    O39   A    
C17   C65   A    
C139  F33   S    
C135  O87   A    
C82   C90   A    
C33   C41   A    
C11   O44   A    
C36   C38   A    
C122  S13   S    
C132  F27   S    
C43   C146  A    
C14   C22   A    
O25   Zn10  S    
O53   S1    D    
C39   C146  A    
C137  C154  A    
O59   S12   S    
C75   C84   A    
O35   Zn6   S    
C20   C36   A    
O37   Zn4   S    
O61   S14   D    
C14   C68   A    
C144  O22   A    
O43   Zn7   S    
H13   O11   S    
C73   C96   A    
C3    C78   S    
C118  S8    S    
C113  O65   A    
C137  F31   S    
C77   C92   A    
O20   Zn6   S    
O107  S9    D    
C143  O12   A    
C26   F34   S    
C71   C94   A    
C83   C92   A    
C90   F17   S    
C59   C64   A    
H14   O62   S    
O105  S8    S    
O63   S15   D    
C60   C63   A    
C17   C26   A    
O67   S16   D    
C89   F14   S    
C131  C135  S    
O74   S18   D    
C61   S1    S    
C6    O38   A    
O32   Zn6   S    
H12   O59   S    
C129  C138  A    
C141  O18   A    
C103  S2    S    
C5    O48   A    
C10   O42   A    
C97   S16   S    
C76   C88   A    
C15   C23   A    
H11   O8    S    
C12   C32   A    
C134  F29   S    
C10   C107  S    
O54   Zn8   S    
C54   C149  S    
O23   Zn8   S    
C9    O52   A    
O96   S6    D    
O39   Zn3   S    
C105  C114  A    
C36   C40   A    
C75   C89   A    
H18   O75   S    
C12   C21   A    
O57   S12   D    
C48   C68   A    
C49   C58   A    
C74   C153  S    
O13   Zn10  S    
O19   Zn5   S    
C128  C137  A    
O94   S5    D    
C85   C94   A    
C87   C96   A    
C31   C33   A    
C43   C57   A    
C30   C41   A    
H15   O66   S    
C17   C37   A    
C104  C156  A    
H1    O56   S    
C84   F22   S    
C95   F13   S    
O86   S3    D    
O56   S1    S    
O65   Zn9   S    
C82   F20   S    
C59   C144  S    
O49   Zn12  S    
C148  O25   A    
C72   C93   A    
O31   Zn5   S    
C47   C55   A    
C125  C133  A    
C24   C49   A    
C48   C56   A    
O81   S20   D    
C74   C95   A    
C18   C27   A    
C19   C34   A    
C70   F8    S    
C13   C48   A    
H17   O72   S    
C26   C28   A    
O78   S19   D    
O34   Zn7   S    
H3    O89   S    
C8    C109  S    
C30   C32   A    
C75   C154  S    
C139  C156  A    
C4    O47   A    
O72   S17   S    
C145  O23   A    
C6    O45   A    
O52   Zn12  S    
O4    S10   D    
C63   S14   S    
O1    Zn1   S    
C114  C122  A    
C53   C62   A    
C80   O29   A    
C22   F38   S    
O76   Zn10  S    
C3    C140  A    
C69   O21   A    
