data_mof_unit_58209.cif
_audit_creation_date              2012-12-11T17:06:25-0500
_audit_creation_method            fapswitch 2.2
_symmetry_space_group_name_H-M    P1
_symmetry_Int_Tables_number       1
_space_group_crystal_system       triclinic
_cell_length_a                    6.991893
_cell_length_b                    14.581614
_cell_length_c                    15.982242
_cell_angle_alpha                 90.6468
_cell_angle_beta                  90.229158
_cell_angle_gamma                 90.072572
_cell_volume                      1629.32061687

loop_
_atom_site_label
_atom_site_type_symbol
_atom_type_description
_atom_site_fract_x
_atom_site_fract_y
_atom_site_fract_z
_atom_type_partial_charge
O1    O     O_R   0.494400 0.415450 0.412630 -0.510080
O2    O     O_R   0.823940 0.405730 0.586760 -0.545226
O3    O     O_R   0.994240 0.584550 0.587370 -0.523189
C1    C     C_R   0.654736 0.384007 0.615015 0.725255
O4    O     O_R   0.824110 0.404430 0.413240 -0.518680
O5    O     O_R   0.994420 0.583240 0.412620 -0.551466
C2    C     C_R   0.654848 0.382078 0.384768 0.752469
O6    O     O_R   0.494230 0.416760 0.587380 -0.539812
O7    O     O_3   0.660800 0.558670 0.500000 -0.368750
V1    V     V_3+5 0.935650 0.489120 0.500000 1.567410
O8    O     O_R   0.324140 0.594270 0.413240 -0.543005
C3    C     C_R   0.154547 0.615463 0.384064 0.729478
O9    O     O_R   0.323960 0.595570 0.586760 -0.524955
C4    C     C_R   0.155628 0.615829 0.616789 0.715840
V2    V     V_3+5 0.435660 0.510880 0.500000 1.565831
O10   O     O_3   0.160640 0.441330 0.500000 -0.339219
C5    C     C_3   0.959751 0.715574 0.730851 0.406670
C6    C     C_3   0.053586 0.706135 0.818053 -0.271025
H1    H     H_    0.986099 0.674101 0.873303 0.143635
C7    C     C_3   0.122032 0.806601 0.812690 -0.171441
C8    C     C_3   0.029515 0.814934 0.726178 0.420291
C9    C     C_3   0.215246 0.783801 0.682620 -0.252993
C10   C     C_3   0.310304 0.774926 0.770488 -0.085975
C11   C     C_3   0.241533 0.673682 0.775078 -0.126178
C12   C     C_3   0.145534 0.683710 0.688285 -0.101669
H2    H     H_    0.283068 0.814731 0.626936 0.139080
H3    H     H_    0.454878 0.800318 0.788019 0.185590
H4    H     H_    0.330769 0.614909 0.795117 0.153999
C13   C     C_R   0.283682 0.800255 0.228330 -0.003924
C14   C     C_R   0.125641 0.804445 0.174771 -0.131040
C15   C     C_R   0.977155 0.742077 0.190332 -0.080927
H5    H     H_    0.861288 0.736212 0.146458 0.170208
C16   C     C_R   0.982522 0.682991 0.259817 -0.123869
H6    H     H_    0.867835 0.633977 0.267494 0.132572
C17   C     C_R   0.140084 0.683110 0.315441 -0.071010
C18   C     C_R   0.287154 0.745547 0.299974 -0.040691
C19   C     C_3   0.494382 0.724379 0.293198 -0.400597
C20   C     C_3   0.488062 0.773216 0.209737 0.741409
H7    H     H_    0.523187 0.649508 0.287859 0.184240
H8    H     H_    0.580356 0.759035 0.342905 0.140841
C21   C     C_R   0.474749 0.272955 0.704712 -0.026538
C22   C     C_R   0.643209 0.319223 0.685042 -0.161723
C23   C     C_R   0.800311 0.305194 0.738578 -0.276212
H9    H     H_    0.931037 0.341977 0.726246 0.127206
C24   C     C_R   0.791684 0.243133 0.806982 0.392891
C25   C     C_R   0.625426 0.187118 0.817475 -0.171310
C26   C     C_R   0.469392 0.207415 0.766115 -0.023774
C27   C     C_3   0.314561 0.152974 0.724761 -0.476173
C28   C     C_3   0.310308 0.228186 0.658329 0.346499
H10   H     H_    0.183622 0.150284 0.763325 0.203066
H11   H     H_    0.366693 0.085462 0.701345 0.161583
H12   H     H_    0.179983 0.270937 0.663104 0.091269
C29   C     C_R   0.497126 0.248173 0.311484 -0.020521
C30   C     C_R   0.645635 0.312292 0.316985 -0.115880
C31   C     C_R   0.779425 0.312974 0.252258 -0.100625
H13   H     H_    0.880936 0.368337 0.250117 0.202520
C32   C     C_R   0.769220 0.249906 0.185222 0.416370
C33   C     C_R   0.624315 0.182372 0.181572 -0.178863
C34   C     C_R   0.490484 0.182219 0.246731 -0.112741
C35   C     C_3   0.280224 0.191079 0.236823 0.201617
C36   C     C_3   0.288554 0.267984 0.301930 0.613654
H14   H     H_    0.240612 0.212886 0.173007 0.173532
O11   O     O_R   0.771650 0.079500 0.908680 -0.506563
O12   O     O_R   0.441690 0.091800 0.082800 -0.540820
O13   O     O_R   0.271460 0.912980 0.083410 -0.548245
C37   C     C_R   0.611070 0.114849 0.111128 0.769441
O14   O     O_R   0.441930 0.090510 0.909280 -0.546643
O15   O     O_R   0.271690 0.911670 0.908660 -0.555003
C38   C     C_R   0.611750 0.113873 0.881666 0.744309
O16   O     O_R   0.771410 0.080810 0.083440 -0.502355
O17   O     O_3   0.605100 0.937580 0.996050 -0.401339
V3    V     V_3+5 0.330220 0.007110 0.996030 1.465127
O18   O     O_R   0.941980 0.900620 0.909250 -0.537135
C39   C     C_R   0.110912 0.877245 0.881834 0.681818
O19   O     O_R   0.941740 0.901920 0.082770 -0.533522
C40   C     C_R   0.111762 0.876453 0.108791 0.698616
V4    V     V_3+5 0.830220 0.985300 0.996000 1.518337
O20   O     O_3   0.105210 0.054870 0.996020 -0.339180
O21   O     O_3   0.505993 0.703739 0.146627 -0.568278
C41   C     C_3   0.515128 0.737759 0.064663 0.117720
H15   H     H_    0.620733 0.793663 0.059946 0.178031
H16   H     H_    0.371999 0.759580 0.043186 0.117217
C42   C     C_3   0.579760 0.661249 0.005791 -0.743677
H17   H     H_    0.476995 0.603155 0.007702 0.240778
H18   H     H_    0.586645 0.687140 0.940742 0.190981
H19   H     H_    0.723820 0.636542 0.024411 0.219716
O22   O     O_3   0.625006 0.845552 0.203905 -0.577818
C43   C     C_3   0.583191 0.923457 0.254588 -0.005145
H20   H     H_    0.508605 0.907301 0.313923 0.136970
H21   H     H_    0.492824 0.971379 0.218471 0.185883
C44   C     C_3   0.768481 0.970859 0.278514 -0.585329
H22   H     H_    0.845620 0.990297 0.221104 0.262991
H23   H     H_    0.738224 0.033580 0.316160 0.209166
H24   H     H_    0.859669 0.924006 0.315718 0.227268
O23   O     O_3   0.951487 0.230193 0.857309 -0.553506
C45   C     C_3   0.007347 0.313849 0.896277 0.117348
H25   H     H_    0.896307 0.335912 0.941708 0.178988
H26   H     H_    0.029245 0.370628 0.851685 0.083329
C46   C     C_3   0.197737 0.300993 0.941374 -0.574141
H27   H     H_    0.223504 0.359362 0.985235 0.200429
H28   H     H_    0.198743 0.236072 0.976862 0.268959
H29   H     H_    0.315940 0.299198 0.895541 0.174325
O24   O     O_3   0.332998 0.195344 0.574519 -0.518579
C47   C     C_3   0.520127 0.168377 0.552309 0.179554
H30   H     H_    0.607757 0.148038 0.606476 0.104209
H31   H     H_    0.591983 0.225838 0.519995 0.120833
C48   C     C_3   0.509202 0.086834 0.492171 -0.660178
H32   H     H_    0.419890 0.103640 0.436962 0.281754
H33   H     H_    0.654856 0.068671 0.470178 0.176708
H34   H     H_    0.445871 0.026890 0.524264 0.205916
Cl1   Cl    Cl    0.723919 0.677685 0.706050 -0.684393
Cl2   Cl    Cl    0.919450 0.268676 0.100318 -0.710982
Cl3   Cl    Cl    0.167443 0.087619 0.268549 -0.689627
Cl4   Cl    Cl    0.156265 0.251206 0.395986 -0.550187
Cl5   Cl    Cl    0.250210 0.378857 0.257357 -0.681748
O25   O     O_3   0.905985 0.885137 0.699961 -0.541640
C49   C     C_3   0.010596 0.966914 0.690657 0.104220
H35   H     H_    0.128036 0.958605 0.644418 0.121716
H36   H     H_    0.069943 0.990828 0.751669 0.107562
C50   C     C_3   0.876753 0.039703 0.658348 -0.677279
H37   H     H_    0.757672 0.049685 0.703218 0.204434
H38   H     H_    0.953679 0.105572 0.650344 0.196762
H39   H     H_    0.818061 0.017115 0.596918 0.226949

loop_
_geom_bond_atom_site_label_1
_geom_bond_atom_site_label_2
_ccdc_geom_bond_type
C31   H13   S    
C21   C22   A    
O23   C45   S    
C1    O6    A    
C47   H31   S    
C29   C34   A    
C29   C30   A    
C13   C18   A    
C19   C20   S    
O13   C40   A    
C42   H17   S    
C6    C11   S    
C18   C19   S    
O14   V3    S    
C19   H8    S    
C49   H36   S    
O5    C3    A    
C14   C15   A    
C32   Cl2   S    
C20   O21   S    
O15   C39   A    
V2    O10   S    
C45   C46   S    
O25   C49   S    
C36   Cl4   S    
C35   H14   S    
C6    H1    S    
O18   C39   A    
O19   V4    S    
C25   C38   S    
V3    O20   S    
C30   C31   A    
O8    V2    S    
C33   C37   S    
C27   H11   S    
C15   H5    S    
C9    C12   S    
C45   H26   S    
C13   C20   S    
C36   Cl5   S    
C48   H32   S    
C7    C10   S    
O1    V2    S    
C10   H3    S    
O7    V1    S    
C50   H39   S    
C27   H10   S    
C34   C35   S    
C8    C9    S    
O16   V4    S    
C48   H33   S    
C35   Cl3   S    
C29   C36   S    
C41   C42   S    
C5    Cl1   S    
C21   C28   S    
C47   H30   S    
C50   H38   S    
C16   H6    S    
O11   C38   A    
C11   C12   S    
C41   H16   S    
C49   C50   S    
C44   H22   S    
O4    C2    A    
C33   C34   A    
V4    O20   S    
C5    C8    S    
C35   C36   S    
O14   C38   A    
C17   C18   A    
O12   C37   A    
O2    C1    A    
O19   C40   A    
O5    V1    S    
C13   C14   A    
C44   H23   S    
C14   C40   S    
C26   C27   S    
C43   C44   S    
O15   V3    S    
C28   H12   S    
C45   H25   S    
C46   H29   S    
C15   C16   A    
C5    C6    S    
C21   C26   A    
C7    C39   S    
C7    C8    S    
C3    C17   S    
C23   C24   A    
O3    C4    A    
C27   C28   S    
C46   H28   S    
C43   H21   S    
O6    V2    S    
O9    V2    S    
C23   H9    S    
C48   H34   S    
C22   C23   A    
O2    V1    S    
O17   V4    S    
C50   H37   S    
O11   V4    S    
C25   C26   A    
C42   H18   S    
O1    C2    A    
C11   H4    S    
C41   H15   S    
C28   O24   S    
O8    C3    A    
O13   V3    S    
C46   H27   S    
C20   O22   S    
C5    C12   S    
C31   C32   A    
O7    V2    S    
O4    V1    S    
C19   H7    S    
O3    V1    S    
V1    O10   S    
C49   H35   S    
C44   H24   S    
C32   C33   A    
C37   O16   A    
C8    O25   S    
C1    C22   S    
C16   C17   A    
C6    C7    S    
O12   V3    S    
C4    C12   S    
C10   C11   S    
O21   C41   S    
C24   C25   A    
O17   V3    S    
C42   H19   S    
C43   H20   S    
O22   C43   S    
C9    H2    S    
O24   C47   S    
O18   V4    S    
C9    C10   S    
C2    C30   S    
O9    C4    A    
C47   C48   S    
C24   O23   S    
