data_mof_unit_37043.cif
_audit_creation_date              2013-03-05T16:30:50-0500
_audit_creation_method            fapswitch 2.2
_symmetry_space_group_name_H-M    P1
_symmetry_Int_Tables_number       1
_space_group_crystal_system       triclinic
_cell_length_a                    11.115198
_cell_length_b                    10.893687
_cell_length_c                    9.543243
_cell_angle_alpha                 89.708966
_cell_angle_beta                  102.179626
_cell_angle_gamma                 90.051459
_cell_volume                      1129.52338533

loop_
_atom_site_label
_atom_site_type_symbol
_atom_site_description
_atom_site_fract_x
_atom_site_fract_y
_atom_site_fract_z
_atom_type_partial_charge
O1    O     O_R   0.500000 0.319640 0.618810 -0.594241
O2    O     O_R   0.500010 0.319680 0.381230 -0.604322
C1    C     C_R   0.500542 0.262905 0.500249 0.823592
O3    O     O_R   0.320680 0.500000 0.575130 -0.526516
O4    O     O_R   0.320690 0.500040 0.337550 -0.565631
C2    C     C_R   0.263089 0.502379 0.442823 0.895573
Cu1   Cu    Cu3+1 0.499990 0.499980 0.640670 1.010768
Cu2   Cu    Cu3+1 0.500010 0.500020 0.359330 1.002890
O5    O     O_R   0.499990 0.680320 0.618770 -0.571206
O6    O     O_R   0.500000 0.680360 0.381190 -0.542243
O7    O     O_R   0.679310 0.499960 0.662450 -0.597443
O8    O     O_R   0.679320 0.500000 0.424870 -0.589583
C3    C     C_R   0.495299 0.737428 0.497859 0.837739
C4    C     C_R   0.736393 0.500525 0.557811 0.834688
C5    C     C_2   0.128696 0.500425 0.413920 -0.429411
C6    C     C_2   0.066398 0.518906 0.518894 0.379585
C7    C     C_2   0.869242 0.509463 0.591526 -0.276378
C8    C     C_2   0.933676 0.497703 0.489015 -0.256065
C9    C     C_R   0.501684 0.061316 0.620197 0.056710
C10   C     C_R   0.500251 0.130742 0.498144 -0.119144
C11   C     C_R   0.493392 0.067538 0.368333 -0.252023
C12   C     C_R   0.486017 0.938780 0.363355 0.336055
C13   C     C_R   0.490436 0.870585 0.492574 -0.206813
C14   C     C_R   0.495660 0.937650 0.617112 -0.009163
C15   C     C_3   0.490305 0.928446 0.771756 0.210772
C16   C     C_3   0.498888 0.069843 0.775267 -0.463447
H1    H     H_    0.587185 0.104659 0.840071 0.181061
C17   C     C_R   0.559530 0.590455 0.087650 0.384408
N1    N     N_R   0.500780 0.500930 0.148120 -0.212937
C18   C     C_R   0.431698 0.417843 0.058121 -0.044068
C19   C     C_R   0.431722 0.417831 0.909223 0.006912
N2    N     N_R   0.500790 0.500890 0.852210 -0.205292
C20   C     C_R   0.559844 0.590150 0.940396 0.330022
C21   C     C_3   0.693659 0.619478 0.966911 -0.530980
C22   C     C_3   0.693478 0.619798 0.125763 -0.509313
H2    H     H_    0.887995 0.472570 0.380972 0.157145
H3    H     H_    0.378269 0.349822 0.101193 0.150663
H4    H     H_    0.378228 0.349924 0.840613 0.154810
H5    H     H_    0.749620 0.543646 0.936231 0.223719
H6    H     H_    0.711580 0.711367 0.924687 0.210907
H7    H     H_    0.748985 0.543868 0.184314 0.204305
H8    H     H_    0.711447 0.711800 0.175621 0.238568
N3    N     N_R   0.126346 0.563030 0.657925 0.151131
O9    O     O_R   0.142447 0.490506 0.769076 -0.369162
O10   O     O_R   0.161970 0.676752 0.673355 -0.262512
H9    H     H_    0.913285 0.530529 0.701376 0.201225
H10   H     H_    0.079896 0.475813 0.306658 0.142610
H11   H     H_    0.488955 0.117681 0.269004 0.192612
N4    N     N_R   0.466604 0.881381 0.225660 0.135322
O11   O     O_R   0.365100 0.821066 0.178816 -0.284129
O12   O     O_R   0.534597 0.912640 0.135799 -0.396799
N5    N     N_R   0.370999 0.882708 0.791028 0.193560
O13   O     O_R   0.366509 0.791334 0.877795 -0.256039
O14   O     O_R   0.268709 0.929891 0.719112 -0.303935
H12   H     H_    0.570601 0.880329 0.838515 0.110283
H13   H     H_    0.415124 0.117373 0.793517 0.221161

loop_
_geom_bond_atom_site_label_1
_geom_bond_atom_site_label_2
_geom_bond_distance
_ccdc_geom_bond_type
O4    Cu2   1.959884 S    
N3    O9    1.301153 A    
C9    C16   1.490113 S    
C14   C15   1.492364 S    
N1    C18   1.369274 A    
C21   C22   1.516409 S    
C9    C10   1.382822 A    
C4    C7    1.446743 S    
C19   H4    1.081370 S    
C5    H10   1.087280 S    
Cu2   O8    1.958958 S    
C11   H11   1.083707 S    
N2    C20   1.363344 A    
C10   C11   1.408285 A    
C7    C8    1.335467 D    
C2    C5    1.460864 S    
C15   N5    1.463359 S    
C1    C10   1.439983 S    
C19   N2    1.368974 A    
C11   C12   1.405424 A    
C7    H9    1.084890 S    
Cu1   O7    1.959886 S    
N3    O10   1.299847 A    
C6    N3    1.438164 S    
C16   H1    1.111366 S    
C18   C19   1.421035 A    
C12   N4    1.432749 S    
C21   H6    1.110623 S    
Cu2   N1    2.017425 S    
O3    C2    1.289712 A    
C17   N1    1.364819 A    
N5    O14   1.302355 A    
C17   C20   1.406033 A    
C9    C14   1.348943 A    
O2    C1    1.289457 A    
O3    Cu1   1.958957 S    
O4    C2    1.300602 A    
C22   H7    1.108066 S    
O7    C4    1.291151 A    
C13   C14   1.388980 A    
C5    C6    1.348567 D    
C15   H12   1.111192 S    
Cu1   Cu2   2.684942 S    
C20   C21   1.489819 S    
N5    O13   1.299205 A    
C3    C13   1.451846 S    
C18   H3    1.081587 S    
C6    C8    1.460659 S    
N4    O11   1.301272 A    
Cu1   O5    1.974598 S    
C22   H8    1.111373 S    
O5    C3    1.299454 A    
C12   C13   1.428362 A    
Cu1   N2    2.016994 S    
N4    O12   1.300990 A    
C15   C16   1.543303 S    
O1    Cu1   1.976669 S    
C8    H2    1.085180 S    
Cu2   O6    1.976670 S    
O2    Cu2   1.974597 S    
C21   H5    1.111436 S    
C17   C22   1.490972 S    
O8    C4    1.293257 A    
O1    C1    1.293136 A    
O6    C3    1.288611 A    
C16   H13   1.111517 S    
