data_mof_unit_7852.cif
_audit_creation_date              2012-12-10T17:11:12-0500
_audit_creation_method            fapswitch 2.2
_symmetry_space_group_name_H-M    P1
_symmetry_Int_Tables_number       1
_space_group_crystal_system       triclinic
_cell_length_a                    10.15737
_cell_length_b                    10.653616
_cell_length_c                    16.456607
_cell_angle_alpha                 91.606197
_cell_angle_beta                  85.031005
_cell_angle_gamma                 91.379281
_cell_volume                      1773.00545575

loop_
_atom_site_label
_atom_site_type_symbol
_atom_type_description
_atom_site_fract_x
_atom_site_fract_y
_atom_site_fract_z
_atom_type_partial_charge
C1    C     C_R   0.501421 0.737071 0.503343 0.895860
C2    C     C_R   0.530009 0.445744 0.262993 -0.071571
C3    C     C_2   0.597971 0.064064 0.447075 0.022095
C4    C     C_R   0.480659 0.495622 0.654134 0.864518
C5    C     C_2   0.492633 0.131661 0.472823 -0.341608
C6    C     C_2   0.585518 0.928545 0.452730 -0.266114
C7    C     C_2   0.508907 0.870178 0.511643 -0.198898
C8    C     C_2   0.076787 0.428400 0.453230 -0.244815
C9    C     C_2   0.932872 0.456245 0.439117 0.717511
C10   C     C_R   0.499131 0.263538 0.491260 0.955412
C11   C     C_R   0.518658 0.494541 0.346586 0.914077
C12   C     C_R   0.344074 0.467478 0.790806 -0.107697
C13   C     C_R   0.467379 0.468249 0.742177 -0.138154
C14   C     C_R   0.580312 0.427098 0.775923 -0.195227
C15   C     C_R   0.574837 0.390533 0.855761 -0.090479
C16   C     C_R   0.455025 0.388482 0.904077 0.150538
C17   C     C_R   0.338206 0.427028 0.872312 -0.068062
C18   C     C_2   0.715703 0.117273 0.399698 0.965669
C19   C     C_2   0.453929 0.927904 0.590741 0.881454
C20   C     C_2   0.118430 0.628457 0.507901 1.060246
C21   C     C_3   0.977513 0.413723 0.296849 0.009516
C22   C     C_3   0.064975 0.528732 0.272385 -0.331863
C23   C     C_R   0.465203 0.276969 0.172017 -0.117632
C24   C     C_3   0.138732 0.508416 0.188322 -0.863847
C25   C     C_3   0.865561 0.595145 0.627259 0.188460
C26   C     C_3   0.850370 0.727040 0.592211 -0.386709
C27   C     C_3   0.747802 0.802756 0.644855 -0.814047
C28   C     C_2   0.708727 0.605997 0.213491 0.928859
C29   C     C_2   0.595412 0.178135 0.985078 0.947310
C30   C     C_2   0.210978 0.426965 0.925050 0.922296
C31   C     C_2   0.219662 0.501006 0.756999 1.012315
C32   C     C_R   0.452214 0.338318 0.247387 -0.184593
C33   C     C_R   0.626938 0.489623 0.202736 -0.056720
C34   C     C_R   0.639618 0.425185 0.127191 -0.198289
C35   C     C_R   0.556615 0.321953 0.111328 0.117344
C36   C     C_2   0.458233 0.371774 0.991924 -0.234430
C37   C     C_2   0.535147 0.291095 0.026619 -0.101927
H1    H     H_    0.674308 0.419883 0.740340 0.171907
H2    H     H_    0.783371 0.227509 0.307468 0.350925
H3    H     H_    0.472594 0.058884 0.680364 0.364787
H4    H     H_    0.061847 0.786300 0.456344 0.343036
H5    H     H_    0.921007 0.386710 0.243960 0.202489
H6    H     H_    0.036762 0.330360 0.307217 0.127733
H7    H     H_    0.002857 0.612966 0.271586 0.271434
H8    H     H_    0.139457 0.546937 0.316889 0.243518
H9    H     H_    0.200296 0.423594 0.187598 0.261926
H10   H     H_    0.204336 0.590993 0.173529 0.267319
H11   H     H_    0.067776 0.496803 0.140812 0.294642
H12   H     H_    0.706083 0.461332 0.077762 0.184082
H13   H     H_    0.946039 0.606747 0.668396 0.155376
H14   H     H_    0.782712 0.569504 0.671058 0.157711
H15   H     H_    0.943400 0.782536 0.594281 0.241868
H16   H     H_    0.828659 0.724316 0.527741 0.263340
H17   H     H_    0.649865 0.753988 0.648694 0.255485
H18   H     H_    0.739268 0.896399 0.618177 0.295726
H19   H     H_    0.779075 0.816424 0.707597 0.260653
H20   H     H_    0.864349 0.713683 0.170536 0.358157
H21   H     H_    0.596504 0.051261 0.891611 0.354500
H22   H     H_    0.043846 0.517579 0.963474 0.354431
H23   H     H_    0.396547 0.086236 0.486431 0.161695
H24   H     H_    0.037200 0.443120 0.730334 0.340893
H25   H     H_    0.636237 0.873622 0.403185 0.207885
H26   H     H_    0.121426 0.344586 0.425396 0.138493
H27   H     H_    0.380421 0.301695 0.293876 0.150629
H28   H     H_    0.398173 0.199655 0.159253 0.155542
H29   H     H_    0.406988 0.443172 0.030555 0.162880
H30   H     H_    0.666215 0.366630 0.880408 0.146183
N1    N     N_2   0.147950 0.498670 0.499150 -0.153401
N2    N     N_2   0.852290 0.498640 0.499130 0.041862
O1    O     O_R   0.386960 0.680940 0.500010 -0.566428
O2    O     O_R   0.700180 0.211794 0.344434 -0.792883
O3    O     O_2   0.354384 0.882174 0.626525 -0.539734
O4    O     O_R   0.519132 0.029809 0.626365 -0.799888
O5    O     O_2   0.149322 0.686281 0.568755 -0.558720
O6    O     O_R   0.068678 0.692710 0.444432 -0.880517
O7    O     O_3   0.882610 0.440468 0.363055 -0.638936
O8    O     O_3   0.901220 0.491737 0.573164 -0.625186
O9    O     O_2   0.679208 0.682095 0.268670 -0.638830
O10   O     O_R   0.818071 0.630841 0.158145 -0.816959
O11   O     O_2   0.684969 0.126113 0.015059 -0.596398
O12   O     O_R   0.613100 0.680900 0.499990 -0.626912
O13   O     O_R   0.547506 0.128590 0.913467 -0.771764
O14   O     O_2   0.180853 0.338240 0.969007 -0.588959
O15   O     O_R   0.126534 0.528725 0.924975 -0.784983
O16   O     O_2   0.204558 0.607810 0.734697 -0.544416
O17   O     O_R   0.118712 0.410089 0.752986 -0.777032
O18   O     O_R   0.373570 0.500040 0.615810 -0.570100
O19   O     O_R   0.599710 0.500000 0.615790 -0.622864
O20   O     O_R   0.386900 0.319100 0.500010 -0.629420
O21   O     O_R   0.613040 0.319060 0.499990 -0.572162
O22   O     O_R   0.400290 0.500000 0.384210 -0.657404
O23   O     O_R   0.626430 0.499960 0.384190 -0.527953
O24   O     O_2   0.824370 0.072574 0.404768 -0.622364
Zn1   Zn    Zn3+2 0.349000 0.500030 0.500020 1.022292
Zn2   Zn    Zn3+2 0.651000 0.499970 0.499980 1.054020

loop_
_geom_bond_atom_site_label_1
_geom_bond_atom_site_label_2
_ccdc_geom_bond_type
C31   O16   D    
H20   O10   S    
N2    O8    S    
C3    C6    S    
C27   H17   S    
O21   Zn2   S    
C4    O18   A    
C21   O7    S    
C26   C27   S    
C4    C13   S    
C25   O8    S    
C36   C37   D    
O1    Zn1   S    
C9    N2    D    
H21   O13   S    
O12   Zn2   S    
C27   H18   S    
H4    O6    S    
C1    O12   A    
C15   C16   A    
O18   Zn1   S    
C30   O14   D    
H3    O4    S    
C3    C18   S    
C2    C32   A    
C34   C35   A    
O20   Zn1   S    
C28   O10   S    
C25   H13   S    
C21   H6    S    
C11   O23   A    
C22   H7    S    
C10   O20   A    
C8    C9    S    
C12   C17   A    
C9    O7    S    
C28   O9    D    
O19   Zn2   S    
C31   O17   S    
C13   C14   A    
C17   C30   S    
C19   O3    D    
C2    C11   S    
C24   H11   S    
C19   O4    S    
H22   O15   S    
C32   H27   S    
C27   H19   S    
C16   C17   A    
C3    C5    D    
C25   C26   S    
O23   Zn2   S    
N1    Zn1   S    
C20   O6    S    
C25   H14   S    
C26   H15   S    
C14   H1    S    
C15   H30   S    
C33   C34   A    
C20   O5    D    
C2    C33   A    
C28   C33   S    
C8    N1    D    
C7    C19   S    
C12   C31   S    
C22   C24   S    
C26   H16   S    
C18   O2    S    
C34   H12   S    
C5    H23   S    
C35   C37   S    
C1    C7    S    
C24   H10   S    
C20   N1    S    
N2    Zn2   S    
C6    C7    D    
C4    O19   A    
C23   C35   A    
C1    O1    A    
C24   H9    S    
C23   C32   A    
C6    H25   S    
C5    C10   S    
C16   C36   S    
O22   Zn1   S    
C23   H28   S    
C29   O11   D    
C36   H29   S    
C30   O15   S    
H24   O17   S    
C8    H26   S    
C21   H5    S    
C11   O22   A    
C29   O13   S    
C22   H8    S    
C12   C13   A    
C10   O21   A    
C29   C37   S    
C18   O24   D    
H2    O2    S    
C14   C15   A    
C21   C22   S    
