data_mof_unit_22605.cif
_audit_creation_date              2012-12-10T17:55:07-0500
_audit_creation_method            fapswitch 2.2
_symmetry_space_group_name_H-M    P1
_symmetry_Int_Tables_number       1
_space_group_crystal_system       triclinic
_cell_length_a                    8.803511
_cell_length_b                    10.833308
_cell_length_c                    9.523387
_cell_angle_alpha                 90.134018
_cell_angle_beta                  97.907177
_cell_angle_gamma                 90.326714
_cell_volume                      899.601750127

loop_
_atom_site_label
_atom_site_type_symbol
_atom_type_description
_atom_site_fract_x
_atom_site_fract_y
_atom_site_fract_z
_atom_type_partial_charge
C1    C     C_R   0.499825 0.262087 0.499848 0.784988
C2    C     C_R   0.500822 0.064156 0.627645 -0.186461
C3    C     C_R   0.500186 0.871772 0.500156 -0.016611
C4    C     C_R   0.499813 0.128227 0.499844 -0.016611
C5    C     C_R   0.403212 0.423224 0.062318 0.518441
C6    C     C_R   0.596788 0.576776 0.937682 0.518441
C7    C     C_R   0.403945 0.423756 0.912702 -0.195274
C8    C     C_R   0.596055 0.576244 0.087298 -0.195274
C9    C     C_R   0.500175 0.737913 0.500152 0.784988
C10   C     C_R   0.204184 0.502722 0.464090 0.809565
C11   C     C_R   0.795816 0.497278 0.535910 0.809564
C12   C     C_2   0.038975 0.516162 0.446153 0.179004
C13   C     C_2   0.961025 0.483838 0.553847 0.179004
C14   C     C_R   0.498937 0.063553 0.372195 -0.164271
C15   C     C_R   0.501062 0.936447 0.627805 -0.164271
C16   C     C_R   0.499178 0.935844 0.372354 -0.186461
Cu1   Cu    Cu3+1 0.500000 0.500020 0.640660 1.014225
Cu2   Cu    Cu3+1 0.500000 0.499980 0.359340 1.014225
H1    H     H_    0.498056 0.111338 0.272293 0.168249
H2    H     H_    0.755618 0.703116 0.951772 0.294828
H3    H     H_    0.501944 0.888662 0.727707 0.168249
H4    H     H_    0.498520 0.887581 0.272518 0.153183
H5    H     H_    0.501480 0.112419 0.727481 0.153183
H6    H     H_    0.327850 0.362958 0.845171 0.175147
H7    H     H_    0.672149 0.637042 0.154829 0.175147
H8    H     H_    0.039673 0.595047 0.261103 0.335284
H9    H     H_    0.960327 0.404952 0.738896 0.335283
H10   H     H_    0.244382 0.296884 0.048227 0.294828
N1    N     N_R   0.500040 0.500030 0.852080 -0.184669
N2    N     N_R   0.499960 0.499970 0.147920 -0.184669
O1    O     O_R   0.499990 0.319660 0.618740 -0.601980
O2    O     O_3   0.036091 0.431917 0.677258 -0.750006
O3    O     O_3   0.306273 0.346038 0.123626 -0.697618
O4    O     O_3   0.693727 0.653961 0.876374 -0.697618
O5    O     O_R   0.500010 0.680340 0.381260 -0.601980
O6    O     O_R   0.499990 0.319630 0.381170 -0.544945
O7    O     O_R   0.500010 0.680370 0.618830 -0.544945
O8    O     O_R   0.274840 0.500010 0.591370 -0.535183
O9    O     O_R   0.725160 0.499990 0.408630 -0.535183
O10   O     O_R   0.274830 0.499980 0.353800 -0.555894
O11   O     O_R   0.725170 0.500020 0.646200 -0.555893
O12   O     O_3   0.963909 0.568083 0.322742 -0.750007

loop_
_geom_bond_atom_site_label_1
_geom_bond_atom_site_label_2
_ccdc_geom_bond_type
C2    C4    A    
Cu2   O9    S    
Cu2   N2    S    
Cu1   N1    S    
Cu2   O5    S    
C13   O2    S    
C15   H3    S    
C10   O8    A    
C1    C4    S    
H2    O4    S    
C9    O7    A    
Cu1   Cu2   S    
C8    N2    A    
Cu1   O7    S    
C11   O9    A    
C2    C15   A    
C11   C13   S    
C12   O12   S    
C10   C12   S    
C7    N1    A    
C3    C9    S    
H10   O3    S    
C11   O11   A    
C14   C16   A    
Cu1   O8    S    
C4    C14   A    
Cu1   O1    S    
Cu1   O11   S    
C8    H7    S    
C7    H6    S    
C1    O1    A    
C6    N1    A    
C3    C15   A    
C12   C13   D    
H8    O12   S    
C10   O10   A    
C5    N2    A    
C2    H5    S    
C5    C7    A    
Cu2   O10   S    
C9    O5    A    
C6    C8    A    
H9    O2    S    
Cu2   O6    S    
C14   H1    S    
C3    C16   A    
C6    O4    S    
C1    O6    A    
C16   H4    S    
C5    O3    S    
