data_mof_unit_46635.cif
_audit_creation_date              2012-12-11T15:55:47-0500
_audit_creation_method            fapswitch 2.2
_symmetry_space_group_name_H-M    P1
_symmetry_Int_Tables_number       1
_space_group_crystal_system       triclinic
_cell_length_a                    6.961439
_cell_length_b                    14.54888
_cell_length_c                    16.094782
_cell_angle_alpha                 90.13165
_cell_angle_beta                  89.5409
_cell_angle_gamma                 90.333547
_cell_volume                      1630.01379807

loop_
_atom_site_label
_atom_site_type_symbol
_atom_type_description
_atom_site_fract_x
_atom_site_fract_y
_atom_site_fract_z
_atom_type_partial_charge
O1    O     O_R   0.505680 0.583900 0.413320 -0.542094
O2    O     O_R   0.176010 0.594950 0.586080 -0.544018
O3    O     O_R   0.005680 0.416100 0.586680 -0.535271
C1    C     C_R   0.344956 0.617414 0.614716 0.679246
O4    O     O_R   0.175960 0.594930 0.413930 -0.546791
O5    O     O_R   0.005640 0.416080 0.413300 -0.538928
C2    C     C_R   0.348070 0.620056 0.387328 0.687364
O6    O     O_R   0.505720 0.583920 0.586700 -0.542946
O7    O     O_3   0.339190 0.441320 0.500000 -0.366140
V1    V     V_3+5 0.064350 0.510890 0.500000 1.375374
O8    O     O_R   0.675920 0.405050 0.413920 -0.543671
C3    C     C_R   0.845065 0.383011 0.384910 0.681508
O9    O     O_R   0.675960 0.405070 0.586070 -0.540950
C4    C     C_R   0.844059 0.383203 0.614823 0.735400
V2    V     V_3+5 0.564340 0.489110 0.500000 1.383581
O10   O     O_3   0.839370 0.558680 0.500000 -0.379669
C5    C     C_R   0.990429 0.324353 0.746707 0.046880
C6    C     C_R   0.850553 0.317700 0.685135 -0.159764
C7    C     C_R   0.708638 0.249523 0.695867 -0.253019
H1    H     H_    0.592638 0.243639 0.651698 0.138368
C8    C     C_R   0.722786 0.183154 0.759730 0.410399
C9    C     C_R   0.875360 0.187259 0.818244 -0.253342
C10   C     C_R   0.999304 0.263839 0.813222 0.019048
C11   C     C_3   0.213811 0.273538 0.817231 0.262848
C12   C     C_3   0.202349 0.336379 0.741633 -0.368445
H2    H     H_    0.292280 0.208538 0.804340 0.109772
H3    H     H_    0.264260 0.305238 0.684328 0.132341
H4    H     H_    0.247264 0.408659 0.753620 0.189144
C13   C     C_R   0.045649 0.228102 0.214472 -0.158877
H5    H     H_    0.185425 0.212055 0.188409 0.116382
C14   C     C_R   0.034662 0.291615 0.279822 -0.151749
H6    H     H_    0.166503 0.322610 0.301979 0.120119
C15   C     C_R   0.856292 0.314925 0.315792 -0.044532
C16   C     C_R   0.689194 0.273119 0.284391 -0.155982
H7    H     H_    0.549359 0.289340 0.310272 0.118038
C17   C     C_R   0.700228 0.209434 0.219206 -0.161603
H8    H     H_    0.568401 0.178344 0.197139 0.116169
C18   C     C_R   0.878589 0.185988 0.183354 -0.040446
C19   C     C_R   0.188631 0.723765 0.718494 -0.150944
H9    H     H_    0.048293 0.704315 0.695586 0.116484
C20   C     C_R   0.199861 0.786959 0.784044 -0.157434
H10   H     H_    0.067547 0.814531 0.809319 0.116698
C21   C     C_R   0.378943 0.814228 0.816330 -0.051603
C22   C     C_R   0.546534 0.776990 0.780801 -0.152242
H11   H     H_    0.686886 0.796829 0.803409 0.113026
C23   C     C_R   0.535315 0.713834 0.715213 -0.153803
H12   H     H_    0.667670 0.686676 0.689596 0.120087
C24   C     C_R   0.356160 0.686063 0.683337 -0.044740
C25   C     C_R   0.208863 0.743723 0.299501 -0.223603
H13   H     H_    0.090846 0.742369 0.341679 0.148432
C26   C     C_R   0.210106 0.803925 0.231592 -0.157217
H14   H     H_    0.083379 0.844333 0.219245 0.121197
C27   C     C_R   0.376747 0.814393 0.182824 -0.063319
C28   C     C_R   0.540943 0.766773 0.206178 -0.178671
H15   H     H_    0.674937 0.780676 0.173674 0.123202
C29   C     C_R   0.542387 0.711930 0.278109 0.103286
C30   C     C_R   0.367319 0.690939 0.319912 -0.058756
O11   O     O_R   0.229200 0.915950 0.913350 -0.540514
O12   O     O_R   0.559090 0.905000 0.086080 -0.544170
O13   O     O_R   0.729280 0.083880 0.086680 -0.542819
C31   C     C_R   0.388868 0.882442 0.114320 0.694460
O14   O     O_R   0.558920 0.904980 0.913920 -0.540027
O15   O     O_R   0.729110 0.083860 0.913300 -0.514454
C32   C     C_R   0.390017 0.882595 0.885215 0.706836
O16   O     O_R   0.229360 0.915970 0.086730 -0.539396
O17   O     O_3   0.395680 0.058580 0.000030 -0.382771
V3    V     V_3+5 0.670570 0.989070 0.999990 1.408990
O18   O     O_R   0.058820 0.094950 0.913870 -0.558147
C33   C     C_R   0.890135 0.117532 0.885484 0.718634
O19   O     O_R   0.058990 0.094970 0.086020 -0.550967
C34   C     C_R   0.889817 0.117374 0.114711 0.675251
V4    V     V_3+5 0.170560 0.010930 0.999930 1.379729
O20   O     O_3   0.895590 0.941310 0.999960 -0.370562
C35   C     C_3   0.730946 0.710618 0.322397 -0.335662
C36   C     C_3   0.742590 0.794525 0.382326 -0.330449
C37   C     C_3   0.797648 0.768457 0.470721 -0.715720
H16   H     H_    0.937675 0.732602 0.471560 0.233607
H17   H     H_    0.810179 0.831622 0.509215 0.189241
H18   H     H_    0.684560 0.724059 0.498713 0.241493
H19   H     H_    0.848011 0.845490 0.357824 0.175573
H20   H     H_    0.603306 0.831549 0.386348 0.200432
H21   H     H_    0.766621 0.644704 0.352005 0.210928
H22   H     H_    0.843011 0.716039 0.273694 0.131051
O21   O     O_3   0.586070 0.114035 0.763480 -0.560838
C38   C     C_3   0.640859 0.040772 0.710624 0.089068
H23   H     H_    0.715728 0.987907 0.747944 0.124677
H24   H     H_    0.737645 0.061652 0.658147 0.098162
C39   C     C_3   0.461319 0.998010 0.673130 -0.725299
H25   H     H_    0.392985 0.047739 0.630434 0.206808
H26   H     H_    0.499756 0.935014 0.637754 0.186098
H27   H     H_    0.356742 0.979733 0.722871 0.221400
O22   O     O_3   0.272210 0.325486 0.887263 -0.544540
C40   C     C_3   0.349266 0.267797 0.948585 0.142174
H28   H     H_    0.463741 0.222776 0.922543 0.144077
H29   H     H_    0.233192 0.225891 0.977389 0.148588
C41   C     C_3   0.438837 0.326478 0.016465 -0.722660
H30   H     H_    0.328379 0.371534 0.045182 0.224135
H31   H     H_    0.499341 0.281462 0.065196 0.173998
H32   H     H_    0.556108 0.369685 0.989962 0.229758

loop_
_geom_bond_atom_site_label_1
_geom_bond_atom_site_label_2
_ccdc_geom_bond_type
C36   C37   S    
C40   H28   S    
C20   H10   S    
C4    C6    S    
C7    H1    S    
C37   H18   S    
C35   H22   S    
C1    O6    A    
C19   C20   A    
C27   C28   A    
C12   H4    S    
C5    C10   A    
O14   V3    S    
C17   H8    S    
C7    C8    A    
C37   H17   S    
C16   H7    S    
O5    C3    A    
V2    O10   S    
C41   H32   S    
C25   C30   A    
C29   C30   A    
C6    C7    A    
C23   H12   S    
O14   C32   A    
O12   V3    S    
C28   H15   S    
O8    V2    S    
O21   C38   S    
O17   V4    S    
O15   C33   A    
O13   V3    S    
O18   C33   A    
C25   C26   A    
C41   H31   S    
C13   C18   A    
C10   C11   S    
C14   C15   A    
O19   C34   A    
V3    O20   S    
O7    V1    S    
C9    C33   S    
O17   V3    S    
C40   H29   S    
C8    C9    A    
C20   C21   A    
C27   C31   S    
C35   H21   S    
C11   O22   S    
C22   C23   A    
C21   C32   S    
C15   C16   A    
C23   C24   A    
C38   H24   S    
O11   C32   A    
C28   C29   A    
O12   C31   A    
C29   C35   S    
C35   C36   S    
C26   H14   S    
C11   C12   S    
C19   H9    S    
O4    C2    A    
C36   H20   S    
O13   C34   A    
C38   H23   S    
C26   C27   A    
O2    C1    A    
C21   C22   A    
O15   V3    S    
C13   H5    S    
C14   H6    S    
C8    O21   S    
O18   V4    S    
C41   H30   S    
C5    C6    A    
C37   H16   S    
O3    C4    A    
O1    V2    S    
C39   H26   S    
C40   C41   S    
O9    V2    S    
C12   H3    S    
O2    V1    S    
C22   H11   S    
C1    C24   S    
C36   H19   S    
C38   C39   S    
C18   C34   S    
O1    C2    A    
C11   H2    S    
V4    O20   S    
O5    V1    S    
O8    C3    A    
O6    V2    S    
O16   V4    S    
C5    C12   S    
C17   C18   A    
O7    V2    S    
O4    V1    S    
C13   C14   A    
O3    V1    S    
V1    O10   S    
O11   V4    S    
C39   H27   S    
O22   C40   S    
C16   C17   A    
C31   O16   A    
C39   H25   S    
C25   H13   S    
C9    C10   A    
O19   V4    S    
C3    C15   S    
O9    C4    A    
C2    C30   S    
C19   C24   A    
