data_mof_unit_63914.cif
_audit_creation_date              2012-10-26T18:37:16-0400
_audit_creation_method            fapswitch 2.2
_symmetry_space_group_name_H-M    P1
_symmetry_Int_Tables_number       1
_space_group_crystal_system       triclinic
_cell_length_a                    12.743338
_cell_length_b                    13.903569
_cell_length_c                    19.35818
_cell_angle_alpha                 90.188393
_cell_angle_beta                  93.389734
_cell_angle_gamma                 97.944578
_cell_volume                      3390.75148582

loop_
_atom_site_label
_atom_site_type_symbol
_atom_type_description
_atom_site_fract_x
_atom_site_fract_y
_atom_site_fract_z
_atom_type_partial_charge
Br1   Br    Br    0.263853 0.501406 0.131535 -0.417050
Br2   Br    Br    0.736147 0.498593 0.868464 -0.417050
C1    C     C_R   0.483565 0.315796 0.499276 0.551639
C2    C     C_2   0.971945 0.526602 0.519621 -0.152775
C3    C     C_1   0.854696 0.519195 0.514060 0.154821
C4    C     C_1   0.145304 0.480805 0.485940 0.154821
C5    C     C_R   0.500018 0.500174 0.367110 0.546202
C6    C     C_R   0.499982 0.499826 0.632890 0.546203
C7    C     C_R   0.402453 0.497625 0.251744 -0.092145
C8    C     C_R   0.597547 0.502375 0.748256 -0.092144
C9    C     C_R   0.399712 0.498710 0.179633 0.169011
C10   C     C_R   0.600288 0.501290 0.820367 0.169011
C11   C     C_R   0.495191 0.502622 0.145659 0.043009
C12   C     C_R   0.516435 0.684204 0.500724 0.551639
C13   C     C_R   0.504809 0.497378 0.854341 0.043009
C14   C     C_R   0.591855 0.507171 0.185181 -0.134890
C15   C     C_R   0.408145 0.492829 0.814819 -0.134890
C16   C     C_R   0.593850 0.506117 0.257219 -0.134424
C17   C     C_R   0.406149 0.493883 0.742781 -0.134424
C18   C     C_R   0.499082 0.500995 0.291080 -0.020318
C19   C     C_R   0.500918 0.499005 0.708920 -0.020318
C20   C     C_R   0.503260 0.497977 0.930207 0.359807
C21   C     C_R   0.496740 0.502023 0.069793 0.359807
C22   C     C_1   0.525842 0.787537 0.501130 0.001205
C23   C     C_1   0.474158 0.212463 0.498870 0.001205
C24   C     C_2   0.543577 0.978402 0.501892 -0.109229
C25   C     C_2   0.456423 0.021598 0.498108 -0.109229
C26   C     C_1   0.465597 0.125410 0.498502 -0.032420
C27   C     C_1   0.534403 0.874589 0.501498 -0.032420
C28   C     C_2   0.028055 0.473398 0.480379 -0.152775
Cu1   Cu    Cu3+1 0.395330 0.493960 0.495610 1.011509
Cu2   Cu    Cu3+1 0.604670 0.506040 0.504390 1.011509
H1    H     H_    0.328502 0.495071 0.276974 0.167437
H2    H     H_    0.985463 0.422259 0.442571 0.136656
H3    H     H_    0.671498 0.504929 0.723026 0.167437
H4    H     H_    0.666103 0.510247 0.160210 0.158494
H5    H     H_    0.333896 0.489753 0.839790 0.158494
H6    H     H_    0.669506 0.509110 0.286309 0.150808
H7    H     H_    0.330494 0.490890 0.713691 0.150808
H8    H     H_    0.377880 0.979311 0.494702 0.145227
H9    H     H_    0.622119 0.020689 0.505298 0.145227
H10   H     H_    0.014537 0.577740 0.557429 0.136656
N1    N     N_R   0.577161 0.555346 0.038241 -0.203444
N2    N     N_R   0.422839 0.444654 0.961759 -0.203444
N3    N     N_R   0.579989 0.553764 0.969687 -0.146892
N4    N     N_R   0.420011 0.446236 0.030313 -0.146892
N5    N     N_1   0.238030 0.484880 0.489000 -0.182831
N6    N     N_1   0.761970 0.515120 0.511000 -0.182831
O1    O     O_R   0.399110 0.356330 0.495750 -0.486633
O2    O     O_R   0.600890 0.643670 0.504250 -0.486634
O3    O     O_R   0.575900 0.366540 0.503170 -0.488755
O4    O     O_R   0.424100 0.633460 0.496830 -0.488755
O5    O     O_R   0.411580 0.494880 0.396430 -0.497833
O6    O     O_R   0.588420 0.505120 0.603570 -0.497833
O7    O     O_R   0.588360 0.505090 0.403850 -0.496187
O8    O     O_R   0.411640 0.494910 0.596150 -0.496187

loop_
_geom_bond_atom_site_label_1
_geom_bond_atom_site_label_2
_ccdc_geom_bond_type
Cu2   O3    S    
C8    H3    S    
C15   H5    S    
Cu1   O8    S    
N1    N3    A    
C25   H8    S    
C7    C18   A    
Cu1   Cu2   S    
Br1   C9    S    
C10   C13   A    
C5    O7    A    
Cu1   O4    S    
Br2   C10   S    
C6    O8    A    
C6    C19   S    
C1    O1    A    
C21   N1    A    
C21   N4    A    
Cu1   N5    S    
Cu1   O5    S    
C23   C26   T    
C7    H1    S    
Cu2   N6    S    
Cu2   O2    S    
C24   C25   D    
C12   O2    A    
C8    C10   A    
Cu1   O1    S    
C14   H4    S    
C17   H7    S    
Cu2   O6    S    
C17   C19   A    
N2    N4    A    
C16   C18   A    
C7    C9    A    
C8    C19   A    
C16   H6    S    
C2    H10   S    
C3    N6    T    
C20   N2    A    
C9    C11   A    
C4    N5    T    
C28   H2    S    
C12   C22   S    
C1    C23   S    
C20   N3    A    
C12   O4    A    
C11   C21   S    
C24   C27   S    
C14   C16   A    
C5    C18   S    
C11   C14   A    
C6    O6    A    
C25   C26   S    
C13   C15   A    
C5    O5    A    
C22   C27   T    
C1    O3    A    
Cu2   O7    S    
C15   C17   A    
C4    C28   S    
C13   C20   S    
C2    C28   D    
C24   H9    S    
C2    C3    S    
