data_mof_unit_6830.cif
_audit_creation_date              2012-12-11T18:11:26-0500
_audit_creation_method            fapswitch 2.2
_symmetry_space_group_name_H-M    P1
_symmetry_Int_Tables_number       1
_space_group_crystal_system       triclinic
_cell_length_a                    8.160508
_cell_length_b                    12.835163
_cell_length_c                    18.807914
_cell_angle_alpha                 100.003647
_cell_angle_beta                  90.78682
_cell_angle_gamma                 99.010684
_cell_volume                      1914.37872185

loop_
_atom_site_label
_atom_site_type_symbol
_atom_type_description
_atom_site_fract_x
_atom_site_fract_y
_atom_site_fract_z
_atom_type_partial_charge
Ba1   Ba    Ba6+2 0.852780 0.548340 0.465070 1.654762
Ba2   Ba    Ba6+2 0.337060 0.451750 0.534940 1.661498
C1    C     C_3   0.669406 0.922897 0.280584 -0.396010
C2    C     C_R   0.890858 0.408516 0.099599 -0.090502
C3    C     C_R   0.779680 0.380637 0.945003 0.389968
C4    C     C_3   0.196528 0.797216 0.267772 0.325156
C5    C     C_R   0.936356 0.440193 0.973889 -0.053001
C6    C     C_R   0.718924 0.390843 0.877608 -0.121033
C7    C     C_R   0.817257 0.444495 0.830806 -0.102247
C8    C     C_R   0.979762 0.495848 0.854615 -0.008018
C9    C     C_R   0.039352 0.494761 0.926678 -0.020755
C10   C     C_R   0.759704 0.443725 0.759478 0.011516
C11   C     C_R   0.867020 0.486666 0.711018 -0.294950
C12   C     C_3   0.654593 0.817250 0.307236 0.409100
C13   C     C_R   0.025906 0.541060 0.732901 0.053621
C14   C     C_R   0.081672 0.549123 0.806567 -0.016766
C15   C     C_R   0.160718 0.491790 0.069283 0.026255
C16   C     C_3   0.129494 0.777460 0.189938 -0.331381
C17   C     C_R   0.220014 0.492646 0.141822 0.016821
C18   C     C_R   0.113797 0.446300 0.191582 -0.032382
C19   C     C_R   0.952020 0.400901 0.167115 -0.070449
C20   C     C_R   0.235047 0.608723 0.834096 -0.023608
C21   C     C_R   0.294741 0.606778 0.903707 -0.088219
C22   C     C_R   0.202404 0.546913 0.950478 0.032451
C23   C     C_3   0.395022 0.201383 0.309719 0.419740
C24   C     C_R   0.266419 0.540002 0.020549 0.022760
C25   C     C_R   0.433643 0.579458 0.043765 -0.084275
C26   C     C_R   0.384761 0.540640 0.164677 -0.039729
C27   C     C_R   0.490944 0.580016 0.114052 -0.089447
C28   C     C_3   0.221178 0.793788 0.633133 0.247736
C29   C     C_R   0.436620 0.550191 0.237997 -0.014179
C30   C     C_R   0.324562 0.513663 0.287345 -0.241426
C31   C     C_R   0.168868 0.453940 0.265203 0.038990
C32   C     C_R   0.769877 0.180713 0.526316 -0.247352
C33   C     C_R   0.427712 0.808283 0.470368 -0.276948
C34   C     C_3   0.384398 0.127895 0.236077 -0.370736
C35   C     C_R   0.404276 0.982952 0.443826 -0.109935
C36   C     C_R   0.338903 0.875129 0.439526 -0.039446
C37   C     C_R   0.578807 0.848501 0.509003 0.054772
C38   C     C_R   0.645665 0.959948 0.515234 -0.061063
C39   C     C_R   0.556107 0.027578 0.482148 -0.055502
C40   C     C_3   0.195760 0.908175 0.659124 -0.114704
C41   C     C_R   0.619121 0.138797 0.489803 0.038012
C42   C     C_R   0.860795 0.115796 0.556693 0.003534
C43   C     C_R   0.798082 0.006727 0.553259 -0.098448
C44   C     C_3   0.876104 0.201409 0.281853 0.255826
C45   C     C_3   0.064646 0.234499 0.733494 0.361289
C46   C     C_3   0.948830 0.150233 0.212913 -0.470813
C47   C     C_3   0.731052 0.707867 0.681567 0.314134
C48   C     C_3   0.751239 0.744681 0.763043 -0.408179
C49   C     C_3   0.747569 0.213750 0.976857 0.250899
C50   C     C_3   0.679317 0.133874 0.909189 -0.190305
C51   C     C_3   0.736962 0.025914 0.906933 -0.510599
C52   C     C_3   0.087802 0.208444 0.808462 -0.363028
C53   C     C_3   0.559207 0.180056 0.687703 0.367819
C54   C     C_3   0.594269 0.082817 0.718154 -0.397662
C55   C     C_R   0.994502 0.445641 0.046962 0.008459
H1    H     H_    0.733449 0.829116 0.357465 0.096521
H2    H     H_    0.630910 0.637211 0.670090 0.067562
H3    H     H_    0.801402 0.950604 0.270577 0.134293
H4    H     H_    0.853940 0.813704 0.776203 0.122397
H5    H     H_    0.780062 0.678723 0.789640 0.059669
H6    H     H_    0.634297 0.769300 0.784488 0.117204
H7    H     H_    0.523217 0.792575 0.319646 -0.120153
H8    H     H_    0.623970 0.983085 0.321964 0.084553
H9    H     H_    0.275749 0.182132 0.335957 0.089162
H10   H     H_    0.341850 0.043561 0.242233 0.090098
H11   H     H_    0.296726 0.151176 0.198510 0.090932
H12   H     H_    0.268034 0.941960 0.710562 0.124529
H13   H     H_    0.508031 0.133296 0.211699 0.106773
H14   H     H_    0.594051 0.913154 0.229544 0.108390
H15   H     H_    0.225343 0.750128 0.153010 0.058442
H16   H     H_    0.140609 0.313476 0.731532 0.090833
H17   H     H_    0.931916 0.239753 0.724507 -0.080345
H18   H     H_    0.043089 0.269423 0.849568 0.063082
H19   H     H_    0.016129 0.128402 0.811285 0.105873
H20   H     H_    0.221133 0.207996 0.820701 0.152993
H21   H     H_    0.677381 0.216575 0.667048 -0.079540
H22   H     H_    0.467382 0.153920 0.641639 0.102595
H23   H     H_    0.062347 0.910613 0.669308 0.115526
H24   H     H_    0.593787 0.013080 0.674253 0.081580
H25   H     H_    0.500555 0.061580 0.757591 0.134995
H26   H     H_    0.226380 0.719993 0.279376 -0.006842
H27   H     H_    0.719369 0.099679 0.745026 0.097730
H28   H     H_    0.823541 0.481466 0.655725 0.066282
H29   H     H_    0.594884 0.349927 0.861407 0.134468
H30   H     H_    0.864110 0.365514 0.201033 0.084726
H31   H     H_    0.312468 0.657257 0.802152 0.097694
H32   H     H_    0.619745 0.612912 0.128227 0.102690
H33   H     H_    0.362534 0.527416 0.343954 0.065210
H34   H     H_    0.782180 0.249643 0.269827 0.050919
H35   H     H_    0.758257 0.388770 0.092166 0.141086
H36   H     H_    0.413778 0.655324 0.920001 0.052475
H37   H     H_    0.310270 0.858241 0.273219 -0.019436
H38   H     H_    0.524720 0.609756 0.008293 0.066917
H39   H     H_    0.331549 0.031400 0.419053 0.089970
H40   H     H_    0.870308 0.960090 0.579769 0.101041
H41   H     H_    0.819853 0.264639 0.528949 0.069325
H42   H     H_    0.374490 0.724888 0.467396 0.069223
H43   H     H_    0.017461 0.714512 0.182338 0.153888
H44   H     H_    0.096491 0.852531 0.176174 0.109720
H45   H     H_    0.806770 0.136252 0.305930 0.081990
H46   H     H_    0.351775 0.791150 0.618627 0.001593
H47   H     H_    0.136001 0.759043 0.585418 0.058823
H48   H     H_    0.371874 0.967397 0.595010 0.144356
H49   H     H_    0.176928 0.939691 0.558376 0.199425
H50   H     H_    0.423751 0.360818 0.350172 0.171971
H51   H     H_    0.537907 0.330622 0.278208 0.167854
H52   H     H_    0.708027 0.178743 0.025131 0.067547
H53   H     H_    0.886158 0.226491 0.978908 0.028591
H54   H     H_    0.541335 0.122095 0.907260 0.134599
H55   H     H_    0.724076 0.167827 0.861536 0.112933
H56   H     H_    0.847237 0.113856 0.172028 0.087656
H57   H     H_    0.874715 0.035982 0.908708 0.135813
H58   H     H_    0.688570 0.971228 0.856089 0.147440
H59   H     H_    0.689457 0.989085 0.953421 0.136004
H60   H     H_    0.016785 0.086192 0.224450 0.127385
H61   H     H_    0.035063 0.210921 0.190672 0.107763
H62   H     H_    0.849125 0.685477 0.660919 0.006070
N1    N     N_3   0.248405 0.972487 0.605566 -0.458371
N2    N     N_3   0.421247 0.312363 0.299418 -0.526034
O1    O     O_2   0.873090 0.425890 0.325140 -0.479497
O2    O     O_2   0.198295 0.129868 0.547552 -0.457180
O3    O     O_3   0.115461 0.154029 0.682006 -0.581394
O4    O     O_3   0.122420 0.434370 0.414380 -0.454785
O5    O     O_3   0.578370 0.633800 0.536380 -0.487325
O6    O     O_2   0.341510 0.231850 0.465510 -0.458754
O7    O     O_3   0.530216 0.182138 0.349268 -0.674275
O8    O     O_2   0.413069 0.444451 0.757775 -0.498935
O9    O     O_3   0.493564 0.251165 0.741294 -0.605166
O10   O     O_3   0.659500 0.627100 0.368810 -0.478724
O11   O     O_2   0.782305 0.550540 0.245353 -0.483479
O12   O     O_3   0.691101 0.792415 0.650281 -0.643303
O13   O     O_3   0.002598 0.255022 0.332836 -0.619903
O14   O     O_3   0.709093 0.741325 0.253787 -0.592052
O15   O     O_2   0.848200 0.768190 0.534530 -0.480515
O16   O     O_3   0.081160 0.685950 0.404810 -0.466640
O17   O     O_2   0.996399 0.875812 0.447416 -0.496341
O18   O     O_3   0.680457 0.309771 0.980264 -0.669827
O19   O     O_3   0.077825 0.836892 0.313703 -0.576142
O20   O     O_2   0.316610 0.574140 0.674900 -0.469248
O21   O     O_3   0.067290 0.565720 0.585630 -0.499617
O22   O     O_3   0.530210 0.372990 0.631200 -0.477496
O23   O     O_3   0.188402 0.742753 0.691421 -0.656340
O24   O     O_3   0.611340 0.366290 0.463630 -0.459055
O25   O     O_3   0.108550 0.314140 0.595200 -0.478749
P1    P     P_3+3 0.041040 0.394770 0.336330 1.006873
P2    P     P_3+3 0.672880 0.754030 0.556100 0.962458
P3    P     P_3+3 0.126271 0.821886 0.401884 0.954900
P4    P     P_3+3 0.148670 0.605320 0.663680 0.963785
P5    P     P_3+3 0.067971 0.177197 0.595662 0.988559
P6    P     P_3+3 0.646223 0.614581 0.275258 0.962005
P7    P     P_3+3 0.525201 0.229624 0.442374 0.951542
P8    P     P_3+3 0.548149 0.381599 0.724034 0.944139

loop_
_geom_bond_atom_site_label_1
_geom_bond_atom_site_label_2
_ccdc_geom_bond_type
Ba2   P4    S    
C53   C54   S    
C19   H30   S    
C40   H23   S    
C48   H6    S    
C25   C27   A    
C25   H38   S    
C17   C18   A    
H51   N2    S    
O6    P7    D    
C27   H32   S    
C34   H10   S    
C54   H24   S    
C51   H57   S    
Ba2   O24   S    
C5    C9    A    
O13   P1    S    
C44   H45   S    
C24   C25   A    
C15   C24   A    
C26   C27   A    
C23   O7    S    
Ba1   O4    S    
O8    P8    D    
C12   O14   S    
C50   H55   S    
C13   C14   A    
C9    C22   A    
C28   O23   S    
Ba1   Ba2   S    
Ba1   O1    S    
O23   P4    S    
Ba1   O21   S    
C31   P1    S    
C32   H41   S    
Ba1   O24   S    
C30   H33   S    
C6    C7    A    
C4    H37   S    
C37   P2    S    
C42   C43   A    
C21   C22   A    
H48   N1    S    
C54   H27   S    
C20   H31   S    
Ba1   O15   S    
C7    C8    A    
C36   P3    S    
C51   H59   S    
C52   H20   S    
O24   P7    S    
Ba2   O6    S    
C49   H52   S    
C4    O19   S    
Ba2   O22   S    
C39   C41   A    
O16   P3    S    
O10   P6    S    
C1    H8    S    
C16   H43   S    
C33   H42   S    
C34   H13   S    
O20   P4    D    
C3    O18   S    
C44   C46   S    
O17   P3    D    
C16   H15   S    
C38   C43   A    
C12   H1    S    
C4    C16   S    
O2    P5    D    
C42   P5    S    
C23   H9    S    
C49   C50   S    
C33   C36   A    
C32   C42   A    
Ba1   O5    S    
C45   H16   S    
O4    P1    S    
C10   P8    S    
C37   C38   A    
C3    C5    A    
C53   H21   S    
O5    P2    S    
O22   P8    S    
C46   H61   S    
C44   H34   S    
C50   H54   S    
C40   H12   S    
C21   H36   S    
C35   H39   S    
C46   H56   S    
C16   H44   S    
C28   H46   S    
C1    H14   S    
C35   C36   A    
C44   O13   S    
C53   H22   S    
C29   C30   A    
C53   O9    S    
C12   H7    S    
O9    P8    S    
O12   P2    S    
O1    P1    D    
C10   C11   A    
C17   C26   A    
Ba2   O21   S    
O15   P2    D    
C1    C12   S    
O7    P7    S    
C45   C52   S    
C52   H19   S    
C18   C31   A    
Ba2   O5    S    
C38   C39   A    
O3    P5    S    
C49   H53   S    
C11   C13   A    
O11   P6    D    
Ba1   P1    S    
H50   N2    S    
C28   H47   S    
Ba1   O16   S    
C50   C51   S    
C48   H4    S    
C47   O12   S    
C14   C20   A    
C4    H26   S    
H49   N1    S    
C26   C29   A    
C32   C41   A    
C45   H17   S    
C22   C24   A    
Ba1   O10   S    
C3    C6    A    
C34   H11   S    
C54   H25   S    
C46   H60   S    
Ba2   O25   S    
C47   H2    S    
C30   C31   A    
O21   P4    S    
C8    C14   A    
C1    H3    S    
C29   P6    S    
C2    C19   A    
C40   N1    S    
C45   O3    S    
C47   H62   S    
C48   H5    S    
C33   C37   A    
C15   C17   A    
C6    H29   S    
C35   C39   A    
C7    C10   A    
C8    C9    A    
C23   C34   S    
O25   P5    S    
Ba2   O4    S    
C51   H58   S    
C18   C19   A    
C47   C48   S    
C11   H28   S    
Ba2   O20   S    
C20   C21   A    
C28   C40   S    
Ba1   P2    S    
C43   H40   S    
C41   P7    S    
C23   N2    S    
O19   P3    S    
C5    C55   A    
C13   P4    S    
O14   P6    S    
C2    C55   A    
C15   C55   A    
C52   H18   S    
C2    H35   S    
C49   O18   S    
