data_mof_unit_30886.cif
_audit_creation_date              2012-12-10T17:11:02-0500
_audit_creation_method            fapswitch 2.2
_symmetry_space_group_name_H-M    P1
_symmetry_Int_Tables_number       1
_space_group_crystal_system       triclinic
_cell_length_a                    10.051052
_cell_length_b                    10.683099
_cell_length_c                    16.68997
_cell_angle_alpha                 90.573472
_cell_angle_beta                  84.760071
_cell_angle_gamma                 93.798569
_cell_volume                      1780.68467077

loop_
_atom_site_label
_atom_site_type_symbol
_atom_type_description
_atom_site_fract_x
_atom_site_fract_y
_atom_site_fract_z
_atom_type_partial_charge
C1    C     C_R   0.505715 0.737176 0.495527 0.972969
C2    C     C_R   0.527253 0.466751 0.259107 -0.151068
C3    C     C_2   0.455901 0.064194 0.444090 0.408524
C4    C     C_R   0.481765 0.508947 0.652752 0.891822
C5    C     C_2   0.475890 0.130367 0.511742 -0.066070
C6    C     C_2   0.433037 0.929183 0.448224 -0.284072
C7    C     C_2   0.524834 0.867792 0.480278 -0.370161
C8    C     C_2   0.069568 0.402976 0.482447 0.101065
C9    C     C_2   0.919981 0.399656 0.500154 0.151310
C10   C     C_R   0.494726 0.262860 0.503179 0.971088
C11   C     C_R   0.517822 0.490151 0.346696 0.922966
C12   C     C_R   0.360400 0.504239 0.787747 -0.255199
C13   C     C_R   0.472331 0.546155 0.736958 -0.100060
C14   C     C_R   0.570775 0.631800 0.765205 0.332385
C15   C     C_R   0.566540 0.658412 0.848406 0.388240
C16   C     C_R   0.458030 0.607855 0.899178 0.004280
C17   C     C_R   0.352502 0.536496 0.868508 -0.253036
C18   C     C_3   0.458272 0.078734 0.597717 -0.538214
C19   C     C_3   0.356261 0.148574 0.652677 -0.323757
C20   C     C_3   0.335197 0.090925 0.736566 -0.843932
C21   C     C_3   0.303925 0.331480 0.274563 -0.346509
C22   C     C_3   0.240569 0.205086 0.246451 -0.373516
C23   C     C_R   0.423334 0.407316 0.135241 0.134481
C24   C     C_3   0.157331 0.134721 0.315343 -0.869348
C25   C     C_3   0.309121 0.354714 0.087394 -0.408702
C26   C     C_3   0.182260 0.427679 0.102764 -0.335419
C27   C     C_3   0.066777 0.366515 0.059809 -0.881913
C28   C     C_R   0.420432 0.399483 0.221014 0.012322
C29   C     C_R   0.643160 0.516637 0.213288 0.437348
C30   C     C_R   0.647473 0.514111 0.130150 -0.286902
C31   C     C_R   0.537405 0.468025 0.092322 -0.019086
C32   C     C_2   0.473975 0.594836 0.984622 0.445974
C33   C     C_2   0.539833 0.497056 0.006788 0.367561
H1    H     H_    0.733627 0.557460 0.094458 0.157062
H2    H     H_    0.294671 0.991900 0.733208 0.263991
H3    H     H_    0.431325 0.094419 0.764756 0.270386
H4    H     H_    0.262698 0.144626 0.774953 0.248528
H5    H     H_    0.392393 0.248273 0.659077 0.216887
H6    H     H_    0.258727 0.144905 0.625923 0.233606
H7    H     H_    0.423165 0.978362 0.600233 0.244585
H8    H     H_    0.557086 0.088184 0.622904 0.217058
H9    H     H_    0.169844 0.629061 0.573310 0.374916
H10   H     H_    0.845623 0.653294 0.449129 0.378064
H11   H     H_    0.117647 0.042583 0.293123 0.260684
H12   H     H_    0.344222 0.882645 0.425906 0.189614
H13   H     H_    0.217589 0.117822 0.366021 0.282954
H14   H     H_    0.071274 0.189420 0.337846 0.253639
H15   H     H_    0.167371 0.220477 0.202685 0.240016
H16   H     H_    0.319654 0.145160 0.219957 0.238612
H17   H     H_    0.342746 0.306847 0.331759 0.264220
H18   H     H_    0.224244 0.397274 0.289623 0.199740
H19   H     H_    0.821236 0.603441 0.209979 0.332877
H20   H     H_    0.641027 0.352628 0.977768 0.338319
H21   H     H_    0.094310 0.362891 0.993900 0.261549
H22   H     H_    0.040736 0.269778 0.082458 0.265420
H23   H     H_    0.617989 0.916199 0.495730 0.170143
H24   H     H_    0.977384 0.422107 0.071296 0.257195
H25   H     H_    0.149683 0.433666 0.167722 0.233593
H26   H     H_    0.203551 0.525044 0.080337 0.254723
H27   H     H_    0.336885 0.357666 0.021674 0.196838
H28   H     H_    0.291315 0.252751 0.096439 0.190048
H29   H     H_    0.370314 0.737481 0.012479 0.334589
H30   H     H_    0.754104 0.717240 0.847414 0.347874
H31   H     H_    0.113793 0.319340 0.458019 0.041081
H32   H     H_    0.866901 0.309210 0.512133 0.046564
H33   H     H_    0.270223 0.496165 0.908498 0.163236
H34   H     H_    0.281890 0.442498 0.765560 0.180057
H35   H     H_    0.697879 0.770775 0.732165 0.332224
H36   H     H_    0.459159 0.058495 0.327669 0.349058
N1    N     N_2   0.147950 0.498670 0.499150 0.076825
N2    N     N_2   0.852290 0.498640 0.499130 0.086466
O1    O     O_R   0.386960 0.680940 0.500010 -0.623102
O2    O     O_3   0.470215 0.123153 0.370059 -0.810076
O3    O     O_3   0.093648 0.577700 0.554166 -0.621518
O4    O     O_3   0.915861 0.595783 0.457853 -0.617194
O5    O     O_3   0.748127 0.574534 0.250892 -0.741747
O6    O     O_3   0.601180 0.420115 0.949404 -0.788392
O7    O     O_3   0.415666 0.674298 0.041397 -0.794959
O8    O     O_3   0.670259 0.723982 0.882787 -0.769682
O9    O     O_R   0.613100 0.680900 0.499990 -0.616506
O10   O     O_R   0.373570 0.500040 0.615810 -0.649794
O11   O     O_R   0.599710 0.500000 0.615790 -0.554210
O12   O     O_R   0.386900 0.319100 0.500010 -0.648565
O13   O     O_R   0.613040 0.319060 0.499990 -0.646387
O14   O     O_R   0.400290 0.500000 0.384210 -0.650444
O15   O     O_R   0.626430 0.499960 0.384190 -0.547525
O16   O     O_3   0.667679 0.688021 0.710620 -0.750041
Zn1   Zn    Zn3+2 0.349000 0.500030 0.500020 0.960849
Zn2   Zn    Zn3+2 0.651000 0.499970 0.499980 1.040680

loop_
_geom_bond_atom_site_label_1
_geom_bond_atom_site_label_2
_ccdc_geom_bond_type
C22   H15   S    
C6    H12   S    
C19   C20   S    
C3    C6    S    
N1    Zn1   S    
C27   H21   S    
C29   O5    S    
H30   O8    S    
C17   H33   S    
O11   Zn2   S    
C2    C29   A    
C14   O16   S    
C30   C31   A    
C27   H22   S    
C11   O15   A    
C15   C16   A    
C10   O12   A    
O9    Zn2   S    
C18   C19   S    
C4    C13   S    
C18   H7    S    
C20   H2    S    
C15   O8    S    
C4    O10   A    
C8    C9    S    
C12   C17   A    
N1    O3    S    
C31   C33   S    
H36   O2    S    
C25   H27   S    
C26   H26   S    
O12   Zn1   S    
C21   C22   S    
C7    H23   S    
C2    C11   S    
C21   H17   S    
O1    Zn1   S    
H10   O4    S    
C12   H34   S    
H9    O3    S    
C1    O1    A    
C30   H1    S    
C27   H24   S    
C18   H8    S    
C16   C17   A    
C5    C18   S    
C3    C5    D    
C25   C26   S    
C23   C31   A    
H20   O6    S    
C29   C30   A    
C19   H5    S    
N2    Zn2   S    
C26   C27   S    
C25   H28   S    
C23   C28   A    
C26   H25   S    
C19   H6    S    
C8    H31   S    
C22   H16   S    
C21   C28   S    
C24   H11   S    
C22   C24   S    
O13   Zn2   S    
C21   H18   S    
O14   Zn1   S    
H35   O16   S    
C1    C7    S    
C24   H14   S    
H29   O7    S    
C9    N2    D    
H19   O5    S    
O15   Zn2   S    
C6    C7    D    
C16   C32   S    
C8    N1    D    
C24   H13   S    
C32   C33   D    
C5    C10   S    
N2    O4    S    
C20   H4    S    
C33   O6    S    
C11   O14   A    
C10   O13   A    
C23   C25   S    
C3    O2    S    
C9    H32   S    
O10   Zn1   S    
C32   O7    S    
C20   H3    S    
C4    O11   A    
C12   C13   A    
C1    O9    A    
C14   C15   A    
C2    C28   A    
C13   C14   A    
