data_mof_unit_25063.cif
_audit_creation_date              2012-10-26T19:52:47-0400
_audit_creation_method            fapswitch 2.2
_symmetry_space_group_name_H-M    P1
_symmetry_Int_Tables_number       1
_space_group_crystal_system       triclinic
_cell_length_a                    15.069738
_cell_length_b                    10.82052
_cell_length_c                    9.539561
_cell_angle_alpha                 89.954962
_cell_angle_beta                  89.925235
_cell_angle_gamma                 89.845933
_cell_volume                      1555.53630079

loop_
_atom_site_label
_atom_site_type_symbol
_atom_type_description
_atom_site_fract_x
_atom_site_fract_y
_atom_site_fract_z
_atom_type_partial_charge
C1    C     C_R   0.497997 0.262371 0.499904 0.552234
C2    C     C_R   0.185531 0.461850 0.381990 -0.096549
C3    C     C_R   0.231951 0.499784 0.501044 -0.018377
C4    C     C_R   0.328691 0.500056 0.500154 0.561535
C5    C     C_R   0.186190 0.536678 0.621905 -0.089537
C6    C     C_R   0.459286 0.063374 0.613725 0.079365
C7    C     C_R   0.489746 0.129342 0.497243 -0.014150
C8    C     C_R   0.508099 0.064596 0.372696 -0.146401
C9    C     C_R   0.508602 0.935950 0.372403 -0.154539
C10   C     C_R   0.492068 0.870829 0.497221 0.004739
C11   C     C_R   0.462362 0.936192 0.614244 0.011525
C12   C     C_R   0.906662 0.535128 0.624164 -0.029232
C13   C     C_3   0.488710 0.929934 0.764908 -0.262085
C14   C     C_3   0.482790 0.070743 0.765743 0.100213
C15   C     C_R   0.540332 0.408418 0.073591 0.219309
C16   C     C_R   0.499162 0.737678 0.499760 0.553588
C17   C     C_R   0.452581 0.586877 0.074469 0.012429
C18   C     C_R   0.452434 0.586675 0.925467 0.018974
C19   C     C_R   0.540311 0.408369 0.926218 0.232552
C20   C     C_3   0.635821 0.373142 0.919560 -0.288963
C21   C     C_3   0.636176 0.374563 0.078376 -0.294859
C22   C     C_R   0.671397 0.499653 0.500146 0.538967
C23   C     C_R   0.954511 0.420674 0.263741 -0.099107
C24   C     C_R   0.814093 0.535776 0.622039 -0.131773
C25   C     C_R   0.768285 0.498773 0.501355 -0.003883
C26   C     C_R   0.815264 0.459842 0.382658 -0.127520
C27   C     C_R   0.907646 0.459195 0.382781 0.024938
C28   C     C_R   0.953752 0.497356 0.503998 0.054788
C29   C     C_R   0.046821 0.420828 0.264043 -0.060616
C30   C     C_R   0.093266 0.460100 0.382977 0.030384
C31   C     C_R   0.046806 0.497826 0.504633 0.025560
C32   C     C_R   0.093261 0.535976 0.626185 -0.002680
C33   C     C_R   0.045347 0.572301 0.747577 0.207262
C34   C     C_R   0.952446 0.571817 0.744546 -0.112362
Cu1   Cu    Cu3+1 0.500000 0.499980 0.640670 1.003700
Cu2   Cu    Cu3+1 0.500000 0.500020 0.359330 0.982330
H1    H     H_    0.777762 0.566357 0.713882 0.117975
H2    H     H_    0.647430 0.282009 0.125874 0.129503
H3    H     H_    0.780153 0.428372 0.290808 0.110031
H4    H     H_    0.677500 0.450412 0.120858 0.141049
H5    H     H_    0.919781 0.390719 0.170374 0.116510
H6    H     H_    0.081918 0.390225 0.171234 0.153347
H7    H     H_    0.221227 0.432579 0.288887 0.170021
H8    H     H_    0.224135 0.567383 0.711195 0.211983
H9    H     H_    0.915335 0.600146 0.836455 0.153072
H10   H     H_    0.527200 0.112708 0.277794 0.162921
H11   H     H_    0.429918 0.033798 0.059985 0.328740
H12   H     H_    0.527058 0.888267 0.276856 0.131696
H13   H     H_    0.142999 0.429831 0.933311 0.335487
H14   H     H_    0.438101 0.882398 0.830147 0.165803
H15   H     H_    0.557568 0.894905 0.778963 0.102594
H16   H     H_    0.547062 0.117450 0.785863 0.091807
H17   H     H_    0.415409 0.656941 0.130304 0.138579
H18   H     H_    0.414867 0.656197 0.869564 0.133345
H19   H     H_    0.645919 0.279438 0.874763 0.125438
H20   H     H_    0.678185 0.446474 0.873348 0.142076
N1    N     N_R   0.500570 0.500930 0.147930 -0.243293
N2    N     N_R   0.500570 0.500890 0.852020 -0.233727
O1    O     O_R   0.500000 0.319640 0.618810 -0.474584
O2    O     O_2   0.310347 0.051456 0.845834 -0.237390
O3    O     O_3   0.419887 0.122567 0.039908 -0.519018
O4    O     O_2   0.148355 0.736580 0.877858 -0.219211
O5    O     O_2   0.032377 0.640061 0.020103 -0.279060
O6    O     O_3   0.171555 0.509562 0.956491 -0.515709
O7    O     O_R   0.500010 0.319680 0.381230 -0.494277
O8    O     O_R   0.370250 0.499950 0.618800 -0.475049
O9    O     O_R   0.370260 0.499990 0.381220 -0.491522
O10   O     O_R   0.499990 0.680320 0.618770 -0.516405
O11   O     O_R   0.500000 0.680360 0.381190 -0.516887
O12   O     O_R   0.629740 0.500010 0.618780 -0.522190
O13   O     O_R   0.629750 0.500050 0.381200 -0.514266
O14   O     O_2   0.372176 0.259523 0.829965 -0.214027
S1    S     S_3+6 0.392119 0.127983 0.869470 0.024411
S2    S     S_3+6 0.098773 0.618611 0.904868 -0.001535

loop_
_geom_bond_atom_site_label_1
_geom_bond_atom_site_label_2
_ccdc_geom_bond_type
C29   H6    S    
Cu1   Cu2   S    
C20   H20   S    
Cu2   O9    S    
C7    C8    A    
C15   C19   A    
C26   C27   A    
C12   C28   A    
Cu1   N2    S    
C23   C29   A    
C1    O1    A    
C30   C31   A    
C26   H3    S    
O2    S1    D    
Cu1   O1    S    
C13   H15   S    
C18   N2    A    
C14   H16   S    
C21   H2    S    
C19   C20   S    
Cu1   O12   S    
C8    C9    A    
C22   C25   S    
C1    O7    A    
C16   O10   A    
C23   C27   A    
C9    C10   A    
Cu2   O13   S    
C5    C32   A    
H13   O6    S    
C13   C14   S    
C15   N1    A    
C20   H19   S    
C33   C34   A    
C19   N2    A    
C14   S1    S    
C24   C25   A    
C24   H1    S    
Cu2   N1    S    
C6    C11   A    
Cu2   O7    S    
Cu1   O8    S    
O3    S1    S    
C25   C26   A    
C29   C30   A    
C6    C14   S    
C31   C32   A    
C2    H7    S    
C17   C18   A    
C34   H9    S    
C5    H8    S    
C12   C34   A    
C3    C4    S    
C17   H17   S    
C22   O13   A    
Cu2   O11   S    
C1    C7    S    
C28   C31   A    
C16   O11   A    
O14   S1    D    
C3    C5    A    
H11   O3    S    
C4    O9    A    
C6    C7    A    
O5    S2    D    
C12   C24   A    
C23   H5    S    
C2    C30   A    
C32   C33   A    
C2    C3    A    
C10   C16   S    
C4    O8    A    
C11   C13   S    
C21   H4    S    
Cu1   O10   S    
C8    H10   S    
C10   C11   A    
C18   H18   S    
C13   H14   S    
C33   S2    S    
C15   C21   S    
C20   C21   S    
C9    H12   S    
C27   C28   A    
O6    S2    S    
O4    S2    D    
C22   O12   A    
C17   N1    A    
