data_mof_unit_58271.cif
_audit_creation_date              2013-03-05T16:36:12-0500
_audit_creation_method            fapswitch 2.2
_symmetry_space_group_name_H-M    P1
_symmetry_Int_Tables_number       1
_space_group_crystal_system       triclinic
_cell_length_a                    27.833964
_cell_length_b                    9.079852
_cell_length_c                    7.780285
_cell_angle_alpha                 90.039305
_cell_angle_beta                  90.000184
_cell_angle_gamma                 89.999802
_cell_volume                      1966.2975342

loop_
_atom_site_label
_atom_site_type_symbol
_atom_site_description
_atom_site_fract_x
_atom_site_fract_y
_atom_site_fract_z
_atom_type_partial_charge
O1    O     O_R   0.500000 0.288390 0.642760 -0.575248
O2    O     O_R   0.500000 0.711610 0.357240 -0.575248
O3    O     O_R   0.500000 0.711610 0.642760 -0.574857
O4    O     O_R   0.500000 0.288390 0.357240 -0.574857
C1    C     C_R   0.500000 0.220022 0.499964 0.853132
C2    C     C_R   0.500000 0.779978 0.500036 0.853132
O5    O     O_R   0.430260 0.500000 0.642770 -0.585698
O6    O     O_R   0.569740 0.500000 0.357230 -0.585704
O7    O     O_R   0.569740 0.500000 0.642770 -0.585704
O8    O     O_R   0.430260 0.500000 0.357230 -0.585698
C3    C     C_R   0.407180 0.500000 0.500000 0.796679
C4    C     C_R   0.592820 0.500000 0.500000 0.796685
Cu1   Cu    Cu3+1 0.500000 0.500000 0.669080 1.007974
Cu2   Cu    Cu3+1 0.500000 0.500000 0.330920 1.007974
C5    C     C_R   0.178016 0.370857 0.527349 0.536947
C6    C     C_R   0.821976 0.629115 0.472433 0.536981
C7    C     C_R   0.178017 0.629134 0.472644 0.536947
C8    C     C_R   0.821975 0.370895 0.527574 0.536982
O9    O     O_2   0.202882 0.245186 0.553242 -0.516501
O10   O     O_2   0.797106 0.754746 0.446282 -0.516452
O11   O     O_2   0.202883 0.754804 0.446750 -0.516500
O12   O     O_2   0.797106 0.245265 0.553726 -0.516452
N1    N     N_R   0.202052 0.499995 0.499997 -0.472521
N2    N     N_R   0.797943 0.500006 0.500003 -0.472580
C9    C     C_R   0.278656 0.490767 0.655441 -0.099417
C10   C     C_R   0.721347 0.508023 0.344448 -0.099531
C11   C     C_R   0.278656 0.509222 0.344554 -0.099416
C12   C     C_R   0.721347 0.491988 0.655557 -0.099529
C13   C     C_R   0.328756 0.491083 0.655672 -0.206025
C14   C     C_R   0.671247 0.507721 0.344221 -0.205891
C15   C     C_R   0.328756 0.508911 0.344325 -0.206024
C16   C     C_R   0.671247 0.492285 0.655782 -0.205891
C17   C     C_R   0.253515 0.499994 0.499997 0.360439
C18   C     C_R   0.746485 0.500007 0.500003 0.360771
C19   C     C_R   0.101921 0.499997 0.499997 -0.043348
C20   C     C_R   0.898071 0.500003 0.500002 -0.043332
C21   C     C_R   0.127577 0.368407 0.527628 -0.020633
C22   C     C_R   0.872415 0.631570 0.472174 -0.020662
C23   C     C_R   0.127578 0.631586 0.472366 -0.020633
C24   C     C_R   0.872414 0.368437 0.527832 -0.020662
C25   C     C_R   0.102531 0.237413 0.554608 -0.145221
C26   C     C_R   0.897461 0.762537 0.444990 -0.145257
C27   C     C_R   0.102532 0.762581 0.445385 -0.145221
C28   C     C_R   0.897460 0.237469 0.555017 -0.145256
C29   C     C_R   0.354271 0.499998 0.499999 -0.037808
C30   C     C_R   0.645731 0.500001 0.500001 -0.037818
H1    H     H_    0.259314 0.516162 0.224024 0.136886
H2    H     H_    0.740691 0.485994 0.776166 0.136681
H3    H     H_    0.259315 0.483825 0.775970 0.136886
H4    H     H_    0.740691 0.514019 0.223839 0.136681
H5    H     H_    0.121422 0.134689 0.575984 0.187073
H6    H     H_    0.878570 0.865236 0.423417 0.187121
H7    H     H_    0.121423 0.865304 0.424007 0.187074
H8    H     H_    0.878569 0.134771 0.576593 0.187121
C31   C     C_R   0.974433 0.365861 0.527880 0.045042
C32   C     C_R   0.025559 0.634149 0.472201 0.045045
C33   C     C_R   0.974433 0.634141 0.472121 0.045042
C34   C     C_R   0.025559 0.365849 0.527796 0.045045
C35   C     C_R   0.949212 0.500002 0.500001 0.067293
C36   C     C_R   0.050780 0.499999 0.499998 0.067286
C37   C     C_R   0.947319 0.235818 0.555058 -0.208263
C38   C     C_R   0.052673 0.764226 0.445294 -0.208221
C39   C     C_R   0.947319 0.764185 0.444947 -0.208263
C40   C     C_R   0.052672 0.235771 0.554700 -0.208221
H9    H     H_    0.963247 0.129654 0.577249 0.132524
H10   H     H_    0.036745 0.870422 0.423357 0.132429
H11   H     H_    0.963248 0.870349 0.422758 0.132524
H12   H     H_    0.036744 0.129576 0.576635 0.132428
C41   C     C_1   0.500000 0.065395 0.499950 -0.166729
C42   C     C_1   0.500000 0.934605 0.500050 -0.166729
N3    N     N_1   0.500000 0.500000 0.076820 -0.049776
N4    N     N_1   0.500000 0.500000 0.923180 -0.049776
H13   H     H_    0.347453 0.515950 0.222499 0.160709
H14   H     H_    0.652551 0.486214 0.777698 0.160668
H15   H     H_    0.347453 0.484045 0.777499 0.160709
H16   H     H_    0.652551 0.513791 0.222304 0.160668

loop_
_geom_bond_atom_site_label_1
_geom_bond_atom_site_label_2
_geom_bond_distance
_ccdc_geom_bond_type
C31   C35   1.422564 A    
Cu2   N3    1.976970 S    
C20   C35   1.423437 A    
C11   C17   1.399823 A    
C5    O9    1.349803 S    
C7    N1    1.366783 A    
O1    C1    1.272287 A    
C40   H12   1.075025 S    
C19   C21   1.408595 A    
C22   C26   1.394698 A    
C10   H4    1.083276 S    
C16   H14   1.083342 S    
C15   H13   1.083242 S    
C34   C36   1.422545 A    
C32   C33   1.423025 A    
C7    C23   1.404093 A    
O7    Cu1   1.951902 S    
C5    C21   1.404095 A    
C20   C24   1.408652 A    
C8    C24   1.404090 A    
C27   H7    1.083656 S    
N1    C17   1.432403 S    
C1    C41   1.403991 S    
C8    N2    1.366785 A    
O3    Cu1   1.932409 S    
C6    O10   1.349848 S    
O3    C2    1.272543 A    
C5    N1    1.366783 A    
C12   C18   1.399897 A    
C6    N2    1.366785 A    
Cu1   Cu2   2.630982 S    
C21   C25   1.394664 A    
O2    C2    1.272287 A    
C10   C18   1.399897 A    
C33   C39   1.417338 A    
C9    C13   1.394483 A    
C39   H11   1.075080 S    
C38   H10   1.075025 S    
C11   C15   1.394483 A    
C12   C16   1.394483 A    
C4    C30   1.472709 S    
O8    Cu2   1.951905 S    
C23   C27   1.394665 A    
C34   C40   1.417281 A    
N2    C18   1.432297 S    
C32   C36   1.422544 A    
C13   C29   1.406416 A    
C19   C36   1.423446 A    
C19   C23   1.408595 A    
C37   H9    1.075080 S    
C14   H16   1.083343 S    
O5    C3    1.283172 A    
O5    Cu1   1.951903 S    
O6    C4    1.283182 A    
C9    C17   1.399823 A    
C10   C14   1.394483 A    
C32   C38   1.417284 A    
C3    C29   1.472670 S    
O1    Cu1   1.932130 S    
C11   H1    1.083178 S    
C2    C42   1.403991 S    
C12   H2    1.083278 S    
O6    Cu2   1.951900 S    
C8    O12   1.349848 S    
C16   C30   1.406566 A    
C14   C30   1.406565 A    
O4    C1    1.272543 A    
C13   H15   1.083244 S    
Cu1   N4    1.976970 S    
C28   C37   1.387846 A    
C20   C22   1.408651 A    
N3    N4    1.195364 T    
C31   C37   1.417340 A    
O4    Cu2   1.932410 S    
C41   C42   1.187552 T    
O2    Cu2   1.932129 S    
O7    C4    1.283182 A    
C9    H3    1.083177 S    
C33   C35   1.422564 A    
O8    C3    1.283173 A    
C28   H8    1.083699 S    
C24   C28   1.394698 A    
C15   C29   1.406418 A    
C31   C34   1.423025 A    
C6    C22   1.404090 A    
C25   C40   1.387843 A    
C26   C39   1.387846 A    
C25   H5    1.083655 S    
C27   C38   1.387843 A    
C26   H6    1.083697 S    
C7    O11   1.349804 S    
