data_mof_unit_54675.cif
_audit_creation_date              2013-03-05T15:49:03-0500
_audit_creation_method            fapswitch 2.2
_symmetry_space_group_name_H-M    P1
_symmetry_Int_Tables_number       1
_space_group_crystal_system       triclinic
_cell_length_a                    18.251869
_cell_length_b                    18.245502
_cell_length_c                    12.054717
_cell_angle_alpha                 90.000258
_cell_angle_beta                  86.353415
_cell_angle_gamma                 89.999225
_cell_volume                      4006.26794041

loop_
_atom_site_label
_atom_site_type_symbol
_atom_site_description
_atom_site_fract_x
_atom_site_fract_y
_atom_site_fract_z
_atom_type_partial_charge
O1    O     O_R   0.418020 0.076820 0.422210 -0.632809
O2    O     O_R   0.581980 0.923180 0.577790 -0.625115
O3    O     O_R   0.581980 0.076820 0.577790 -0.632831
O4    O     O_R   0.418020 0.923180 0.422210 -0.625117
O5    O     O_R   0.918020 0.576820 0.422210 -0.625107
O6    O     O_R   0.081980 0.423180 0.577790 -0.632815
O7    O     O_R   0.081980 0.576820 0.577790 -0.625117
O8    O     O_R   0.918020 0.423180 0.422210 -0.632846
O9    O     O_R   0.430370 0.076830 0.608590 -0.627067
O10   O     O_R   0.569630 0.923170 0.391410 -0.626316
O11   O     O_R   0.569630 0.076830 0.391410 -0.627082
O12   O     O_R   0.430370 0.923170 0.608590 -0.626327
O13   O     O_R   0.930370 0.576830 0.608590 -0.626318
O14   O     O_R   0.069630 0.423170 0.391410 -0.627067
O15   O     O_R   0.069630 0.576830 0.391410 -0.626324
O16   O     O_R   0.930370 0.423170 0.608590 -0.627079
C1    C     C_R   0.400701 0.100842 0.521270 0.900733
C2    C     C_R   0.599209 0.899074 0.478675 0.899810
C3    C     C_R   0.599299 0.100843 0.478730 0.900705
C4    C     C_R   0.400794 0.899071 0.521324 0.899823
C5    C     C_R   0.900793 0.600928 0.521324 0.899806
C6    C     C_R   0.099297 0.399155 0.478730 0.900737
C7    C     C_R   0.099209 0.600927 0.478676 0.899824
C8    C     C_R   0.900699 0.399159 0.521270 0.900701
C9    C     C_R   0.588258 0.997796 0.832308 0.349413
C10   C     C_R   0.411741 0.997836 0.167689 0.349423
C11   C     C_R   0.088259 0.502161 0.832310 0.349428
C12   C     C_R   0.911742 0.502205 0.167692 0.349419
Zn1   Zn    Zn3+2 0.491750 0.000000 0.375560 0.942144
Zn2   Zn    Zn3+2 0.508250 0.000000 0.624440 0.942138
Zn3   Zn    Zn3+2 0.991750 0.500000 0.375560 0.942134
Zn4   Zn    Zn3+2 0.008250 0.500000 0.624440 0.942140
C13   C     C_R   0.596196 0.001143 0.947626 -0.306967
C14   C     C_R   0.403806 0.001191 0.052371 -0.306990
C15   C     C_R   0.096194 0.498807 0.947628 -0.306966
C16   C     C_R   0.903804 0.498858 0.052374 -0.306966
C17   C     C_R   0.458455 0.002792 0.862040 -0.091983
C18   C     C_R   0.541548 0.002762 0.137960 -0.091993
C19   C     C_R   0.958452 0.497239 0.862040 -0.091990
C20   C     C_R   0.041545 0.497206 0.137960 -0.091982
C21   C     C_R   0.654621 0.156577 0.466016 -0.111923
C22   C     C_R   0.344961 0.843866 0.534527 -0.107713
C23   C     C_R   0.345368 0.156566 0.533989 -0.111914
C24   C     C_R   0.655055 0.843882 0.465469 -0.107682
C25   C     C_R   0.155051 0.656123 0.465472 -0.107717
C26   C     C_R   0.845370 0.343432 0.533987 -0.111925
C27   C     C_R   0.844953 0.656126 0.534530 -0.107677
C28   C     C_R   0.154621 0.343423 0.466012 -0.111913
C29   C     C_R   0.250140 0.782793 0.648235 0.209431
C30   C     C_R   0.736658 0.230968 0.348919 0.209255
C31   C     C_R   0.749956 0.782893 0.351799 0.209435
C32   C     C_R   0.263208 0.230835 0.651088 0.209257
C33   C     C_R   0.763328 0.269046 0.651085 0.209254
C34   C     C_R   0.249883 0.717184 0.351763 0.209432
C35   C     C_R   0.236772 0.269146 0.348913 0.209257
C36   C     C_R   0.750057 0.717120 0.648198 0.209434
C37   C     C_R   0.307648 0.832624 0.637726 -0.199501
C38   C     C_R   0.681768 0.178441 0.360386 -0.199594
C39   C     C_R   0.692429 0.832705 0.362299 -0.199505
C40   C     C_R   0.318128 0.178337 0.639622 -0.199584
C41   C     C_R   0.818220 0.321570 0.639617 -0.199596
C42   C     C_R   0.192368 0.667361 0.362273 -0.199507
C43   C     C_R   0.181860 0.321651 0.360379 -0.199582
C44   C     C_R   0.807581 0.667305 0.637700 -0.199503
C45   C     C_R   0.327445 0.804446 0.441347 -0.287826
C46   C     C_R   0.680828 0.186995 0.561439 -0.286185
C47   C     C_R   0.672529 0.804419 0.558622 -0.287836
C48   C     C_R   0.319233 0.187055 0.438565 -0.286217
C49   C     C_R   0.819161 0.313018 0.438565 -0.286189
C50   C     C_R   0.172574 0.695536 0.558650 -0.287825
C51   C     C_R   0.180747 0.312925 0.561436 -0.286212
C52   C     C_R   0.827483 0.695594 0.441374 -0.287825
C53   C     C_R   0.269652 0.755374 0.447692 0.121813
C54   C     C_R   0.735840 0.238918 0.553752 0.121031
C55   C     C_R   0.730336 0.755360 0.552288 0.121823
C56   C     C_R   0.264192 0.238950 0.446251 0.121034
C57   C     C_R   0.764147 0.261096 0.446253 0.121032
C58   C     C_R   0.230371 0.744603 0.552305 0.121818
C59   C     C_R   0.235786 0.261029 0.553751 0.121031
C60   C     C_R   0.769677 0.744653 0.447708 0.121815
N1    N     N_R   0.480750 0.000000 0.209750 -0.101244
N2    N     N_R   0.519250 1.000000 0.790250 -0.101242
N3    N     N_R   0.980750 0.500000 0.209750 -0.101243
N4    N     N_R   0.019250 0.500000 0.790250 -0.101241
H1    H     H_    0.595248 0.003501 0.171335 0.129374
H2    H     H_    0.404755 0.003560 0.828666 0.129364
H3    H     H_    0.095245 0.496437 0.171334 0.129363
H4    H     H_    0.904753 0.496502 0.828665 0.129373
H5    H     H_    0.658022 0.169632 0.642147 0.187781
H6    H     H_    0.359163 0.812901 0.363537 0.180210
H7    H     H_    0.342116 0.169767 0.357860 0.187761
H8    H     H_    0.640765 0.812830 0.636403 0.180191
H9    H     H_    0.140857 0.687080 0.636459 0.180215
H10   H     H_    0.841967 0.330382 0.357860 0.187792
H11   H     H_    0.859248 0.687184 0.363593 0.180188
H12   H     H_    0.157859 0.330210 0.642140 0.187766
H13   H     H_    0.660563 0.154154 0.286875 0.163902
H14   H     H_    0.322454 0.863788 0.709548 0.160255
H15   H     H_    0.339278 0.153993 0.713133 0.163865
H16   H     H_    0.677657 0.863908 0.290500 0.160221
H17   H     H_    0.177558 0.636200 0.290452 0.160256
H18   H     H_    0.839426 0.345858 0.713126 0.163902
H19   H     H_    0.822352 0.636101 0.709502 0.160220
H20   H     H_    0.160715 0.346001 0.286869 0.163865
H21   H     H_    0.650276 0.999561 0.979991 0.143901
H22   H     H_    0.349726 0.999645 0.020004 0.143891
H23   H     H_    0.150274 0.500352 0.979995 0.143895
H24   H     H_    0.849723 0.500442 0.020011 0.143903
C61   C     C_R   0.465192 0.003056 0.978443 0.050042
C62   C     C_R   0.534811 0.003036 0.021557 0.050035
C63   C     C_R   0.965189 0.496964 0.978444 0.050033
C64   C     C_R   0.034808 0.496943 0.021557 0.050034
C65   C     C_3   0.342194 0.987351 0.240126 -0.836419
H25   H     H_    0.292669 0.993123 0.191803 0.193852
H26   H     H_    0.339880 0.931052 0.273851 0.244524
H27   H     H_    0.335662 0.028667 0.306255 0.260067
C66   C     C_3   0.657792 0.987256 0.759869 -0.836487
H28   H     H_    0.707326 0.993068 0.808160 0.193875
H29   H     H_    0.660090 0.930933 0.726245 0.244499
H30   H     H_    0.664310 0.028512 0.693659 0.260125
C67   C     C_3   0.842210 0.512757 0.240131 -0.836510
H31   H     H_    0.792674 0.506922 0.191852 0.193885
H32   H     H_    0.835699 0.471528 0.306376 0.260156
H33   H     H_    0.839911 0.569091 0.273713 0.244472
C68   C     C_3   0.157803 0.512643 0.759874 -0.836533
H34   H     H_    0.207330 0.506864 0.808185 0.193867
H35   H     H_    0.164325 0.471336 0.693745 0.260104
H36   H     H_    0.160118 0.568936 0.726157 0.244535
C69   C     C_3   0.735409 0.246617 0.766895 -0.946368
H37   H     H_    0.764165 0.276120 0.832041 0.243089
H38   H     H_    0.675964 0.259281 0.779605 0.245621
H39   H     H_    0.744427 0.187009 0.778771 0.244456
C70   C     C_3   0.288944 0.728049 0.238594 -0.944736
H40   H     H_    0.264829 0.693854 0.173910 0.242794
H41   H     H_    0.284626 0.786272 0.212887 0.243315
H42   H     H_    0.347639 0.712545 0.241338 0.245066
C71   C     C_3   0.264790 0.246815 0.233101 -0.946340
H43   H     H_    0.236073 0.276358 0.167951 0.243079
H44   H     H_    0.324235 0.259510 0.220518 0.245610
H45   H     H_    0.255808 0.187212 0.221101 0.244457
C72   C     C_3   0.710933 0.727919 0.761332 -0.944749
H46   H     H_    0.735018 0.693692 0.826005 0.242794
H47   H     H_    0.715224 0.786128 0.787118 0.243318
H48   H     H_    0.652248 0.712411 0.758492 0.245068
C73   C     C_3   0.211086 0.771921 0.761405 -0.944750
H49   H     H_    0.235205 0.806112 0.826089 0.242796
H50   H     H_    0.152391 0.787424 0.758669 0.245068
H51   H     H_    0.215405 0.713697 0.787101 0.243321
C74   C     C_3   0.764575 0.253399 0.233110 -0.946366
H52   H     H_    0.735818 0.223897 0.167963 0.243088
H53   H     H_    0.755557 0.313007 0.221238 0.244458
H54   H     H_    0.824020 0.240736 0.220398 0.245622
C75   C     C_3   0.789083 0.772097 0.238664 -0.944740
H55   H     H_    0.764999 0.806324 0.173991 0.242794
H56   H     H_    0.847769 0.787607 0.241507 0.245065
H57   H     H_    0.784794 0.713888 0.212874 0.243313
C76   C     C_3   0.235190 0.253165 0.766901 -0.946333
H58   H     H_    0.263908 0.223624 0.832051 0.243077
H59   H     H_    0.244168 0.312769 0.778900 0.244460
H60   H     H_    0.175744 0.240466 0.779484 0.245608

loop_
_geom_bond_atom_site_label_1
_geom_bond_atom_site_label_2
_geom_bond_distance
_ccdc_geom_bond_type
C44   H19   1.084289 S    
C6    C28   1.434368 S    
C76   H58   1.111041 S    
C7    C25   1.434493 S    
C16   H24   1.084586 S    
C66   H28   1.111048 S    
O13   Zn4   2.014096 S    
C49   C57   1.379296 A    
C33   C54   1.416141 A    
C30   C74   1.511822 S    
C56   C59   1.422998 A    
O14   Zn3   2.014097 S    
C40   H15   1.084014 S    
C51   C59   1.379294 A    
C73   H49   1.111138 S    
C45   C53   1.382002 A    
C20   C64   1.416356 A    
C71   H44   1.110379 S    
O11   C3    1.290629 A    
C20   H3    1.082980 S    
C11   N4    1.387921 A    
C19   N4    1.364069 A    
C65   H25   1.111063 S    
C66   H29   1.104504 S    
O7    C7    1.293094 A    
O2    C2    1.293090 A    
C24   C39   1.394890 A    
C46   C54   1.379287 A    
C25   C42   1.394913 A    
C48   H7    1.081080 S    
Zn3   N3    2.021517 S    
C29   C58   1.416356 A    
C33   C69   1.511830 S    
C31   C60   1.416335 A    
C67   H33   1.104510 S    
C32   C40   1.386986 A    
C52   H11   1.081513 S    
C33   C41   1.386982 A    
C10   C14   1.408112 A    
C63   C64   1.403116 A    
C23   C48   1.389247 A    
C26   C49   1.389212 A    
C54   C57   1.422947 A    
C35   C43   1.386984 A    
C68   H36   1.104423 S    
C53   C58   1.424059 A    
C36   C44   1.388341 A    
O3    C3    1.292283 A    
C75   H56   1.110512 S    
C32   C59   1.416164 A    
C55   C60   1.424055 A    
C17   C61   1.416356 A    
O4    Zn1   1.998878 S    
C65   H27   1.098123 S    
O15   C7    1.289819 A    
C76   H59   1.110618 S    
C36   C55   1.416341 A    
C12   N3    1.387907 A    
C39   H16   1.084265 S    
C20   N3    1.364060 A    
C38   H13   1.084001 S    
C19   H4    1.082980 S    
C69   H39   1.110594 S    
C22   C37   1.394900 A    
C73   H50   1.110511 S    
C46   H5    1.081044 S    
C45   H6    1.081512 S    
Zn4   N4    2.021517 S    
C71   H45   1.110614 S    
C26   C41   1.394921 A    
O13   C5    1.289809 A    
C30   C38   1.386981 A    
C17   H2    1.082978 S    
C50   H9    1.081498 S    
C13   H21   1.084586 S    
C49   H10   1.081033 S    
C72   H48   1.110497 S    
C27   C44   1.394881 A    
C12   C67   1.506395 S    
C28   C43   1.394954 A    
C51   H12   1.081079 S    
C34   C42   1.388349 A    
C11   C15   1.408111 A    
C18   C62   1.416364 A    
C34   C70   1.511611 S    
C65   H26   1.104545 S    
C72   H47   1.110768 S    
C14   H22   1.084588 S    
C74   H54   1.110354 S    
Zn2   N2    2.021517 S    
O3    Zn2   1.998877 S    
C1    C23   1.434371 S    
Zn1   N1    2.021517 S    
C2    C24   1.434463 S    
C70   H42   1.110528 S    
C34   C53   1.416351 A    
C18   H1    1.082980 S    
O12   C4    1.289818 A    
C16   C63   1.386985 A    
O1    Zn1   1.998848 S    
C9    N2    1.387912 A    
C29   C73   1.511582 S    
C75   H57   1.110781 S    
C12   C16   1.408116 A    
C67   H31   1.111033 S    
O9    Zn2   2.014096 S    
C35   C56   1.416163 A    
C23   C40   1.394955 A    
O9    C1    1.290620 A    
C10   N1    1.387931 A    
C18   N1    1.364070 A    
C70   H40   1.111138 S    
C17   N2    1.364058 A    
C66   H30   1.098055 S    
C31   C39   1.388352 A    
C36   C72   1.511560 S    
C28   C51   1.389245 A    
C30   C57   1.416147 A    
C73   H51   1.110779 S    
C68   H35   1.097987 S    
C69   H37   1.111030 S    
C50   C58   1.382003 A    
C32   C76   1.511868 S    
C22   C45   1.388125 A    
C31   C75   1.511582 S    
O7    Zn4   1.998877 S    
O12   Zn2   2.014123 S    
C25   C50   1.388081 A    
O8    Zn3   1.998878 S    
C43   H20   1.084014 S    
C9    C66   1.506397 S    
C21   C38   1.394915 A    
C29   C37   1.388335 A    
C4    C22   1.434484 S    
O15   Zn3   2.014121 S    
C21   C46   1.389244 A    
C76   H60   1.110382 S    
C48   C56   1.379293 A    
C71   H43   1.111038 S    
O1    C1    1.292280 A    
C35   C71   1.511864 S    
O2    Zn2   1.998849 S    
C8    C26   1.434385 S    
C42   H17   1.084275 S    
C74   H53   1.110590 S    
C41   H18   1.083984 S    
C10   C65   1.506444 S    
C52   C60   1.382010 A    
C74   H52   1.111033 S    
C11   C68   1.506390 S    
O10   Zn1   2.014097 S    
O14   C6    1.290616 A    
C68   H34   1.111026 S    
O10   C2    1.289809 A    
O16   Zn4   2.014123 S    
C37   H14   1.084301 S    
C19   C63   1.416365 A    
C47   H8    1.081502 S    
O8    C8    1.292279 A    
C5    C27   1.434466 S    
C27   C52   1.388102 A    
C67   H32   1.098020 S    
C15   H23   1.084584 S    
O4    C4    1.293094 A    
C47   C55   1.382016 A    
O11   Zn1   2.014121 S    
O16   C8    1.290628 A    
O6    Zn4   1.998849 S    
O5    C5    1.293092 A    
C61   C62   1.403115 A    
C70   H41   1.110793 S    
C14   C61   1.386966 A    
C24   C47   1.388060 A    
C13   C62   1.386977 A    
C69   H38   1.110357 S    
C75   H55   1.111126 S    
C72   H46   1.111126 S    
C15   C64   1.386968 A    
C3    C21   1.434393 S    
C9    C13   1.408117 A    
O5    Zn3   1.998848 S    
O6    C6    1.292282 A    
