data_mof_unit_56286.cif
_audit_creation_date              2012-12-10T17:23:09-0500
_audit_creation_method            fapswitch 2.2
_symmetry_space_group_name_H-M    P1
_symmetry_Int_Tables_number       1
_space_group_crystal_system       triclinic
_cell_length_a                    15.853858
_cell_length_b                    10.841605
_cell_length_c                    9.644569
_cell_angle_alpha                 90.86117
_cell_angle_beta                  90.054135
_cell_angle_gamma                 92.994812
_cell_volume                      1655.26725975

loop_
_atom_site_label
_atom_site_type_symbol
_atom_type_description
_atom_site_fract_x
_atom_site_fract_y
_atom_site_fract_z
_atom_type_partial_charge
C1    C     C_R   0.489223 0.262539 0.499502 0.795279
C2    C     C_3   0.082911 0.502213 0.500210 0.139387
C3    C     C_3   0.973830 0.555595 0.618107 -0.138961
C4    C     C_3   0.917172 0.502415 0.499946 0.171351
C5    C     C_3   0.032329 0.619358 0.508826 -0.166413
C6    C     C_3   0.973990 0.566413 0.390484 -0.195109
C7    C     C_1   0.174704 0.501522 0.500180 -0.049356
C8    C     C_1   0.825423 0.502208 0.500206 -0.060535
C9    C     C_R   0.422193 0.130246 0.745134 -0.166602
C10   C     C_R   0.437674 0.084213 0.875094 -0.192501
C11   C     C_R   0.460823 0.963346 0.884767 -0.010820
C12   C     C_R   0.340036 0.499718 0.499943 0.814543
C13   C     C_R   0.450244 0.884209 0.769617 -0.059211
C14   C     C_R   0.455868 0.936217 0.634485 0.031271
C15   C     C_R   0.448474 0.065932 0.626108 0.094607
C16   C     C_R   0.467838 0.127801 0.500857 -0.114872
C17   C     C_R   0.470185 0.058375 0.378097 -0.174406
C18   C     C_R   0.466374 0.930222 0.382585 -0.182360
C19   C     C_R   0.469955 0.868381 0.508628 -0.119918
C20   C     C_R   0.620780 0.651584 0.145492 -0.156114
C21   C     C_R   0.683690 0.718688 0.074727 -0.166427
C22   C     C_R   0.682345 0.721899 0.931113 0.185049
C23   C     C_R   0.490557 0.736486 0.502270 0.776804
C24   C     C_R   0.618793 0.654266 0.859045 -0.155446
C25   C     C_R   0.559161 0.574578 0.926655 0.160595
C26   C     C_R   0.559394 0.574265 0.075769 0.186733
C27   C     C_R   0.442880 0.429886 0.071860 0.045645
C28   C     C_R   0.441980 0.432585 0.924728 -0.061736
C29   C     C_R   0.659960 0.500601 0.500099 0.821777
C30   C     C_3   0.967428 0.384974 0.491263 -0.190889
C31   C     C_3   0.025506 0.449889 0.383870 0.022115
C32   C     C_1   0.250290 0.500649 0.499983 -0.137578
C33   C     C_1   0.749780 0.501578 0.500248 -0.175199
C34   C     C_3   0.025741 0.438399 0.609338 -0.159193
Cu1   Cu    Cu3+1 0.499990 0.499990 0.640660 0.946826
Cu2   Cu    Cu3+1 0.500010 0.500010 0.359340 0.955812
H1    H     H_    0.464490 0.878329 0.286837 0.196194
H2    H     H_    0.621257 0.667796 0.254393 0.204149
H3    H     H_    0.730470 0.774503 0.133003 0.148894
H4    H     H_    0.617572 0.669472 0.750573 0.204125
H5    H     H_    0.392544 0.381146 0.868985 0.125072
H6    H     H_    0.939776 0.288913 0.483175 0.140581
H7    H     H_    0.951657 0.618201 0.300251 0.138500
H8    H     H_    0.060113 0.715353 0.516394 0.143708
H9    H     H_    0.951009 0.599325 0.714911 0.137365
H10   H     H_    0.048124 0.386269 0.699247 0.150977
H11   H     H_    0.477071 0.102831 0.278619 0.173881
H12   H     H_    0.394978 0.218543 0.737995 0.152794
H13   H     H_    0.434950 0.143496 0.966146 0.142257
N1    N     N_R   0.500800 0.501210 0.147910 -0.215521
N2    N     N_R   0.500830 0.501290 0.852040 -0.191505
O1    O     O_R   0.499990 0.319640 0.618810 -0.580379
O2    O     O_R   0.500000 0.319660 0.381240 -0.573651
O3    O     O_R   0.379070 0.499980 0.618770 -0.571864
O4    O     O_R   0.379080 0.500000 0.381190 -0.567739
O5    O     O_R   0.500000 0.680340 0.618760 -0.604470
O6    O     O_R   0.500010 0.680360 0.381190 -0.596509
O7    O     O_R   0.620920 0.500000 0.618810 -0.585879
O8    O     O_R   0.620930 0.500020 0.381230 -0.589996
C35   C     C_1   0.054683 0.392029 0.255335 0.231623
N3    N     N_1   0.077765 0.346440 0.153982 -0.275714
C36   C     C_1   0.510623 0.929518 0.000577 0.220500
N4    N     N_1   0.554029 0.905623 0.091307 -0.313034
C37   C     C_1   0.397387 0.774547 0.796281 0.289222
N5    N     N_1   0.353912 0.688381 0.819771 -0.264492
C38   C     C_1   0.381651 0.349212 0.139986 0.278638
N6    N     N_1   0.332291 0.283796 0.193937 -0.294322
C39   C     C_3   0.746130 0.801308 0.853343 -0.868244
H14   H     H_    0.792286 0.850046 0.924546 0.235846
H15   H     H_    0.781291 0.742893 0.780189 0.228170
H16   H     H_    0.713322 0.871473 0.793739 0.236676

loop_
_geom_bond_atom_site_label_1
_geom_bond_atom_site_label_2
_ccdc_geom_bond_type
C2    C7    S    
C4    C8    S    
Cu2   O8    S    
C23   O5    A    
C35   N3    T    
Cu1   O7    S    
C18   H1    S    
C26   N1    A    
C5    C6    S    
C28   N2    A    
C15   C16   A    
C29   C33   S    
C28   H5    S    
C18   C19   A    
C1    O2    A    
Cu2   O2    S    
C29   O8    A    
C39   H14   S    
C34   H10   S    
C9    C10   A    
C27   N1    A    
C11   C36   S    
C6    C31   S    
C13   C14   A    
C12   C32   S    
Cu1   O3    S    
C30   C34   S    
C24   C25   A    
C4    C6    S    
Cu2   O6    S    
C16   C17   A    
C3    C34   S    
C25   C26   A    
C3    H9    S    
C2    C31   S    
Cu1   Cu2   S    
C31   C35   S    
C19   C23   S    
C25   N2    A    
C36   N4    T    
C20   H2    S    
C21   H3    S    
C17   C18   A    
C1    C16   S    
C29   O7    A    
C22   C39   S    
C5    H8    S    
C6    H7    S    
Cu1   N2    S    
C22   C24   A    
C2    C5    S    
C3    C4    S    
Cu1   O1    S    
Cu2   N1    S    
C23   O6    A    
C7    C32   T    
Cu1   O5    S    
C14   C19   A    
C17   H11   S    
C3    C5    S    
C37   N5    T    
C9    C15   A    
C27   C38   S    
C11   C13   A    
C2    C34   S    
C30   C31   S    
C13   C37   S    
C20   C26   A    
C39   H16   S    
C24   H4    S    
C38   N6    T    
C8    C33   T    
C1    O1    A    
C12   O3    A    
C12   O4    A    
C10   C11   A    
C20   C21   A    
C9    H12   S    
C39   H15   S    
C27   C28   A    
Cu2   O4    S    
C14   C15   A    
C30   H6    S    
C21   C22   A    
C10   H13   S    
C4    C30   S    
