data_mof_unit_23064.cif
_audit_creation_date              2012-12-10T17:49:36-0500
_audit_creation_method            fapswitch 2.2
_symmetry_space_group_name_H-M    P1
_symmetry_Int_Tables_number       1
_space_group_crystal_system       triclinic
_cell_length_a                    10.588446
_cell_length_b                    10.745199
_cell_length_c                    10.014313
_cell_angle_alpha                 92.986308
_cell_angle_beta                  91.381454
_cell_angle_gamma                 94.46531
_cell_volume                      1133.92309706

loop_
_atom_site_label
_atom_site_type_symbol
_atom_type_description
_atom_site_fract_x
_atom_site_fract_y
_atom_site_fract_z
_atom_type_partial_charge
C1    C     C_R   0.502984 0.260958 0.497040 0.895991
C2    C     C_3   0.961740 0.614773 0.426895 -0.266239
C3    C     C_3   0.034142 0.504919 0.371915 0.008553
C4    C     C_3   0.123867 0.519639 0.495323 -0.120774
C5    C     C_R   0.723030 0.161316 0.611450 -0.287249
C6    C     C_R   0.821924 0.114569 0.682597 0.479672
C7    C     C_R   0.817435 0.987404 0.704846 -0.173947
C8    C     C_R   0.708425 0.909427 0.664564 0.388902
C9    C     C_R   0.615362 0.952705 0.577093 -0.025007
C10   C     C_R   0.619462 0.081904 0.558639 -0.038531
C11   C     C_R   0.516747 0.129749 0.492011 -0.083033
C12   C     C_R   0.258367 0.507240 0.498647 0.910088
C13   C     C_R   0.417696 0.052053 0.433700 -0.190671
C14   C     C_R   0.417884 0.925198 0.440777 -0.186145
C15   C     C_R   0.514197 0.874655 0.512369 -0.044329
C16   C     C_R   0.378135 0.296347 0.123245 0.459492
C17   C     C_R   0.389901 0.181898 0.053842 0.319136
C18   C     C_R   0.379264 0.177598 0.915407 -0.317279
C19   C     C_R   0.373988 0.292666 0.850589 0.458273
C20   C     C_R   0.432808 0.402630 0.921336 0.012713
C21   C     C_R   0.433298 0.403757 0.065552 -0.060024
C22   C     C_R   0.574515 0.583410 0.077770 -0.089243
C23   C     C_R   0.509520 0.740316 0.504088 0.862527
C24   C     C_R   0.578557 0.578845 0.935735 -0.130168
C25   C     C_R   0.742015 0.509609 0.501638 0.849525
C26   C     C_3   0.037214 0.427174 0.571094 -0.240919
C27   C     C_3   0.948198 0.411922 0.446083 -0.009132
C28   C     C_3   0.877183 0.520288 0.502592 -0.070652
C29   C     C_3   0.966709 0.538406 0.625160 0.013193
C30   C     C_3   0.053623 0.629710 0.550037 -0.011290
H1    H     H_    0.340602 0.865933 0.392446 0.165364
H2    H     H_    0.636918 0.651550 0.135630 0.134731
H3    H     H_    0.651114 0.634335 0.888661 0.201319
H4    H     H_    0.062682 0.357898 0.641346 0.228418
H5    H     H_    0.927395 0.691569 0.369149 0.151131
H6    H     H_    0.337947 0.090225 0.386396 0.186896
H7    H     H_    0.729025 0.260499 0.597719 0.176255
N1    N     N_R   0.498800 0.498800 0.142780 -0.081205
N2    N     N_R   0.498760 0.498720 0.857170 -0.084455
O1    O     O_R   0.500000 0.316780 0.614690 -0.591071
O2    O     O_R   0.499990 0.316750 0.385360 -0.575127
O3    O     O_R   0.313960 0.499980 0.614650 -0.548662
O4    O     O_R   0.313940 0.499960 0.385310 -0.561019
O5    O     O_R   0.500010 0.683250 0.614640 -0.556232
O6    O     O_R   0.500000 0.683220 0.385310 -0.643885
O7    O     O_R   0.686060 0.500040 0.614690 -0.628410
O8    O     O_R   0.686040 0.500020 0.385350 -0.629228
Zn1   Zn    Zn3+2 0.500010 0.500020 0.653130 1.025078
Zn2   Zn    Zn3+2 0.499990 0.499980 0.346870 0.998394
C31   C     C_1   0.892021 0.293246 0.383014 0.133921
N3    N     N_1   0.848270 0.200083 0.332192 -0.241739
C32   C     C_1   0.912781 0.941571 0.791276 0.270837
N4    N     N_1   0.988417 0.905343 0.861630 -0.188034
O9    O     O_3   0.675100 0.811878 0.743584 -0.596067
C33   C     C_3   0.630054 0.862450 0.866101 -0.291833
H8    H     H_    0.537264 0.813560 0.887020 0.214655
H9    H     H_    0.615383 0.964010 0.868094 0.142265
H10   H     H_    0.698098 0.847966 0.948874 0.152342
O10   O     O_3   0.311560 0.303603 0.239935 -0.549065
C34   C     C_3   0.192760 0.233351 0.225512 -0.298908
H11   H     H_    0.202065 0.131264 0.221206 0.196280
H12   H     H_    0.138512 0.257396 0.135207 0.159113
H13   H     H_    0.137204 0.254462 0.314869 0.172809
O11   O     O_3   0.402189 0.074410 0.121293 -0.591548
C35   C     C_3   0.532922 0.065085 0.146329 -0.272874
H14   H     H_    0.589432 0.075319 0.055129 0.121887
H15   H     H_    0.571255 0.137411 0.222857 0.194839
H16   H     H_    0.546767 0.971758 0.184126 0.195860
C36   C     C_1   0.374812 0.055481 0.847655 0.268820
N5    N     N_1   0.370324 0.957114 0.794420 -0.185443
O12   O     O_3   0.301691 0.307439 0.734865 -0.558866
C37   C     C_3   0.234705 0.198289 0.676936 -0.241741
H17   H     H_    0.164506 0.157589 0.746431 0.209263
H18   H     H_    0.185260 0.220490 0.583788 0.155842
H19   H     H_    0.299340 0.130462 0.639486 0.164754
C38   C     C_1   0.931526 0.560325 0.764842 0.237889
N6    N     N_1   0.904202 0.578010 0.874977 -0.215921
C39   C     C_1   0.114125 0.751413 0.597829 0.163363
N7    N     N_1   0.161631 0.848279 0.633383 -0.197850
C40   C     C_1   0.068634 0.498127 0.230727 0.218084
N8    N     N_1   0.095536 0.494637 0.119356 -0.200285
O13   O     O_3   0.920615 0.194688 0.736059 -0.641104
C41   C     C_3   0.882138 0.250248 0.857623 -0.337111
H20   H     H_    0.854420 0.178716 0.930268 0.160323
H21   H     H_    0.803027 0.310509 0.840872 0.182700
H22   H     H_    0.963366 0.310450 0.903214 0.210818

loop_
_geom_bond_atom_site_label_1
_geom_bond_atom_site_label_2
_ccdc_geom_bond_type
C2    H5    S    
C33   H8    S    
C16   C21   A    
C6    O13   S    
C5    H7    S    
C19   O12   S    
C19   C20   A    
C1    C11   S    
C14   H1    S    
C7    C8    A    
O8    Zn2   S    
C29   C38   S    
C25   C28   S    
C26   C27   S    
C22   H2    S    
C34   H13   S    
C23   O6    A    
C28   C29   S    
C7    C32   S    
C12   O4    A    
C17   O11   S    
C5    C6    A    
C40   N8    T    
C22   N1    A    
C24   N2    A    
C34   H12   S    
C18   C19   A    
C12   O3    A    
C1    O1    A    
C26   H4    S    
C21   N1    A    
C8    C9    A    
C35   H15   S    
C4    C12   S    
C9    C10   A    
C25   O8    A    
C27   C31   S    
C18   C36   S    
C15   C23   S    
O10   C34   S    
C13   C14   A    
C37   H19   S    
C3    C40   S    
O2    Zn2   S    
C17   C18   A    
O7    Zn1   S    
C38   N6    T    
C13   H6    S    
C37   H18   S    
C8    O9    S    
N1    Zn2   S    
C20   N2    A    
C39   N7    T    
O4    Zn2   S    
C23   O5    A    
C34   H11   S    
C16   O10   S    
C29   C30   S    
C41   H20   S    
O6    Zn2   S    
C35   H16   S    
C31   N3    T    
O3    Zn1   S    
C1    O2    A    
C41   H21   S    
C35   H14   S    
C33   H9    S    
C22   C24   A    
C3    C4    S    
C32   N4    T    
O1    Zn1   S    
O9    C33   S    
C37   H17   S    
C4    C26   S    
C6    C7    A    
C24   H3    S    
C2    C30   S    
O11   C35   S    
C3    C27   S    
C2    C3    S    
C9    C15   A    
O12   C37   S    
C11   C13   A    
C16   C17   A    
C36   N5    T    
C10   C11   A    
C30   C39   S    
C5    C10   A    
C41   H22   S    
C20   C21   A    
C26   C29   S    
O13   C41   S    
C33   H10   S    
C27   C28   S    
C14   C15   A    
C2    C28   S    
C25   O7    A    
C4    C30   S    
O5    Zn1   S    
N2    Zn1   S    
