data_mof_unit_5170.cif
_audit_creation_date              2012-10-26T21:12:32-0400
_audit_creation_method            fapswitch 2.2
_symmetry_space_group_name_H-M    P1
_symmetry_Int_Tables_number       1
_space_group_crystal_system       triclinic
_cell_length_a                    23.503581
_cell_length_b                    10.867123
_cell_length_c                    9.582912
_cell_angle_alpha                 91.159058
_cell_angle_beta                  90.447234
_cell_angle_gamma                 92.970446
_cell_volume                      2443.74712021

loop_
_atom_site_label
_atom_site_type_symbol
_atom_type_description
_atom_site_fract_x
_atom_site_fract_y
_atom_site_fract_z
_atom_type_partial_charge
Br1   Br    Br    0.199425 0.448952 0.193757 -0.439464
C1    C     C_R   0.504696 0.263502 0.499054 0.546338
C2    C     C_R   0.121634 0.596463 0.445938 0.439758
C3    C     C_R   0.238585 0.477839 0.368503 0.219739
C4    C     C_R   0.390944 0.499209 0.499454 0.565226
C5    C     C_R   0.298010 0.479809 0.371048 -0.110609
C6    C     C_R   0.328228 0.497709 0.497622 -0.028240
C7    C     C_R   0.297996 0.513443 0.622039 -0.145258
C8    C     C_R   0.238653 0.512337 0.619629 -0.080225
C9    C     C_R   0.208706 0.494953 0.493266 0.245604
C10   C     C_R   0.756703 0.410734 0.412804 -0.068560
C11   C     C_R   0.697448 0.412240 0.416297 -0.188916
C12   C     C_R   0.964984 0.290096 0.587459 -0.116023
C13   C     C_R   0.671032 0.500349 0.498791 0.017783
C14   C     C_R   0.704546 0.590604 0.573927 0.252694
C15   C     C_R   0.763902 0.586619 0.572746 -0.027094
C16   C     C_R   0.498383 0.738138 0.502475 0.538199
C17   C     C_R   0.790212 0.497327 0.491839 0.186764
C18   C     C_R   0.557683 0.132375 0.731566 -0.078744
C19   C     C_R   0.562834 0.077340 0.861764 0.280304
C20   C     C_R   0.536027 0.962187 0.882032 -0.110108
C21   C     C_R   0.510076 0.896587 0.770174 -0.160934
C22   C     C_R   0.511381 0.944266 0.633585 0.009613
C23   C     C_R   0.024355 0.289850 0.587887 -0.111734
C24   C     C_R   0.526966 0.070425 0.620951 -0.018768
C25   C     C_R   0.511103 0.130556 0.498240 -0.002653
C26   C     C_R   0.493979 0.061381 0.379294 -0.144352
C27   C     C_R   0.490003 0.934145 0.383190 -0.149662
C28   C     C_R   0.608786 0.500359 0.500129 0.554301
C29   C     C_R   0.497925 0.873466 0.509101 0.002323
C30   C     C_R   0.578232 0.659599 0.149312 -0.092328
C31   C     C_R   0.617567 0.734696 0.079506 -0.174434
C32   C     C_R   0.617694 0.733986 0.935840 -0.127007
C33   C     C_R   0.578280 0.658532 0.861182 -0.071724
C34   C     C_R   0.057101 0.391993 0.539879 0.033747
C35   C     C_R   0.538682 0.577627 0.927835 0.125249
C36   C     C_R   0.538658 0.577838 0.077409 0.150719
C37   C     C_R   0.462580 0.427289 0.071557 -0.023151
C38   C     C_R   0.462656 0.427157 0.923511 -0.015807
C39   C     C_R   0.882285 0.595516 0.439443 0.404197
C40   C     C_R   0.877458 0.395023 0.538109 0.409259
C41   C     C_R   0.937101 0.392288 0.538478 0.030834
C42   C     C_R   0.969519 0.494926 0.489514 -0.026006
C43   C     C_R   0.942022 0.597638 0.439684 0.032477
C44   C     C_3   0.672192 0.782800 0.562137 -0.132360
C45   C     C_R   0.029587 0.494983 0.490670 -0.025798
C46   C     C_3   0.570399 0.234888 0.021996 -0.095118
C47   C     C_R   0.061999 0.598176 0.442954 0.033915
C48   C     C_R   0.034136 0.700206 0.393632 -0.111911
C49   C     C_R   0.974767 0.699805 0.391656 -0.116492
C50   C     C_R   0.116849 0.393996 0.539502 0.426824
Cu1   Cu    Cu3+1 0.500000 0.499990 0.640660 0.926648
Cu2   Cu    Cu3+1 0.500000 0.500010 0.359340 0.915580
H1    H     H_    0.941053 0.209983 0.625582 0.172645
H2    H     H_    0.044467 0.209540 0.626221 0.175294
H3    H     H_    0.580542 0.671232 0.259339 0.182105
H4    H     H_    0.647357 0.795908 0.137589 0.139212
H5    H     H_    0.647230 0.795807 0.882007 0.180667
H6    H     H_    0.579220 0.670344 0.751747 0.219530
H7    H     H_    0.432326 0.366878 0.866198 0.132476
H8    H     H_    0.058078 0.780588 0.356219 0.177443
H9    H     H_    0.954662 0.779963 0.352890 0.172734
H10   H     H_    0.320399 0.466289 0.274021 0.154313
H11   H     H_    0.320149 0.527338 0.721075 0.150072
H12   H     H_    0.672123 0.344020 0.355535 0.130086
H13   H     H_    0.215799 0.525355 0.716058 0.156758
H14   H     H_    0.776635 0.342239 0.348751 0.157626
H15   H     H_    0.651668 0.856152 0.622760 0.140996
H16   H     H_    0.643533 0.756463 0.472234 0.104271
H17   H     H_    0.713807 0.822228 0.524423 0.150967
H18   H     H_    0.525752 0.211418 0.053902 0.107920
H19   H     H_    0.572027 0.310955 0.946227 0.137429
H20   H     H_    0.594241 0.268536 0.116834 0.157272
H21   H     H_    0.789617 0.654220 0.633329 0.154049
H22   H     H_    0.483040 0.105587 0.283097 0.133645
H23   H     H_    0.579063 0.221638 0.716438 0.146359
H24   H     H_    0.536383 0.922006 0.984498 0.134845
H25   H     H_    0.487595 0.811398 0.795652 0.163346
H26   H     H_    0.478978 0.883263 0.287532 0.142829
H27   H     H_    0.432210 0.367100 0.124960 0.122087
N1    N     N_R   0.851291 0.495614 0.489102 -0.394795
N2    N     N_R   0.147686 0.495028 0.492623 -0.383850
N3    N     N_R   0.500540 0.501210 0.147910 -0.247569
N4    N     N_R   0.500560 0.501290 0.852040 -0.257383
O1    O     O_R   0.500000 0.319640 0.618810 -0.510187
O2    O     O_R   0.582120 0.500020 0.618760 -0.494433
O3    O     O_R   0.582120 0.500050 0.381190 -0.533727
O4    O     O_2   0.855338 0.692198 0.389201 -0.501090
O5    O     O_3   0.679750 0.682271 0.650078 -0.593164
O6    O     O_3   0.596638 0.130987 0.967440 -0.568027
O7    O     O_2   0.845886 0.298619 0.587904 -0.489397
O8    O     O_2   0.143966 0.295741 0.584933 -0.465762
O9    O     O_2   0.153414 0.695243 0.402753 -0.456445
O10   O     O_R   0.500000 0.319660 0.381240 -0.511118
O11   O     O_R   0.417880 0.499950 0.618810 -0.494855
O12   O     O_R   0.417880 0.499980 0.381240 -0.494464
O13   O     O_R   0.500000 0.680340 0.618760 -0.534568
O14   O     O_R   0.500000 0.680360 0.381190 -0.520759

loop_
_geom_bond_atom_site_label_1
_geom_bond_atom_site_label_2
_ccdc_geom_bond_type
C10   C17   A    
C32   H5    S    
C37   N3    A    
C40   C41   A    
C2    C47   A    
C18   C19   A    
C6    C7    A    
C23   H2    S    
C25   C26   A    
Cu1   O11   S    
C15   H21   S    
C18   H23   S    
C38   N4    A    
C37   C38   A    
C14   C15   A    
Cu1   O13   S    
C17   N1    S    
Cu2   O3    S    
C1    O1    A    
Cu1   N4    S    
C27   H26   S    
C8    H13   S    
C7    C8    A    
C30   H3    S    
C44   O5    S    
C8    C9    A    
C46   H20   S    
C44   H17   S    
C20   C21   A    
Cu2   O12   S    
C16   C29   S    
C31   H4    S    
C44   H15   S    
C26   H22   S    
C12   C41   A    
C4    O11   A    
C10   H14   S    
C45   C47   A    
C23   C34   A    
C48   H8    S    
C44   H16   S    
C22   C29   A    
C1    O10   A    
C21   H25   S    
C3    C5    A    
C4    C6    S    
C24   C25   A    
C19   O6    S    
C2    O9    S    
C30   C36   A    
C12   C23   A    
C5    H10   S    
C42   C43   A    
C50   O8    S    
C14   O5    S    
C30   C31   A    
C40   N1    A    
C2    N2    A    
C32   C33   A    
C1    C25   S    
C50   N2    A    
C46   H18   S    
C28   O2    A    
C7    H11   S    
C15   C17   A    
C47   C48   A    
C40   O7    S    
C11   C13   A    
C34   C50   A    
C33   H6    S    
C49   H9    S    
C46   O6    S    
C41   C42   A    
C13   C28   S    
C3    C9    A    
C4    O12   A    
Cu1   Cu2   S    
C12   H1    S    
C16   O14   A    
C43   C49   A    
Cu1   O1    S    
Cu2   O10   S    
C21   C22   A    
C39   N1    A    
C10   C11   A    
C5    C6    A    
Cu2   O14   S    
C11   H12   S    
Cu2   N3    S    
Br1   C3    S    
C31   C32   A    
C39   O4    S    
Cu1   O2    S    
C37   H27   S    
C35   N4    A    
C38   H7    S    
C27   C29   A    
C9    N2    S    
C33   C35   A    
C22   C24   A    
C18   C24   A    
C42   C45   A    
C46   H19   S    
C28   O3    A    
C39   C43   A    
C19   C20   A    
C35   C36   A    
C48   C49   A    
C20   H24   S    
C26   C27   A    
C13   C14   A    
C36   N3    A    
C34   C45   A    
C16   O13   A    
