data_mof_unit_30348.cif
_audit_creation_date              2012-12-10T17:46:33-0500
_audit_creation_method            fapswitch 2.2
_symmetry_space_group_name_H-M    P1
_symmetry_Int_Tables_number       1
_space_group_crystal_system       triclinic
_cell_length_a                    20.735283
_cell_length_b                    21.298706
_cell_length_c                    14.78888
_cell_angle_alpha                 90.199078
_cell_angle_beta                  127.927022
_cell_angle_gamma                 89.669693
_cell_volume                      5151.75271144

loop_
_atom_site_label
_atom_site_type_symbol
_atom_type_description
_atom_site_fract_x
_atom_site_fract_y
_atom_site_fract_z
_atom_type_partial_charge
C1    C     C_R   0.602682 0.913521 0.631091 0.789431
C2    C     C_R   0.397631 0.086628 0.369322 0.791522
C3    C     C_R   0.397157 0.913768 0.368380 0.789482
C4    C     C_R   0.602313 0.086436 0.630856 0.791941
C5    C     C_R   0.102977 0.413708 0.631471 0.795472
C6    C     C_R   0.898222 0.587081 0.369964 0.796119
C7    C     C_R   0.897052 0.413959 0.368431 0.794144
C8    C     C_R   0.101825 0.586886 0.630252 0.792043
C9    C     C_R   0.283148 0.804149 0.873631 -0.230201
C10   C     C_R   0.672329 0.224161 0.078719 -0.238334
C11   C     C_R   0.729005 0.809951 0.133903 -0.230673
C12   C     C_R   0.326468 0.221721 0.920618 -0.238906
C13   C     C_R   0.796695 0.295731 0.888624 -0.237033
C14   C     C_R   0.168713 0.726583 0.073653 -0.236988
C15   C     C_R   0.212287 0.302118 0.120921 -0.229686
C16   C     C_R   0.813774 0.713013 0.906580 -0.229476
C17   C     C_R   0.323262 0.026459 0.667284 0.028160
C18   C     C_R   0.676982 0.024523 0.333042 0.026987
C19   C     C_R   0.829136 0.463605 0.671904 0.052637
C20   C     C_R   0.172044 0.535076 0.329951 0.035921
C21   C     C_R   0.350362 0.005031 0.604898 0.302527
C22   C     C_R   0.649709 0.003608 0.395176 0.302643
C23   C     C_R   0.852642 0.485320 0.605510 0.310156
C24   C     C_R   0.148451 0.509064 0.393807 0.313335
C25   C     C_R   0.488164 0.005654 0.775004 -0.060080
C26   C     C_R   0.511888 0.006166 0.225067 -0.061387
C27   C     C_R   0.986914 0.506158 0.774774 -0.060032
C28   C     C_R   0.011347 0.500172 0.224963 -0.062141
C29   C     C_R   0.461930 0.013683 0.844709 -0.065130
C30   C     C_R   0.538205 0.013519 0.155466 -0.064442
C31   C     C_R   0.961315 0.498561 0.844892 -0.059181
C32   C     C_R   0.036074 0.509754 0.154302 -0.066525
C33   C     C_R   0.377452 0.022362 0.787777 0.106738
C34   C     C_R   0.622773 0.020889 0.212512 0.107797
C35   C     C_R   0.882033 0.474279 0.791575 0.090695
C36   C     C_R   0.116467 0.531718 0.208698 0.099895
C37   C     C_R   0.516059 0.014998 0.968338 0.107336
C38   C     C_R   0.484103 0.015402 0.031867 0.106306
C39   C     C_R   0.012328 0.511677 0.966294 0.104848
C40   C     C_R   0.983998 0.499087 0.032255 0.107791
C41   C     C_R   0.399285 0.019888 0.969831 -0.256058
C42   C     C_R   0.600942 0.018105 0.030455 -0.254827
C43   C     C_R   0.905550 0.473997 0.974837 -0.244820
C44   C     C_R   0.090239 0.537965 0.023634 -0.252451
C45   C     C_R   0.347786 0.024966 0.851561 -0.198623
C46   C     C_R   0.652494 0.022699 0.148793 -0.200360
C47   C     C_R   0.856112 0.462180 0.858258 -0.210347
C48   C     C_R   0.140940 0.547238 0.141279 -0.201894
C49   C     C_R   0.656897 0.138526 0.700100 -0.052684
C50   C     C_R   0.337039 0.865478 0.292119 -0.054495
C51   C     C_R   0.343838 0.139690 0.301352 -0.053178
C52   C     C_R   0.660911 0.863397 0.704265 -0.053209
C53   C     C_R   0.154002 0.640744 0.696566 -0.051905
C54   C     C_R   0.837530 0.365291 0.293616 -0.050533
C55   C     C_R   0.847040 0.641772 0.304516 -0.048148
C56   C     C_R   0.162599 0.364647 0.706602 -0.056398
C57   C     C_R   0.743010 0.224943 0.729823 -0.199358
C58   C     C_R   0.235532 0.788469 0.245774 -0.202388
C59   C     C_R   0.262529 0.229496 0.276432 -0.196816
C60   C     C_R   0.750015 0.777501 0.737863 -0.194478
C61   C     C_R   0.233617 0.730573 0.719199 -0.197853
C62   C     C_R   0.732853 0.290876 0.244621 -0.198528
C63   C     C_R   0.779685 0.738366 0.290802 -0.199611
C64   C     C_R   0.262424 0.285556 0.751051 -0.198294
C65   C     C_R   0.695709 0.173213 0.665889 -0.196368
C66   C     C_R   0.292693 0.833346 0.319991 -0.187724
C67   C     C_R   0.307248 0.176068 0.337782 -0.198286
C68   C     C_R   0.698123 0.826620 0.669240 -0.191272
C69   C     C_R   0.190000 0.676684 0.659325 -0.196793
C70   C     C_R   0.787598 0.337828 0.316285 -0.200359
C71   C     C_R   0.820506 0.683254 0.349181 -0.195256
C72   C     C_R   0.207318 0.332381 0.678833 -0.190191
C73   C     C_R   0.665944 0.155826 0.798471 -0.251315
C74   C     C_R   0.324522 0.851263 0.189938 -0.254775
C75   C     C_R   0.334481 0.156708 0.202764 -0.248289
C76   C     C_R   0.676681 0.850869 0.808962 -0.253424
C77   C     C_R   0.162278 0.659033 0.793966 -0.249727
C78   C     C_R   0.831184 0.346203 0.198025 -0.257430
C79   C     C_R   0.832561 0.656005 0.201290 -0.247158
C80   C     C_R   0.173540 0.349446 0.807162 -0.253135
C81   C     C_R   0.709307 0.209856 0.860669 0.090643
C82   C     C_R   0.267834 0.805455 0.113945 0.090939
C83   C     C_R   0.293871 0.212277 0.143271 0.089723
C84   C     C_R   0.728826 0.801493 0.880023 0.090121
C85   C     C_R   0.201851 0.715045 0.851930 0.090390
C86   C     C_R   0.774340 0.300743 0.121925 0.090602
C87   C     C_R   0.796657 0.713336 0.144814 0.090390
C88   C     C_R   0.229003 0.302554 0.881930 0.090179
C89   C     C_R   0.749989 0.243541 0.826580 0.167548
C90   C     C_R   0.223625 0.773589 0.144163 0.167378
C91   C     C_R   0.255897 0.248013 0.180008 0.164636
C92   C     C_R   0.764656 0.764076 0.841801 0.163404
C93   C     C_R   0.239781 0.750027 0.815006 0.164082
C94   C     C_R   0.726311 0.271819 0.148357 0.167444
C95   C     C_R   0.767943 0.753879 0.189499 0.164187
C96   C     C_R   0.272973 0.269967 0.851432 0.166839
C97   C     C_R   0.713683 0.230991 0.955773 0.063887
C98   C     C_R   0.255970 0.788901 0.011217 0.064617
C99   C     C_R   0.289411 0.232828 0.048033 0.064743
C100  C     C_R   0.743821 0.786847 0.985447 0.065172
C101  C     C_R   0.205911 0.736461 0.946538 0.066029
C102  C     C_R   0.765304 0.282437 0.022006 0.066275
C103  C     C_R   0.788395 0.731302 0.045473 0.064073
C104  C     C_R   0.239958 0.285849 0.983831 0.064665
C105  C     C_R   0.291938 0.823053 0.970564 -0.221582
C106  C     C_R   0.666442 0.203617 0.984829 -0.222086
C107  C     C_R   0.716510 0.826089 0.033423 -0.220336
C108  C     C_R   0.334277 0.203042 0.016579 -0.221486
C109  C     C_R   0.804733 0.314744 0.984759 -0.221123
C110  C     C_R   0.160227 0.707939 0.977058 -0.224881
C111  C     C_R   0.203876 0.320634 0.024330 -0.220385
C112  C     C_R   0.825091 0.696491 0.006020 -0.220365
Cu1   Cu    Cu3+1 0.526640 1.000000 0.436960 0.936609
Cu2   Cu    Cu3+1 0.473360 1.000000 0.563040 0.936875
Cu3   Cu    Cu3+1 0.026640 0.500000 0.436960 0.935449
Cu4   Cu    Cu3+1 0.973360 0.500000 0.563040 0.924247
H1    H     H_    0.311387 0.831805 0.845153 0.145749
H2    H     H_    0.634655 0.202153 0.097379 0.149178
H3    H     H_    0.707749 0.841662 0.168184 0.144921
H4    H     H_    0.361841 0.197495 0.899581 0.149306
H5    H     H_    0.827670 0.322014 0.862964 0.143718
H6    H     H_    0.132988 0.703129 0.094337 0.147915
H7    H     H_    0.183962 0.330301 0.149192 0.145081
H8    H     H_    0.842632 0.684815 0.879133 0.147959
H9    H     H_    0.370743 0.022356 0.010841 0.130897
H10   H     H_    0.629541 0.019839 0.989513 0.130033
H11   H     H_    0.880341 0.462450 0.018186 0.126143
H12   H     H_    0.114329 0.551661 0.979591 0.130098
H13   H     H_    0.361661 0.875430 0.173351 0.149621
H14   H     H_    0.639009 0.125783 0.825301 0.145150
H15   H     H_    0.645094 0.879174 0.831043 0.147028
H16   H     H_    0.359200 0.125302 0.173801 0.143857
H17   H     H_    0.872978 0.366556 0.186485 0.149291
H18   H     H_    0.137967 0.628136 0.823692 0.141136
H19   H     H_    0.136093 0.373819 0.823441 0.152784
H20   H     H_    0.850171 0.621270 0.167034 0.143828
H21   H     H_    0.303146 0.841532 0.400013 0.139080
H22   H     H_    0.688689 0.160967 0.589161 0.152030
H23   H     H_    0.685168 0.834245 0.587328 0.138610
H24   H     H_    0.314365 0.163957 0.414535 0.151477
H25   H     H_    0.791596 0.351966 0.390018 0.146660
H26   H     H_    0.183406 0.663807 0.583140 0.150890
H27   H     H_    0.198594 0.342106 0.600361 0.140073
H28   H     H_    0.833551 0.674311 0.430757 0.151359
H29   H     H_    0.261575 0.757573 0.689645 0.130403
H30   H     H_    0.695742 0.269301 0.264598 0.134936
H31   H     H_    0.759282 0.769759 0.326562 0.130164
H32   H     H_    0.295912 0.260781 0.727451 0.135609
H33   H     H_    0.773076 0.251072 0.702571 0.128024
H34   H     H_    0.201646 0.764548 0.269008 0.136436
H35   H     H_    0.234344 0.257023 0.305571 0.130408
H36   H     H_    0.777226 0.748994 0.708317 0.131996
H37   H     H_    0.325654 0.865808 0.009773 0.142490
H38   H     H_    0.622023 0.167348 0.934727 0.147891
H39   H     H_    0.687292 0.870855 0.997574 0.141278
H40   H     H_    0.377908 0.165937 0.065930 0.147950
H41   H     H_    0.840495 0.356390 0.025736 0.138244
H42   H     H_    0.115498 0.671921 0.926344 0.143535
H43   H     H_    0.170378 0.363673 0.985429 0.144345
H44   H     H_    0.864916 0.656868 0.051551 0.148377
H45   H     H_    0.283355 0.029228 0.810804 0.157445
H46   H     H_    0.716985 0.025941 0.189648 0.156518
H47   H     H_    0.796065 0.444102 0.821380 0.164972
H48   H     H_    0.200878 0.565562 0.178264 0.162584
H49   H     H_    0.448094 0.003006 0.187277 0.136443
H50   H     H_    0.551921 0.001700 0.812718 0.136036
H51   H     H_    0.948238 0.493025 0.188260 0.139189
H52   H     H_    0.049475 0.516439 0.811963 0.137078
N1    N     N_R   0.433280 1.000000 0.657760 -0.192468
N2    N     N_R   0.566720 1.000000 0.342240 -0.192186
N3    N     N_R   0.933280 0.500000 0.657760 -0.196928
N4    N     N_R   0.066720 0.500000 0.342240 -0.195924
O1    O     O_R   0.600040 0.935040 0.546740 -0.586029
O2    O     O_R   0.399960 0.064960 0.453260 -0.570250
O3    O     O_R   0.399960 0.935040 0.453260 -0.585595
O4    O     O_R   0.600040 0.064960 0.546740 -0.570365
O5    O     O_R   0.100040 0.435040 0.546740 -0.586639
O6    O     O_R   0.899960 0.564960 0.453260 -0.585989
O7    O     O_R   0.899960 0.435040 0.453260 -0.606402
O8    O     O_R   0.100040 0.564960 0.546740 -0.569712
O9    O     O_R   0.555010 0.935070 0.653220 -0.584136
O10   O     O_R   0.444990 0.064930 0.346780 -0.584641
O11   O     O_R   0.444990 0.935070 0.346780 -0.585340
O12   O     O_R   0.555010 0.064930 0.653220 -0.585621
O13   O     O_R   0.055010 0.435070 0.653220 -0.580555
O14   O     O_R   0.944990 0.564930 0.346780 -0.580582
O15   O     O_R   0.944990 0.435070 0.346780 -0.587433
O16   O     O_R   0.055010 0.564930 0.653220 -0.588102
C113  C     C_3   0.713216 0.969296 0.506787 -0.359198
C114  C     C_3   0.753290 0.009009 0.615557 -0.756788
H53   H     H_    0.748870 0.059869 0.596478 0.237972
H54   H     H_    0.725921 0.999582 0.658897 0.256284
H55   H     H_    0.819114 0.996499 0.677651 0.211949
H56   H     H_    0.689633 0.924302 0.510684 0.205330
H57   H     H_    0.763030 0.951738 0.504937 0.146179
C115  C     C_3   0.286602 0.971379 0.493085 -0.361230
C116  C     C_3   0.246878 0.011228 0.384629 -0.756553
H58   H     H_    0.252213 0.062132 0.404202 0.238870
H59   H     H_    0.273809 0.000786 0.340835 0.256294
H60   H     H_    0.180829 0.999804 0.322757 0.211926
H61   H     H_    0.310362 0.926289 0.489444 0.204926
H62   H     H_    0.236702 0.954300 0.494672 0.146794
C117  C     C_3   0.214109 0.474744 0.503874 -0.373794
C118  C     C_3   0.254730 0.513625 0.613541 -0.761521
H63   H     H_    0.249507 0.564692 0.595541 0.241279
H64   H     H_    0.228047 0.502813 0.657443 0.257101
H65   H     H_    0.320718 0.501399 0.674345 0.214904
H66   H     H_    0.190900 0.429772 0.508911 0.207779
H67   H     H_    0.262724 0.458246 0.498643 0.149583
C119  C     C_3   0.785371 0.505363 0.482632 -0.351036
C120  C     C_3   0.761446 0.573559 0.480743 -0.841334
H68   H     H_    0.816565 0.603668 0.529507 0.256863
H69   H     H_    0.718963 0.590566 0.390908 0.240404
H70   H     H_    0.730809 0.577910 0.521012 0.246870
H71   H     H_    0.801847 0.500130 0.425733 0.242766
H72   H     H_    0.729822 0.476325 0.439952 0.171677
C121  C     C_3   0.236654 0.053058 0.604426 -0.425632
C122  C     C_3   0.238282 0.122428 0.632897 -0.829469
H73   H     H_    0.267471 0.129288 0.724920 0.255154
H74   H     H_    0.272256 0.149921 0.610822 0.245485
H75   H     H_    0.174789 0.140925 0.582175 0.243982
H76   H     H_    0.200671 0.051161 0.510180 0.222776
H77   H     H_    0.201415 0.025232 0.623789 0.192660
C123  C     C_3   0.763589 0.050431 0.396047 -0.428116
C124  C     C_3   0.761949 0.119775 0.367828 -0.822373
H78   H     H_    0.732267 0.126794 0.275652 0.255925
H79   H     H_    0.728418 0.147707 0.390696 0.245828
H80   H     H_    0.825469 0.137696 0.418147 0.243039
H81   H     H_    0.799546 0.048373 0.490272 0.222391
H82   H     H_    0.798814 0.022220 0.376542 0.192038
C125  C     C_3   0.751247 0.425047 0.616187 -0.420127
C126  C     C_3   0.677964 0.464647 0.583792 -0.821179
H83   H     H_    0.694974 0.497563 0.653572 0.251083
H84   H     H_    0.652571 0.492063 0.504841 0.250748
H85   H     H_    0.629046 0.433196 0.566686 0.241808
H86   H     H_    0.735761 0.399470 0.539662 0.185397
H87   H     H_    0.761948 0.386392 0.674236 0.191376
C127  C     C_3   0.256688 0.564353 0.391850 -0.423167
C128  C     C_3   0.250537 0.635730 0.378841 -0.837563
H88   H     H_    0.211623 0.649762 0.287477 0.248749
H89   H     H_    0.224035 0.655800 0.419020 0.246091
H90   H     H_    0.312427 0.655768 0.422187 0.246421
H91   H     H_    0.297445 0.555219 0.485104 0.222103
H92   H     H_    0.289195 0.543865 0.360813 0.195097

loop_
_geom_bond_atom_site_label_1
_geom_bond_atom_site_label_2
_ccdc_geom_bond_type
C121  H77   S    
C72   H27   S    
C105  H37   S    
C117  C118  S    
C88   C96   A    
C24   C117  S    
C114  H53   S    
C14   H6    S    
C19   C125  S    
Cu4   O6    S    
Cu2   N1    S    
C33   C45   A    
C5    C56   S    
C53   C77   A    
C128  H88   S    
C5    O13   A    
C6    C55   S    
C109  H41   S    
C123  C124  S    
C76   C84   A    
C79   C87   A    
C13   H5    S    
C17   C121  S    
C26   H49   S    
C107  H39   S    
C61   C69   A    
C8    O16   A    
C99   C108  A    
Cu4   O16   S    
C1    O1    A    
C80   H19   S    
C57   C89   A    
C10   H2    S    
C32   C36   A    
C7    O15   A    
C71   H28   S    
C41   H9    S    
C51   C75   A    
C73   H14   S    
C62   H30   S    
C1    C52   S    
C50   C74   A    
C2    O10   A    
C76   H15   S    
C119  H72   S    
C10   C94   A    
C9    C105  A    
C119  H71   S    
C127  H92   S    
C124  H80   S    
C55   C79   A    
C62   C70   A    
C60   H36   S    
C63   H31   S    
C37   C42   A    
C116  H59   S    
C61   H29   S    
C14   C90   A    
C13   C109  A    
C86   C94   A    
C114  H55   S    
C59   C67   A    
C12   H4    S    
C85   C93   A    
C113  H56   S    
C28   N4    A    
C40   C43   A    
Cu1   O10   S    
C29   C33   A    
C56   C72   A    
C61   C93   A    
C57   H33   S    
C20   C127  S    
C125  H86   S    
C34   C46   A    
C18   C123  S    
Cu3   O8    S    
C52   C68   A    
C27   H52   S    
C47   H47   S    
C78   C86   A    
C32   C40   A    
C99   C104  A    
C53   C69   A    
C83   C99   A    
C64   H32   S    
C82   C98   A    
C15   H7    S    
C17   C33   A    
C74   C82   A    
C45   H45   S    
C73   C81   A    
C88   C104  A    
C3    C50   S    
C58   C66   A    
C60   C92   A    
C25   C29   A    
C124  H79   S    
C100  C107  A    
C30   C34   A    
C27   C31   A    
C84   C100  A    
C77   C85   A    
C15   C111  A    
C28   C32   A    
C63   C95   A    
C102  C109  A    
C64   C96   A    
C38   C41   A    
C11   H3    S    
C43   H11   S    
C39   C40   A    
C12   C108  A    
Cu3   O14   S    
C1    O9    A    
Cu3   N4    S    
C51   C67   A    
C106  H38   S    
C69   H26   S    
C127  H91   S    
C126  H85   S    
C17   C21   A    
Cu4   N3    S    
C87   C95   A    
C103  C112  A    
C115  H61   S    
C100  C103  A    
C116  H60   S    
C19   C23   A    
C37   C38   A    
C79   H20   S    
C123  H82   S    
C22   N2    A    
Cu3   O15   S    
C8    O8    A    
C122  H74   S    
C120  H68   S    
C54   C70   A    
C118  H65   S    
C57   C65   A    
C126  H84   S    
C124  H78   S    
C7    C54   S    
C7    O7    A    
C113  C114  S    
C128  H89   S    
C59   C91   A    
C82   C90   A    
C4    O12   A    
C22   C113  S    
C67   H24   S    
C18   C34   A    
C5    O5    A    
Cu3   O5    S    
C49   C65   A    
C58   C90   A    
Cu1   O4    S    
C87   C103  A    
C65   H22   S    
C98   C105  A    
C3    O3    A    
Cu2   O3    S    
C120  H69   S    
C118  H64   S    
C16   C92   A    
C62   C94   A    
C42   C46   A    
C49   C73   A    
C28   H51   S    
C10   C106  A    
C77   H18   S    
C97   C106  A    
C115  H62   S    
Cu2   O12   S    
C9    C93   A    
C85   C101  A    
C75   H16   S    
C16   C112  A    
C122  H75   S    
Cu1   O1    S    
Cu1   Cu2   S    
C117  H66   S    
C11   C95   A    
C121  H76   S    
C14   C110  A    
C127  C128  S    
C44   H12   S    
C70   H25   S    
C114  H54   S    
C112  H44   S    
C13   C89   A    
C18   C22   A    
C117  H67   S    
C97   C102  A    
C111  H43   S    
C115  C116  S    
C52   C76   A    
C110  H42   S    
C8    C53   S    
C104  C111  A    
C50   C66   A    
C26   C30   A    
C39   C44   A    
C48   H48   S    
C23   C119  S    
C59   H35   S    
C25   H50   S    
Cu2   O9    S    
C83   C91   A    
Cu4   O13   S    
C6    O14   A    
C108  H40   S    
C56   C80   A    
C98   C101  A    
C4    C49   S    
C125  H87   S    
C60   C68   A    
C25   N1    A    
C101  C110  A    
C81   C89   A    
C80   C88   A    
C44   C48   A    
C19   C35   A    
C123  H81   S    
C2    O2    A    
C11   C107  A    
C113  H57   S    
C75   C83   A    
C122  H73   S    
Cu1   O11   S    
C66   H21   S    
C3    O11   A    
C31   C35   A    
C21   N1    A    
C121  C122  S    
C126  H83   S    
C81   C97   A    
C31   C39   A    
C36   C48   A    
C128  H90   S    
Cu1   N2    S    
C64   C72   A    
C21   C115  S    
C16   H8    S    
C116  H58   S    
C24   N4    A    
C78   H17   S    
C55   C71   A    
C2    C51   S    
C42   H10   S    
C15   C91   A    
C20   C36   A    
C58   H34   S    
Cu2   O2    S    
C120  H70   S    
C23   N3    A    
C118  H63   S    
C26   N2    A    
C119  C120  S    
C4    O4    A    
C74   H13   S    
C29   C37   A    
C125  C126  S    
C41   C45   A    
C12   C96   A    
C68   H23   S    
C84   C92   A    
C30   C38   A    
C35   C47   A    
Cu4   O7    S    
C27   N3    A    
C43   C47   A    
C63   C71   A    
C20   C24   A    
C6    O6    A    
C9    H1    S    
Cu3   Cu4   S    
C46   H46   S    
C54   C78   A    
C86   C102  A    
