data_mof_unit_60951.cif
_audit_creation_date              2012-12-10T16:50:36-0500
_audit_creation_method            fapswitch 2.2
_symmetry_space_group_name_H-M    P1
_symmetry_Int_Tables_number       1
_space_group_crystal_system       triclinic
_cell_length_a                    18.779502
_cell_length_b                    18.944292
_cell_length_c                    18.692046
_cell_angle_alpha                 109.42108
_cell_angle_beta                  109.032383
_cell_angle_gamma                 109.40238
_cell_volume                      5154.02813012

loop_
_atom_site_label
_atom_site_type_symbol
_atom_type_description
_atom_site_fract_x
_atom_site_fract_y
_atom_site_fract_z
_atom_type_partial_charge
C1    C     C_R   0.383107 0.381108 0.502450 0.921306
C2    C     C_R   0.758575 0.580026 0.753903 0.074010
C3    C     C_R   0.812224 0.500435 0.811889 -0.186211
C4    C     C_R   0.742724 0.420872 0.738910 0.080719
C5    C     C_R   0.674140 0.421075 0.679949 0.026550
C6    C     C_R   0.684852 0.500547 0.685563 -0.179881
C7    C     C_R   0.739364 0.340878 0.723448 -0.203172
C8    C     C_R   0.664948 0.263285 0.657483 -0.180684
C9    C     C_R   0.592708 0.263601 0.605730 0.327343
C10   C     C_R   0.596931 0.341565 0.616519 -0.185430
C11   C     C_2   0.256708 0.253441 0.578849 -0.137078
C12   C     C_R   0.619355 0.500291 0.619513 0.856379
C13   C     C_2   0.181495 0.193539 0.506025 -0.319801
C14   C     C_2   0.317669 0.325897 0.578901 -0.151450
C15   C     C_2   0.323115 0.313802 0.506668 -0.316665
C16   C     C_2   0.173873 0.422968 0.179133 -0.150005
C17   C     C_2   0.185147 0.494663 0.174792 -0.331652
C18   C     C_2   0.246760 0.422972 0.240117 -0.151450
C19   C     C_2   0.306519 0.494550 0.316329 -0.334790
C20   C     C_2   0.735044 0.794305 0.465974 -0.162173
C21   C     C_2   0.819052 0.840058 0.523614 -0.348712
C22   C     C_2   0.675888 0.735114 0.479883 -0.212621
C23   C     C_R   0.622469 0.617819 0.502829 0.913783
C24   C     C_2   0.692386 0.679734 0.503137 0.026383
C25   C     C_R   0.995917 0.381635 0.876120 0.921718
C26   C     C_R   0.877705 0.500192 0.877602 0.877698
C27   C     C_R   0.999591 0.618092 0.119268 0.928720
C28   C     C_R   0.116812 0.498115 0.114531 0.927490
C29   C     C_R   0.997504 0.116854 0.618757 0.917212
C30   C     C_R   0.118559 0.121274 0.501956 0.933241
C31   C     C_R   0.003803 0.884687 0.380793 0.883188
C32   C     C_R   0.881713 0.886766 0.505383 0.935748
C33   C     C_2   0.921232 0.181655 0.673342 -0.144789
C34   C     C_R   0.378157 0.498038 0.380244 0.935006
C35   C     C_2   0.993253 0.176403 0.686777 -0.330921
C36   C     C_2   0.920675 0.243291 0.745036 -0.159046
C37   C     C_2   0.992676 0.318917 0.803992 -0.330161
C38   C     C_2   0.077171 0.813950 0.326772 -0.233571
C39   C     C_2   0.012282 0.832053 0.310765 0.116824
C40   C     C_2   0.078999 0.754181 0.254775 -0.116232
C41   C     C_2   0.006477 0.679367 0.195362 -0.271262
C42   C     C_R   0.773804 0.659661 0.756414 -0.153299
C43   C     C_R   0.841127 0.737450 0.829849 -0.143491
C44   C     C_R   0.894266 0.737668 0.901886 -0.113061
C45   C     C_R   0.883404 0.660034 0.898555 -0.121882
C46   C     C_R   0.818534 0.580095 0.822174 0.064496
H1    H     H_    0.161715 0.201421 0.448996 0.158718
H2    H     H_    0.360437 0.387414 0.638753 0.168042
H3    H     H_    0.287709 0.249821 0.450209 0.171643
H4    H     H_    0.112414 0.363379 0.135386 0.168160
H5    H     H_    0.249099 0.551232 0.211226 0.158910
H6    H     H_    0.249089 0.363452 0.224195 0.167976
H7    H     H_    0.298658 0.551005 0.336461 0.159353
H8    H     H_    0.709527 0.796879 0.406272 0.183116
H9    H     H_    0.843029 0.843049 0.586296 0.156738
H10   H     H_    0.612630 0.730631 0.461642 0.145496
H11   H     H_    0.734682 0.663145 0.702034 0.148585
H12   H     H_    0.861967 0.138632 0.611019 0.170818
H13   H     H_    0.049242 0.212461 0.751595 0.158481
H14   H     H_    0.860764 0.227864 0.747656 0.161263
H15   H     H_    0.049455 0.338323 0.795689 0.159980
H16   H     H_    0.127671 0.840991 0.392841 0.163993
H17   H     H_    0.138679 0.770199 0.251667 0.172279
H18   H     H_    0.950590 0.660700 0.205283 0.179839
H19   H     H_    0.851110 0.797699 0.831340 0.141141
H20   H     H_    0.944890 0.798107 0.960074 0.156073
H21   H     H_    0.925983 0.663922 0.956703 0.166444
H22   H     H_    0.793880 0.336981 0.761332 0.159320
H23   H     H_    0.663138 0.202945 0.647673 0.164786
H24   H     H_    0.538986 0.338655 0.575188 0.175646
H25   H     H_    0.272134 0.251005 0.638970 0.168448
O1    O     O_R   0.409870 0.358470 0.449260 -0.617687
O2    O     O_R   0.048480 0.460610 0.906920 -0.619020
O3    O     O_R   0.854760 0.448970 0.905840 -0.618408
O4    O     O_R   0.956890 0.551080 0.905790 -0.626714
O5    O     O_R   0.945260 0.539450 0.086770 -0.619501
O6    O     O_R   0.047380 0.641560 0.086730 -0.618197
O7    O     O_R   0.036850 0.448980 0.087900 -0.615887
O8    O     O_R   0.138970 0.551100 0.087860 -0.624667
O9    O     O_R   0.050830 0.090460 0.641300 -0.629461
O10   O     O_R   0.948030 0.090450 0.538510 -0.618701
O11   O     O_R   0.141850 0.090470 0.551380 -0.612920
O12   O     O_R   0.409230 0.460600 0.550770 -0.614168
O13   O     O_R   0.039050 0.090460 0.448590 -0.617640
O14   O     O_R   0.051970 0.909550 0.461490 -0.635899
O15   O     O_R   0.949170 0.909540 0.358700 -0.570182
O16   O     O_R   0.960950 0.909540 0.551410 -0.624984
O17   O     O_R   0.858150 0.909530 0.448620 -0.617079
O18   O     O_R   0.591360 0.448940 0.540280 -0.623258
O19   O     O_R   0.590720 0.551070 0.641790 -0.623019
O20   O     O_R   0.590770 0.539400 0.449230 -0.612280
O21   O     O_R   0.590130 0.641530 0.550740 -0.639258
O22   O     O_R   0.409280 0.448930 0.358210 -0.613974
O23   O     O_R   0.408640 0.551060 0.459720 -0.620277
O24   O     O_R   0.946350 0.358500 0.906960 -0.624638
Zn1   Zn    Zn3+2 0.500430 0.431810 0.432220 0.973957
Zn2   Zn    Zn3+2 0.499570 0.568190 0.567780 0.963808
Zn3   Zn    Zn3+2 0.928680 0.431850 0.996880 0.967106
Zn4   Zn    Zn3+2 0.065060 0.568210 0.996820 0.967213
Zn5   Zn    Zn3+2 0.068640 0.000010 0.568630 0.966318
Zn6   Zn    Zn3+2 0.931360 0.999990 0.431370 1.001705
Br1   Br    Br    0.488652 0.157478 0.518545 -0.521627
C47   C     C_3   0.774076 0.671666 0.516803 -0.430217
C48   C     C_3   0.769018 0.588636 0.514977 -0.822929
H26   H     H_    0.751980 0.579341 0.563983 0.247915
H27   H     H_    0.721327 0.532242 0.448998 0.278191
H28   H     H_    0.833251 0.592935 0.531167 0.244541
H29   H     H_    0.790439 0.676427 0.465948 0.237662
H30   H     H_    0.828670 0.724623 0.581809 0.209298
Br2   Br    Br    0.934805 0.804222 0.194350 -0.508693

loop_
_geom_bond_atom_site_label_1
_geom_bond_atom_site_label_2
_ccdc_geom_bond_type
C33   H12   S    
C31   O14   A    
C23   O20   A    
C44   H20   S    
C34   O22   A    
C17   H5    S    
C48   H27   S    
O17   Zn6   S    
O24   Zn3   S    
C18   H6    S    
C7    C8    A    
O3    Zn3   S    
O10   Zn6   S    
C45   C46   A    
C2    C46   A    
C29   O10   A    
C8    H23   S    
C40   H17   S    
O8    Zn4   S    
C36   C37   D    
C16   H4    S    
C6    C12   S    
C5    C6    A    
C11   C14   S    
C11   H25   S    
O5    Zn3   S    
C32   O17   A    
C33   C36   S    
C35   H13   S    
C18   C19   D    
C28   O8    A    
C27   C41   S    
C26   O3    A    
C25   C37   S    
C7    H22   S    
C39   Br2   S    
C9    Br1   S    
O7    Zn3   S    
C23   C24   S    
C47   H29   S    
C1    C15   S    
C28   O7    A    
C9    C10   A    
O19   Zn2   S    
C19   H7    S    
O20   Zn1   S    
C31   O15   A    
O9    Zn5   S    
O13   Zn6   S    
C2    C6    A    
C4    C7    A    
C42   H11   S    
C48   H26   S    
O21   Zn2   S    
C38   C39   D    
C21   C32   S    
C1    O1    A    
C13   C30   S    
C20   H8    S    
C21   H9    S    
C8    C9    A    
C22   H10   S    
O23   Zn2   S    
C36   H14   S    
C32   O16   A    
C30   O11   A    
C43   C44   A    
C45   H21   S    
C12   O18   A    
C43   H19   S    
O4    Zn4   S    
C26   O4    A    
C10   H24   S    
C40   C41   D    
C20   C22   S    
C25   O24   A    
O22   Zn1   S    
C22   C24   D    
C42   C43   A    
C27   O5    A    
C44   C45   A    
C13   H1    S    
O16   Zn5   S    
C12   O19   A    
O2    Zn4   S    
C14   C15   D    
C17   C28   S    
O11   Zn5   S    
C3    C26   S    
C34   O23   A    
C4    C5    A    
C27   O6    A    
C19   C34   S    
C37   H15   S    
C1    O12   A    
C29   C35   S    
C3    C46   A    
C47   H30   S    
C24   C47   S    
O18   Zn1   S    
C5    C10   A    
O14   Zn5   S    
C38   C40   S    
C11   C13   D    
C16   C17   D    
C29   O9    A    
C2    C42   A    
C33   C35   D    
C31   C39   S    
O6    Zn4   S    
C25   O2    A    
C15   H3    S    
C30   O13   A    
O1    Zn1   S    
C20   C21   D    
C16   C18   S    
O12   Zn2   S    
C47   C48   S    
C14   H2    S    
C23   O21   A    
C41   H18   S    
O15   Zn6   S    
C48   H28   S    
C3    C4    A    
C38   H16   S    
