data_mof_unit_45551.cif
_audit_creation_date              2012-12-10T18:43:41-0500
_audit_creation_method            fapswitch 2.2
_symmetry_space_group_name_H-M    P1
_symmetry_Int_Tables_number       1
_space_group_crystal_system       triclinic
_cell_length_a                    10.828794
_cell_length_b                    10.652679
_cell_length_c                    9.909175
_cell_angle_alpha                 91.129741
_cell_angle_beta                  104.699298
_cell_angle_gamma                 90.296532
_cell_volume                      1105.39132297

loop_
_atom_site_label
_atom_site_type_symbol
_atom_type_description
_atom_site_fract_x
_atom_site_fract_y
_atom_site_fract_z
_atom_type_partial_charge
C1    C     C_R   0.504088 0.260463 0.499963 0.922389
C2    C     C_R   0.495831 0.739506 0.500031 0.930771
C3    C     C_R   0.259028 0.496403 0.441206 0.992991
C4    C     C_R   0.740981 0.497676 0.558636 0.979542
C5    C     C_R   0.600617 0.548662 0.102004 -0.121585
C6    C     C_R   0.399506 0.451129 0.898040 -0.114974
C7    C     C_R   0.601002 0.549851 0.959112 0.040786
C8    C     C_R   0.399049 0.450051 0.040901 0.041822
C9    C     C_2   0.121948 0.484849 0.407483 -0.303043
C10   C     C_2   0.877825 0.486181 0.591636 -0.280809
C11   C     C_2   0.067445 0.465179 0.511793 -0.158261
C12   C     C_2   0.931708 0.465818 0.486312 -0.137806
C13   C     C_R   0.413181 0.065450 0.397703 -0.204507
C14   C     C_R   0.586429 0.934471 0.602441 -0.204781
C15   C     C_R   0.402371 0.936442 0.398239 -0.043214
C16   C     C_R   0.597145 0.063450 0.602031 -0.042472
C17   C     C_R   0.491623 0.872103 0.501415 -0.117465
C18   C     C_R   0.508110 0.127828 0.498642 -0.115244
H1    H     H_    0.875971 0.456679 0.378415 0.196380
H2    H     H_    0.122867 0.456005 0.619236 0.196003
H3    H     H_    0.680233 0.588841 0.180295 0.161703
H4    H     H_    0.320114 0.410573 0.819840 0.154089
H5    H     H_    0.934009 0.495320 0.699256 0.178287
H6    H     H_    0.066061 0.494156 0.300288 0.183111
H7    H     H_    0.343720 0.118397 0.322713 0.225360
H8    H     H_    0.655858 0.881539 0.677486 0.225163
N1    N     N_R   0.499970 0.499970 0.857200 -0.123731
N2    N     N_R   0.500030 0.500030 0.142800 -0.124147
O1    O     O_R   0.499990 0.316750 0.614620 -0.616606
O2    O     O_R   0.500010 0.683250 0.385380 -0.613427
O3    O     O_R   0.499990 0.316780 0.385290 -0.577422
O4    O     O_R   0.500010 0.683220 0.614710 -0.574397
O5    O     O_R   0.317810 0.500000 0.571850 -0.640382
O6    O     O_R   0.682190 0.500000 0.428150 -0.643564
O7    O     O_R   0.317810 0.500030 0.342520 -0.580204
O8    O     O_R   0.682190 0.499970 0.657480 -0.580178
Zn1   Zn    Zn3+2 0.500000 0.499980 0.653120 1.017438
Zn2   Zn    Zn3+2 0.500000 0.500020 0.346880 1.016167
C19   C     C_2   0.712365 0.607941 0.925030 0.939475
O9    O     O_2   0.698066 0.693469 0.842618 -0.610571
O10   O     O_R   0.835113 0.569713 0.993903 -0.821680
H9    H     H_    0.904300 0.617425 0.963391 0.355395
C20   C     C_2   0.287744 0.391786 0.074953 0.937814
O11   O     O_2   0.302158 0.306409 0.157563 -0.611351
O12   O     O_R   0.164932 0.429594 0.005745 -0.821909
H10   H     H_    0.095804 0.381728 0.036194 0.354909
C21   C     C_2   0.294709 0.874011 0.294317 0.926942
O13   O     O_2   0.248696 0.775518 0.321290 -0.637728
O14   O     O_R   0.242869 0.930689 0.166478 -0.777585
H11   H     H_    0.169386 0.880295 0.105081 0.356687
C22   C     C_2   0.704443 0.125762 0.706479 0.926649
O15   O     O_2   0.751127 0.223908 0.679585 -0.639543
O16   O     O_R   0.755133 0.069378 0.834775 -0.777493
H12   H     H_    0.828445 0.119703 0.896538 0.356208

loop_
_geom_bond_atom_site_label_1
_geom_bond_atom_site_label_2
_ccdc_geom_bond_type
C20   O11   D    
C8    C20   S    
C9    H6    S    
C15   C17   A    
C3    C9    S    
C3    O7    A    
C10   H5    S    
C5    N2    A    
C9    C11   D    
O10   H9    S    
C6    N1    A    
C16   C22   S    
C15   C21   S    
C11   C12   S    
O3    Zn2   S    
C1    O1    A    
C5    H3    S    
C21   O14   S    
O12   H10   S    
C14   H8    S    
C2    C17   S    
C20   O12   S    
C14   C17   A    
C13   H7    S    
C1    C18   S    
C10   C12   D    
C13   C18   A    
N1    Zn1   S    
C12   H1    S    
C16   C18   A    
O8    Zn1   S    
C14   C16   A    
C13   C15   A    
C8    N2    A    
C4    O6    A    
C11   H2    S    
O4    Zn1   S    
C2    O2    A    
C3    O5    A    
C4    C10   S    
C22   O15   D    
C6    H4    S    
C1    O3    A    
O7    Zn2   S    
C7    N1    A    
C4    O8    A    
O2    Zn2   S    
C2    O4    A    
O14   H11   S    
O1    Zn1   S    
C19   O9    D    
C5    C7    A    
C7    C19   S    
C6    C8    A    
N2    Zn2   S    
O6    Zn2   S    
O5    Zn1   S    
C19   O10   S    
C21   O13   D    
O16   H12   S    
C22   O16   S    
