data_mof_unit_7577.cif
_audit_creation_date              2012-12-10T19:27:31-0500
_audit_creation_method            fapswitch 2.2
_symmetry_space_group_name_H-M    P1
_symmetry_Int_Tables_number       1
_space_group_crystal_system       triclinic
_cell_length_a                    23.441945
_cell_length_b                    10.507845
_cell_length_c                    9.789628
_cell_angle_alpha                 90.099496
_cell_angle_beta                  90.425085
_cell_angle_gamma                 88.78882
_cell_volume                      2410.8153786

loop_
_atom_site_label
_atom_site_type_symbol
_atom_type_description
_atom_site_fract_x
_atom_site_fract_y
_atom_site_fract_z
_atom_type_partial_charge
C1    C     C_R   0.501720 0.257916 0.500237 0.871555
C2    C     C_R   0.498932 0.742326 0.499938 0.849320
C3    C     C_R   0.233784 0.553482 0.577087 -0.177700
C4    C     C_R   0.764344 0.423118 0.563793 -0.178421
C5    C     C_R   0.292894 0.556922 0.588684 0.159511
C6    C     C_R   0.705184 0.417467 0.569451 0.138710
C7    C     C_R   0.326931 0.492982 0.490635 -0.172250
C8    C     C_R   0.671821 0.509095 0.498269 -0.150679
C9    C     C_R   0.300744 0.432161 0.376932 0.160460
C10   C     C_R   0.697558 0.604630 0.418891 0.141936
C11   C     C_R   0.241509 0.445328 0.359751 -0.139161
C12   C     C_R   0.757166 0.602804 0.409048 -0.122183
C13   C     C_R   0.207903 0.502510 0.460897 0.214836
C14   C     C_R   0.790162 0.513613 0.482014 0.227381
C15   C     C_3   0.518764 0.037894 0.621227 0.304681
C16   C     C_3   0.483000 0.963036 0.379959 0.316816
C17   C     C_3   0.554133 0.952300 0.525284 -0.245358
C18   C     C_3   0.447704 0.048400 0.475902 -0.279579
C19   C     C_3   0.499405 0.877285 0.499870 -0.059151
C20   C     C_3   0.502303 0.123312 0.501171 -0.066524
C21   C     C_3   0.464544 0.961597 0.598618 -0.258779
C22   C     C_3   0.537346 0.039307 0.402492 -0.213802
C23   C     C_R   0.389470 0.497142 0.498633 0.878011
C24   C     C_R   0.610131 0.501457 0.500138 0.886470
C25   C     C_3   0.507983 0.385366 0.049180 -0.135570
C26   C     C_3   0.491614 0.614788 0.951504 -0.175680
C27   C     C_3   0.547092 0.457777 0.954728 0.316016
C28   C     C_3   0.452767 0.542219 0.046857 0.342894
C29   C     C_3   0.459676 0.428662 0.950529 -0.129135
C30   C     C_3   0.539982 0.571558 0.050107 -0.173849
C31   C     C_R   0.879274 0.620116 0.514322 0.509970
C32   C     C_R   0.118245 0.397776 0.417684 0.515085
C33   C     C_R   0.878855 0.409704 0.421031 0.525592
C34   C     C_R   0.118041 0.619468 0.472097 0.519505
C35   C     C_R   0.938256 0.406568 0.414157 -0.035129
C36   C     C_R   0.058724 0.622019 0.481944 -0.027898
C37   C     C_R   0.968592 0.514161 0.456155 -0.065489
C38   C     C_R   0.028553 0.511828 0.448875 -0.064390
C39   C     C_R   0.939139 0.623403 0.506463 -0.049438
C40   C     C_R   0.058297 0.399361 0.409226 -0.051233
C41   C     C_R   0.967604 0.298220 0.365997 -0.234031
C42   C     C_R   0.029512 0.731239 0.528260 -0.250516
C43   C     C_R   0.027163 0.292466 0.365209 0.212372
C44   C     C_R   0.970490 0.731431 0.546412 0.219742
H1    H     H_    0.944484 0.216001 0.330824 0.192195
H2    H     H_    0.052734 0.815183 0.557700 0.187053
H3    H     H_    0.515009 0.289849 0.095185 0.132962
H4    H     H_    0.483272 0.710176 0.906282 0.136462
H5    H     H_    0.425776 0.369911 0.904212 0.129654
H6    H     H_    0.574075 0.629564 0.096783 0.162656
H7    H     H_    0.207660 0.596342 0.656314 0.161014
H8    H     H_    0.790513 0.354176 0.619312 0.155566
H9    H     H_    0.597021 0.909879 0.546699 0.141113
H10   H     H_    0.404878 0.090790 0.453467 0.143666
N1    N     N_R   0.850892 0.514498 0.472165 -0.346179
N2    N     N_R   0.146813 0.507098 0.447439 -0.341564
N3    N     N_3   0.499960 0.500030 0.863290 -0.106782
N4    N     N_3   0.500040 0.499970 0.136710 -0.108094
O1    O     O_R   0.500000 0.313960 0.616610 -0.614807
O2    O     O_R   0.500000 0.686040 0.383390 -0.624963
O3    O     O_R   0.500030 0.313950 0.383350 -0.627595
O4    O     O_R   0.499970 0.686050 0.616650 -0.624957
O5    O     O_R   0.416140 0.499970 0.616650 -0.588831
O6    O     O_R   0.583860 0.500030 0.383350 -0.615083
O7    O     O_R   0.416170 0.499960 0.383400 -0.606323
O8    O     O_R   0.583830 0.500040 0.616600 -0.601997
O9    O     O_2   0.849254 0.720964 0.563339 -0.539193
O10   O     O_2   0.147792 0.287410 0.400876 -0.544936
O11   O     O_2   0.849031 0.309025 0.376437 -0.568209
O12   O     O_2   0.146901 0.728401 0.488349 -0.573151
Zn1   Zn    Zn3+2 0.499980 0.500010 0.655740 0.954382
Zn2   Zn    Zn3+2 0.500020 0.499990 0.344260 0.946227
N5    N     N_2   0.601222 0.412057 0.901938 -0.268445
H11   H     H_    0.622829 0.482588 0.852499 0.247428
C45   C     C_3   0.636909 0.345998 0.001300 -0.791245
H12   H     H_    0.678457 0.319088 0.954940 0.238277
H13   H     H_    0.616198 0.257520 0.035206 0.238924
H14   H     H_    0.645083 0.408249 0.091007 0.248113
N6    N     N_2   0.400726 0.589495 0.108704 -0.261690
H15   H     H_    0.407556 0.661096 0.178414 0.238362
C46   C     C_3   0.354581 0.618322 0.015433 -0.825825
H16   H     H_    0.315439 0.642166 0.074143 0.248414
H17   H     H_    0.345875 0.534215 0.950395 0.256406
H18   H     H_    0.365488 0.701338 0.951515 0.240055
N7    N     N_2   0.055038 0.181429 0.312563 -0.256824
H19   H     H_    0.039262 0.154310 0.218496 0.215744
C47   C     C_3   0.058111 0.075859 0.407050 -0.671033
H20   H     H_    0.085034 0.998032 0.363143 0.256277
H21   H     H_    0.014803 0.039188 0.425084 0.189770
H22   H     H_    0.077441 0.105673 0.505732 0.262720
N8    N     N_2   0.943612 0.839767 0.607693 -0.250288
H23   H     H_    0.959745 0.925150 0.575990 0.211862
C48   C     C_3   0.940543 0.832719 0.755039 -0.682452
H24   H     H_    0.915819 0.916133 0.794335 0.237149
H25   H     H_    0.984123 0.833383 0.800574 0.209240
H26   H     H_    0.918744 0.744817 0.786930 0.256202
N9    N     N_2   0.317161 0.628521 0.697149 -0.292204
H27   H     H_    0.290605 0.642545 0.779582 0.220855
C49   C     C_3   0.346196 0.743274 0.658290 -0.739055
H28   H     H_    0.321533 0.828701 0.692897 0.225919
H29   H     H_    0.352160 0.750459 0.545958 0.227530
H30   H     H_    0.388695 0.742839 0.708511 0.243032
N10   N     N_2   0.679610 0.316908 0.642854 -0.283123
H31   H     H_    0.703718 0.285830 0.725248 0.226863
C50   C     C_3   0.662079 0.211439 0.558276 -0.722646
H32   H     H_    0.699727 0.166300 0.507831 0.239801
H33   H     H_    0.630865 0.243688 0.479197 0.226297
H34   H     H_    0.641524 0.139190 0.622877 0.252928
N11   N     N_2   0.334596 0.356933 0.284042 -0.257813
H35   H     H_    0.364252 0.296917 0.330361 0.221815
C51   C     C_3   0.309540 0.304935 0.160985 -0.765198
H36   H     H_    0.343618 0.259997 0.097854 0.227513
H37   H     H_    0.288821 0.381770 0.099360 0.243773
H38   H     H_    0.278161 0.231298 0.187347 0.246684
N12   N     N_2   0.662809 0.699733 0.350691 -0.290832
H39   H     H_    0.625644 0.725631 0.400016 0.223949
C52   C     C_3   0.689053 0.804800 0.281313 -0.790476
H40   H     H_    0.655324 0.867868 0.236022 0.236402
H41   H     H_    0.716271 0.768980 0.196621 0.247785
H42   H     H_    0.714473 0.861506 0.354781 0.252477
H43   H     H_    0.220518 0.407865 0.270155 0.176076
H44   H     H_    0.778962 0.670836 0.346527 0.164252
N13   N     N_2   0.537824 0.084020 0.753137 -0.288169
H45   H     H_    0.508039 0.142482 0.800185 0.241999
C53   C     C_3   0.560925 0.987364 0.843934 -0.804708
H46   H     H_    0.576151 0.032730 0.939604 0.236439
H47   H     H_    0.597780 0.936910 0.796134 0.250008
H48   H     H_    0.527585 0.918007 0.869606 0.236351
N14   N     N_2   0.462297 0.917305 0.249603 -0.288808
H49   H     H_    0.425802 0.865291 0.259344 0.215705
C54   C     C_3   0.457295 0.012881 0.143983 -0.818285
H50   H     H_    0.441986 0.968345 0.047886 0.234159
H51   H     H_    0.499481 0.054753 0.124124 0.242856
H52   H     H_    0.426428 0.089259 0.174607 0.241308
H53   H     H_    0.436335 0.930311 0.681765 0.144944
H54   H     H_    0.566437 0.074759 0.322757 0.141250

loop_
_geom_bond_atom_site_label_1
_geom_bond_atom_site_label_2
_ccdc_geom_bond_type
C33   N1    A    
C47   H20   S    
C34   N2    A    
C48   H24   S    
C8    C24   S    
C18   C21   S    
N5    C45   S    
N5    H11   S    
C36   C42   A    
C51   H36   S    
C54   H52   S    
C52   H41   S    
N9    H27   S    
N13   H45   S    
C51   H37   S    
C29   H5    S    
N7    H19   S    
C31   O9    S    
C50   H33   S    
C15   N13   S    
C4    H8    S    
C28   C29   S    
C35   C37   A    
N11   C51   S    
C2    O2    A    
N13   C53   S    
O2    Zn2   S    
N12   H39   S    
C7    C9    A    
C42   H2    S    
C28   N6    S    
C46   H17   S    
C40   C43   A    
O8    Zn1   S    
N12   C52   S    
C53   H48   S    
C34   O12   S    
C18   C20   S    
C3    C13   A    
C33   O11   S    
C32   O10   S    
C13   N2    S    
C23   O5    A    
C14   N1    S    
C30   H6    S    
C24   O6    A    
C27   C30   S    
C9    N11   S    
C41   C43   A    
C11   H43   S    
C42   C44   A    
N9    C49   S    
C46   H16   S    
N7    C47   S    
C25   C29   S    
C15   C20   S    
C50   H34   S    
C21   H53   S    
C29   N3    S    
C52   H40   S    
C43   N7    S    
C26   H4    S    
C4    C6    A    
C27   N3    S    
C52   H42   S    
N8    H23   S    
N6    C46   S    
C3    H7    S    
C17   C19   S    
C6    C8    A    
C54   H51   S    
C45   H14   S    
C22   H54   S    
C45   H12   S    
C37   C38   A    
N8    C48   S    
C9    C11   A    
C49   H28   S    
N10   C50   S    
C6    N10   S    
N3    Zn1   S    
C16   N14   S    
C45   H13   S    
C44   N8    S    
C10   C12   A    
O3    Zn2   S    
C8    C10   A    
C49   H29   S    
O5    Zn1   S    
C26   C30   S    
C48   H26   S    
C28   N4    S    
C47   H21   S    
C53   H46   S    
C25   N4    S    
C20   C22   S    
C54   H50   S    
C17   H9    S    
C46   H18   S    
C5    C7    A    
N14   H49   S    
C15   C17   S    
C25   H3    S    
C1    C20   S    
C16   C22   S    
C19   C21   S    
C2    C19   S    
C12   C14   A    
C3    C5    A    
C1    O3    A    
C39   C44   A    
C24   O8    A    
C25   C27   S    
O7    Zn2   S    
C50   H32   S    
C26   C28   S    
C17   C22   S    
C23   O7    A    
C1    O1    A    
C37   C39   A    
N11   H35   S    
C38   C40   A    
C11   C13   A    
N4    Zn2   S    
C48   H25   S    
C16   C19   S    
C7    C23   S    
C30   N4    S    
C36   C38   A    
C33   C35   A    
C31   C39   A    
O4    Zn1   S    
C5    N9    S    
C51   H38   S    
C34   C36   A    
C32   C40   A    
C4    C14   A    
C35   C41   A    
C26   N3    S    
C18   H10   S    
N6    H15   S    
C15   C21   S    
C49   H30   S    
C12   H44   S    
C16   C18   S    
C47   H22   S    
N10   H31   S    
C53   H47   S    
C41   H1    S    
C31   N1    A    
C27   N5    S    
C32   N2    A    
C10   N12   S    
C2    O4    A    
O6    Zn2   S    
O1    Zn1   S    
N14   C54   S    
