data_mof_unit_52995.cif
_audit_creation_date              2013-03-05T16:19:20-0500
_audit_creation_method            fapswitch 2.2
_symmetry_space_group_name_H-M    P1
_symmetry_Int_Tables_number       1
_space_group_crystal_system       triclinic
_cell_length_a                    10.622078
_cell_length_b                    9.74828
_cell_length_c                    23.413129
_cell_angle_alpha                 90.511499
_cell_angle_beta                  90.837499
_cell_angle_gamma                 90.173986
_cell_volume                      2423.9912997

loop_
_atom_site_label
_atom_site_type_symbol
_atom_site_description
_atom_site_fract_x
_atom_site_fract_y
_atom_site_fract_z
_atom_type_partial_charge
O1    O     O_R   0.314910 0.616040 0.499990 -0.641302
O2    O     O_R   0.314910 0.383960 0.499990 -0.643957
C1    C     C_R   0.258022 0.499711 0.497561 0.851262
O3    O     O_R   0.500080 0.616070 0.416130 -0.632556
O4    O     O_R   0.500080 0.383930 0.416130 -0.635351
C2    C     C_R   0.500311 0.499409 0.389296 0.849296
Zn1   Zn    Zn3+2 0.500150 0.654960 0.499970 0.965067
Zn2   Zn    Zn3+2 0.500150 0.345040 0.499970 0.952844
O5    O     O_R   0.685320 0.616040 0.499970 -0.590363
O6    O     O_R   0.685320 0.383960 0.499970 -0.607773
O7    O     O_R   0.500150 0.616010 0.583820 -0.605821
O8    O     O_R   0.500150 0.383990 0.583820 -0.589953
C3    C     C_R   0.742183 0.499907 0.498278 0.858701
C4    C     C_R   0.499748 0.500091 0.610416 0.933761
C5    C     C_R   0.610600 0.452788 0.879974 0.500581
N1    N     N_R   0.501759 0.487003 0.851673 -0.348334
C6    C     C_R   0.394647 0.521567 0.879755 0.519989
C7    C     C_R   0.393361 0.521336 0.939195 -0.014434
C8    C     C_R   0.505783 0.492018 0.969566 -0.010064
C9    C     C_R   0.618347 0.462486 0.940071 -0.107427
C10   C     C_R   0.282383 0.550679 0.968688 -0.124067
C11   C     C_R   0.281908 0.550353 0.027977 -0.129598
C12   C     C_R   0.392547 0.521355 0.058819 -0.022229
C13   C     C_R   0.504855 0.492284 0.029639 -0.016135
C14   C     C_R   0.615842 0.463410 0.060565 -0.061404
C15   C     C_R   0.727840 0.438077 0.031650 -0.122332
C16   C     C_R   0.731915 0.440706 0.971909 -0.024185
C17   C     C_R   0.394036 0.520893 0.118457 0.512668
N2    N     N_R   0.503084 0.492724 0.147573 -0.360405
C18   C     C_R   0.612759 0.464101 0.120248 0.519459
O9    O     O_2   0.708433 0.405191 0.849669 -0.544316
O10   O     O_2   0.289852 0.556467 0.850014 -0.547492
H1    H     H_    0.195312 0.573371 0.946069 0.201806
H2    H     H_    0.194692 0.572967 0.049497 0.203105
O11   O     O_2   0.287621 0.547767 0.147281 -0.537943
O12   O     O_2   0.718423 0.437609 0.150897 -0.536311
H3    H     H_    0.814109 0.420937 0.055823 0.223876
C19   C     C_R   0.506477 0.370845 0.237960 -0.090676
H4    H     H_    0.509665 0.274012 0.214999 0.143642
C20   C     C_R   0.505691 0.372323 0.297221 -0.221356
H5    H     H_    0.508538 0.275524 0.319547 0.155088
C21   C     C_R   0.501276 0.497817 0.327044 -0.044248
C22   C     C_R   0.497930 0.621626 0.296891 -0.192756
H6    H     H_    0.494667 0.719641 0.318969 0.156129
C23   C     C_R   0.498490 0.619711 0.237617 -0.086917
H7    H     H_    0.495860 0.715240 0.214376 0.141777
C24   C     C_R   0.502678 0.494419 0.208286 0.312617
C25   C     C_R   0.422903 0.399672 0.759458 -0.052830
H8    H     H_    0.363482 0.326815 0.781102 0.159289
C26   C     C_R   0.421763 0.403996 0.700168 -0.191371
H9    H     H_    0.360889 0.334450 0.676129 0.147848
C27   C     C_R   0.498624 0.498342 0.672211 -0.043162
C28   C     C_R   0.578603 0.585607 0.703528 -0.086346
H10   H     H_    0.643946 0.651963 0.682242 0.228481
C29   C     C_R   0.578998 0.582314 0.762713 -0.091589
H11   H     H_    0.640700 0.650658 0.786864 0.160394
C30   C     C_R   0.500974 0.489589 0.790779 0.284871
C31   C     C_3   0.071976 0.606471 0.452917 -0.385979
C32   C     C_3   0.076096 0.535684 0.557055 -0.474036
H12   H     H_    0.103280 0.577097 0.409270 0.181843
H13   H     H_    0.119211 0.464289 0.588691 0.158158
H14   H     H_    0.111757 0.710111 0.462452 0.176175
H15   H     H_    0.108506 0.640853 0.569282 0.189713
C33   C     C_3   0.927325 0.614481 0.455960 -0.168352
C34   C     C_3   0.931339 0.530141 0.558357 -0.196157
H16   H     H_    0.902829 0.716085 0.474925 0.182080
H17   H     H_    0.897587 0.633067 0.572199 0.219167
H18   H     H_    0.109007 0.324761 0.436055 0.178159
H19   H     H_    0.101329 0.277156 0.510004 0.185405
H20   H     H_    0.896032 0.337504 0.430410 0.170047
H21   H     H_    0.891558 0.272019 0.500949 0.225863
C35   C     C_3   0.071144 0.355638 0.478365 -0.398102
C36   C     C_3   0.121817 0.499435 0.496389 0.127987
C37   C     C_3   0.878863 0.499521 0.496732 -0.014313
C38   C     C_3   0.928055 0.357871 0.475103 -0.426444
C39   C     C_3   0.375135 0.080459 0.480478 -0.355144
C40   C     C_3   0.377172 0.917848 0.477684 -0.349662
H22   H     H_    0.347224 0.121848 0.438020 0.187291
H23   H     H_    0.358262 0.882273 0.433066 0.184387
H24   H     H_    0.300967 0.114345 0.510498 0.160014
H25   H     H_    0.298542 0.877181 0.503456 0.169756
H26   H     H_    0.564216 0.111396 0.413439 0.148354
H27   H     H_    0.581538 0.876938 0.416181 0.156422
C41   C     C_3   0.591395 0.080547 0.457583 -0.249012
C42   C     C_3   0.596473 0.919324 0.460034 -0.226530
C43   C     C_3   0.526404 0.083735 0.556999 0.225864
C44   C     C_3   0.518318 0.921858 0.557714 0.227421
N3    N     N_3   0.499750 0.138610 0.498760 -0.106864
N4    N     N_3   0.499750 0.861390 0.498760 -0.099897
H28   H     H_    0.450408 0.121399 0.585493 0.065499
H29   H     H_    0.432596 0.895451 0.582422 0.052600
H30   H     H_    0.686160 0.125898 0.463930 0.200268
H31   H     H_    0.692476 0.886327 0.472228 0.214213
C45   C     C_2   0.867852 0.610164 0.396758 0.414260
H32   H     H_    0.810269 0.523826 0.382710 0.053673
O13   O     O_2   0.884559 0.704761 0.363870 -0.553134
C46   C     C_2   0.887920 0.427137 0.601944 0.492029
H33   H     H_    0.916726 0.320709 0.598924 0.122053
O14   O     O_2   0.821716 0.463224 0.641455 -0.538748
N5    N     N_R   0.645887 0.136836 0.581556 0.258423
O15   O     O_R   0.753597 0.106744 0.559021 -0.418899
O16   O     O_R   0.646347 0.191682 0.632444 -0.320587
N6    N     N_R   0.623244 0.862641 0.590714 0.248910
O17   O     O_R   0.727777 0.826337 0.566953 -0.382812
O18   O     O_R   0.623743 0.880795 0.645830 -0.388791
C47   C     C_2   0.857964 0.431596 0.945392 0.484759
H34   H     H_    0.878279 0.486568 0.906569 0.124792
O19   O     O_2   0.942540 0.365784 0.967906 -0.559672

loop_
_geom_bond_atom_site_label_1
_geom_bond_atom_site_label_2
_geom_bond_distance
_ccdc_geom_bond_type
C31   H14   1.113430 S    
H21   C38   1.109422 S    
C29   H11   1.083024 S    
C44   H29   1.116532 S    
C7    C10   1.403769 A    
C8    C9    1.418468 A    
C46   H33   1.084558 S    
C25   C30   1.400049 A    
C28   H10   1.077812 S    
Zn1   O7    2.002894 S    
C40   N4    1.494028 S    
C15   C16   1.400486 A    
N2    C24   1.421488 S    
C17   N2    1.365282 A    
C39   H22   1.112715 S    
C35   C38   1.520938 S    
C19   H4    1.082988 S    
O7    C4    1.295111 A    
C43   N3    1.492734 S    
C10   H1    1.083422 S    
C47   H34   1.083368 S    
C31   H12   1.114515 S    
C5    N1    1.367778 A    
Zn1   N4    2.012807 S    
C7    C8    1.412162 A    
C23   C24   1.397006 A    
O5    C3    1.285337 A    
C42   H31   1.104531 S    
C4    C27   1.447278 S    
C17   O11   1.350066 S    
N1    C6    1.364016 A    
C34   H17   1.113572 S    
C26   C27   1.400952 A    
C12   C13   1.411601 A    
C13   C14   1.405014 A    
C43   N5    1.476020 S    
C32   C36   1.546103 S    
Zn2   O8    1.996239 S    
C20   C21   1.404425 A    
C10   C11   1.388247 A    
O3    Zn1   1.995894 S    
C46   O14   1.220133 D    
C26   H9    1.083696 S    
C28   C29   1.386305 A    
C31   C33   1.541370 S    
C5    C9    1.410564 A    
C11   H2    1.083325 S    
C32   H13   1.115334 S    
C37   C38   1.560721 S    
C39   H24   1.112398 S    
C41   C42   1.574268 S    
O3    C2    1.294358 A    
C43   H28   1.115656 S    
C42   N4    1.493135 S    
C43   C44   1.580345 S    
C16   C47   1.486621 S    
C14   C15   1.398892 A    
C23   H7    1.082986 S    
C34   C37   1.565040 S    
O1    C1    1.283762 A    
C33   H16   1.114884 S    
H19   C35   1.114227 S    
C22   H6    1.083163 S    
N2    C18   1.365618 A    
C40   H25   1.111680 S    
H18   C35   1.113894 S    
N5    O16   1.301480 A    
C6    C7    1.391960 A    
C40   H23   1.113045 S    
N6    O18   1.300879 A    
C12   C17   1.396227 A    
C39   C40   1.586164 S    
C45   O13   1.220854 D    
C22   C23   1.387851 A    
C19   C24   1.396393 A    
C44   N6    1.469385 S    
C20   H5    1.083097 S    
H27   C42   1.112363 S    
O8    C4    1.286953 A    
H26   C41   1.113258 S    
C44   N4    1.506124 S    
C21   C22   1.403957 A    
H20   C38   1.111548 S    
C27   C28   1.396169 A    
C14   C18   1.398182 A    
Zn1   O5    2.004280 S    
C39   N3    1.493723 S    
C25   H8    1.082893 S    
O1    Zn1   2.002753 S    
O2    Zn2   2.005014 S    
C41   N3    1.489462 S    
C35   C36   1.552731 S    
O6    C3    1.281128 A    
O4    Zn2   2.002541 S    
C15   H3    1.084153 S    
C5    O9    1.348055 S    
C9    C16   1.426205 A    
C32   H15   1.114130 S    
C18   O12   1.350139 S    
C29   C30   1.399176 A    
C8    C13   1.406650 A    
C34   C46   1.513805 S    
C32   C34   1.539163 S    
C19   C20   1.387563 A    
O4    C2    1.294081 A    
C47   O19   1.221559 D    
C25   C26   1.389051 A    
N5    O15   1.300126 A    
O2    C1    1.282920 A    
N1    C30   1.426065 S    
C45   H32   1.084774 S    
C1    C36   1.446627 S    
C33   C45   1.515030 S    
C3    C37   1.452816 S    
Zn2   O6    2.002018 S    
C2    C21   1.457628 S    
N6    O17   1.297908 A    
C6    O10   1.350397 S    
C33   C37   1.569111 S    
C11   C12   1.401189 A    
C41   H30   1.105685 S    
Zn2   N3    2.012276 S    
C31   C36   1.552905 S    
