data_mof_unit_22828.cif
_audit_creation_date              2012-12-11T14:35:56-0500
_audit_creation_method            fapswitch 2.2
_symmetry_space_group_name_H-M    P1
_symmetry_Int_Tables_number       1
_space_group_crystal_system       triclinic
_cell_length_a                    13.468083
_cell_length_b                    13.534189
_cell_length_c                    27.460407
_cell_angle_alpha                 90.715878
_cell_angle_beta                  90.347462
_cell_angle_gamma                 59.94988
_cell_volume                      4332.33621655

loop_
_atom_site_label
_atom_site_type_symbol
_atom_type_description
_atom_site_fract_x
_atom_site_fract_y
_atom_site_fract_z
_atom_type_partial_charge
C1    C     C_R   0.620363 0.100809 0.570348 0.548486
C2    C     C_1   0.661872 0.685622 0.654862 0.002369
C3    C     C_3   0.105257 0.115839 0.737505 -0.080359
C4    C     C_R   0.600516 0.778569 0.568418 0.545519
C5    C     C_3   0.200421 0.062477 0.776889 -0.059500
C6    C     C_1   0.092958 0.203772 0.901243 0.055344
C7    C     C_1   0.228471 0.139676 0.617184 0.013591
C8    C     C_3   0.043805 0.228691 0.767570 -0.129048
C9    C     C_3   0.139431 0.174935 0.806168 0.055870
C10   C     C_3   0.113571 0.273995 0.740560 -0.109272
C11   C     C_3   0.174686 0.161207 0.711435 -0.021059
C12   C     C_1   0.637603 0.722716 0.614276 0.023936
C13   C     C_3   0.208075 0.219846 0.779617 0.271530
C14   C     C_3   0.270508 0.107601 0.749951 -0.056324
C15   C     C_1   0.118133 0.186483 0.858742 0.055744
C16   C     C_R   0.277730 0.122010 0.569568 0.546171
C17   C     C_1   0.199142 0.151052 0.659179 -0.029029
C18   C     C_3   0.695355 0.228075 0.740552 -0.097758
C19   C     C_3   0.590719 0.277539 0.775189 0.217315
C20   C     C_1   0.687064 0.205497 0.904396 0.065981
C21   C     C_1   0.634853 0.130018 0.619128 0.018036
C22   C     C_3   0.760319 0.127552 0.775892 0.193296
C23   C     C_3   0.704079 0.521286 0.757728 -0.110366
C24   C     C_3   0.656488 0.178079 0.810353 0.062645
C25   C     C_3   0.714856 0.056992 0.749243 -0.081128
C26   C     C_3   0.648114 0.158572 0.714663 -0.064972
C27   C     C_3   0.610136 0.109244 0.783836 0.217497
C28   C     C_R   0.624350 0.101528 0.432450 0.566229
C29   C     C_3   0.542280 0.209399 0.748459 -0.047183
C30   C     C_1   0.668327 0.191632 0.862698 0.102583
C31   C     C_1   0.642452 0.146029 0.661871 -0.017776
C32   C     C_R   0.732691 0.706140 0.358347 -0.115886
C33   C     C_R   0.743458 0.690357 0.307847 0.008476
C34   C     C_3   0.706156 0.598488 0.798965 0.017815
C35   C     C_R   0.759842 0.668127 0.206090 -0.005282
C36   C     C_R   0.851136 0.661176 0.233503 -0.092708
C37   C     C_R   0.842472 0.673477 0.284046 -0.071326
C38   C     C_R   0.771859 0.644440 0.156251 -0.164245
C39   C     C_R   0.680699 0.648461 0.129594 0.015969
C40   C     C_R   0.601380 0.776572 0.430006 0.542828
C41   C     C_R   0.547040 0.717627 0.354418 -0.085806
C42   C     C_R   0.552085 0.710885 0.303885 0.017193
C43   C     C_R   0.651051 0.697228 0.280409 0.024780
C44   C     C_R   0.458284 0.723196 0.276208 0.216538
C45   C     C_3   0.600472 0.626995 0.735336 0.302276
C46   C     C_R   0.462518 0.724104 0.225712 -0.069195
C47   C     C_R   0.562074 0.706126 0.201825 -0.017236
C48   C     C_R   0.657516 0.690800 0.229429 0.012672
C49   C     C_R   0.571103 0.695816 0.151066 0.225385
C50   C     C_R   0.632309 0.724417 0.381408 -0.021399
C51   C     C_R   0.186358 0.072947 0.361942 -0.102966
C52   C     C_R   0.275454 0.122134 0.431685 0.543704
C53   C     C_R   0.153382 0.090949 0.312915 0.022534
C54   C     C_R   0.118382 0.111420 0.211873 0.017530
C55   C     C_R   0.115168 0.023339 0.236886 -0.103455
C56   C     C_3   0.682198 0.650836 0.705803 -0.003208
C57   C     C_R   0.132577 0.013307 0.287127 -0.065981
C58   C     C_R   0.100914 0.122067 0.161649 -0.108247
C59   C     C_R   0.099278 0.213357 0.137241 -0.006721
C60   C     C_R   0.180290 0.255057 0.364414 -0.094353
C61   C     C_R   0.156361 0.270428 0.314828 -0.027710
C62   C     C_R   0.147451 0.185234 0.288525 0.009549
C63   C     C_R   0.149500 0.364823 0.290566 0.255325
C64   C     C_3   0.786705 0.545640 0.727594 -0.171359
C65   C     C_R   0.147408 0.367256 0.239592 0.242850
C66   C     C_R   0.137257 0.282744 0.213107 -0.022752
C67   C     C_3   0.602830 0.702757 0.776765 0.309714
C68   C     C_R   0.133968 0.193419 0.237836 0.013486
C69   C     C_R   0.123926 0.288919 0.162613 -0.098511
C70   C     C_R   0.207508 0.151639 0.386688 -0.018062
C71   C     C_R   0.566127 0.239934 0.365004 -0.138647
C72   C     C_R   0.577634 0.261019 0.316250 -0.001365
C73   C     C_R   0.589095 0.288425 0.215390 -0.023237
C74   C     C_R   0.502547 0.375954 0.243359 -0.061028
C75   C     C_R   0.495785 0.362339 0.293370 0.265767
C76   C     C_3   0.789084 0.622265 0.769741 -0.146999
C77   C     C_R   0.597698 0.302165 0.165282 -0.117751
C78   C     C_3   0.684315 0.728062 0.747096 -0.105588
C79   C     C_R   0.686404 0.214084 0.138066 0.006071
C80   C     C_R   0.756434 0.072394 0.363462 0.255507
C81   C     C_R   0.760584 0.078493 0.312368 0.030551
C82   C     C_R   0.670156 0.175444 0.289004 -0.049839
C83   C     C_R   0.847955 0.990564 0.283305 0.247835
C84   C     C_R   0.844608 0.001123 0.232952 -0.116238
C85   C     C_R   0.758787 0.098717 0.210543 -0.022489
C86   C     C_R   0.672403 0.187440 0.238330 0.041093
C87   C     C_R   0.761441 0.110131 0.160587 -0.114613
C88   C     C_1   0.722655 0.546205 0.893010 0.048268
C89   C     C_1   0.715963 0.570379 0.850646 0.037422
C90   C     C_R   0.651675 0.142005 0.387711 -0.017602
C91   C     C_R   0.048411 0.236741 0.949630 0.548053
C92   C     C_R   0.731693 0.513707 0.942934 0.546032
C93   C     C_R   0.721154 0.225151 0.951330 0.540970
C94   C     C_R   0.047171 0.245700 0.088870 0.551456
C95   C     C_R   0.706327 0.578295 0.085277 0.583024
C96   C     C_R   0.719519 0.234501 0.090008 0.544602
Cl1   Cl    Cl    0.274344 0.290496 0.808565 -0.502310
Cl2   Cl    Cl    0.480825 0.806254 0.809858 -0.477065
Cl3   Cl    Cl    0.956672 0.858189 0.305381 -0.487150
Cl4   Cl    Cl    0.882378 0.994609 0.398828 -0.475882
Cl5   Cl    Cl    0.474818 0.631726 0.711535 -0.454875
Cl6   Cl    Cl    0.506001 0.422862 0.793813 -0.463908
Cl7   Cl    Cl    0.554934 0.030278 0.813067 -0.511349
Cl8   Cl    Cl    0.904930 0.070914 0.795259 -0.620967
Cl9   Cl    Cl    0.446747 0.738974 0.114722 -0.562300
Cl10  Cl    Cl    0.332449 0.739420 0.302908 -0.529750
Cl11  Cl    Cl    0.160460 0.475487 0.209735 -0.557945
Cl12  Cl    Cl    0.142186 0.481472 0.323445 -0.460160
Cl13  Cl    Cl    0.387693 0.477061 0.326733 -0.419273
Cr1   Cr    Cr6+3 0.417550 0.169090 0.500530 1.069089
Cr2   Cr    Cr6+3 0.669180 0.913420 0.499920 1.095735
Cr3   Cr    Cr6+3 0.413260 0.917540 0.499520 1.081673
Cr4   Cr    Cr6+3 0.909170 0.177380 0.020380 1.069221
Cr5   Cr    Cr6+3 0.912710 0.429210 0.018220 1.068360
Cr6   Cr    Cr6+3 0.657170 0.432570 0.019030 1.112370
H1    H     H_    0.867122 0.619850 0.784566 0.164883
H2    H     H_    0.675767 0.813317 0.742278 0.162680
H3    H     H_    0.190882 0.318158 0.384671 0.205350
H4    H     H_    0.488585 0.296577 0.384902 0.199659
H5    H     H_    0.439974 0.454930 0.226387 0.190069
H6    H     H_    0.712764 0.436427 0.763263 0.151811
H7    H     H_    0.234752 0.976020 0.792304 0.216757
H8    H     H_    0.063070 0.073090 0.719090 0.186984
H9    H     H_    0.078799 0.360741 0.725326 0.138730
H10   H     H_    0.950384 0.278457 0.775345 0.143790
H11   H     H_    0.766608 0.965802 0.738194 0.156933
H12   H     H_    0.731535 0.275147 0.721819 0.137968
H13   H     H_    0.862156 0.481139 0.706655 0.131045
H14   H     H_    0.388913 0.733796 0.205580 0.208870
H15   H     H_    0.470902 0.729219 0.372622 0.211275
H16   H     H_    0.081945 0.063274 0.142165 0.143296
H17   H     H_    0.130135 0.944761 0.305859 0.230709
H18   H     H_    0.122776 0.358503 0.143202 0.195911
H19   H     H_    0.539529 0.382724 0.148196 0.151958
H20   H     H_    0.829460 0.040561 0.139927 0.142483
H21   H     H_    0.910632 0.932632 0.211108 0.149423
H22   H     H_    0.363895 0.058434 0.742116 0.183915
H23   H     H_    0.452494 0.243330 0.736100 0.191404
H24   H     H_    0.854901 0.613587 0.139275 0.152109
H25   H     H_    0.799172 0.710368 0.379162 0.168628
H26   H     H_    0.928903 0.646518 0.215790 0.197815
H27   H     H_    0.913396 0.668809 0.304603 0.230501
H28   H     H_    0.202630 0.995019 0.379601 0.170955
H29   H     H_    0.100259 0.961670 0.217550 0.147686
O1    O     O_R   0.301710 0.195650 0.554160 -0.498812
O2    O     O_R   0.635520 0.542770 0.964420 -0.454445
O3    O     O_R   0.665950 0.325030 0.970100 -0.503680
O4    O     O_R   0.522390 0.158990 0.550460 -0.490925
O5    O     O_R   0.816620 0.158530 0.074540 -0.519251
O6    O     O_R   0.004460 0.188870 0.069750 -0.495441
O7    O     O_R   0.025800 0.341780 0.072300 -0.510407
O8    O     O_R   0.807650 0.528950 0.067500 -0.509199
O9    O     O_R   0.633420 0.550490 0.071810 -0.442081
O10   O     O_R   0.664000 0.332180 0.069640 -0.493501
O11   O     O_3   0.826350 0.346390 0.019210 -0.298325
O12   O     O_R   0.658900 0.818120 0.449760 -0.492348
O13   O     O_R   0.694390 0.003530 0.554040 -0.493977
O14   O     O_R   0.657700 0.819660 0.549320 -0.501567
O15   O     O_R   0.501930 0.803280 0.552920 -0.482316
O16   O     O_R   0.318170 0.023580 0.549580 -0.487186
O17   O     O_R   0.303010 0.193990 0.446760 -0.510584
O18   O     O_R   0.523600 0.157450 0.450900 -0.508077
O19   O     O_R   0.695690 0.001860 0.446640 -0.441837
O20   O     O_R   0.503220 0.801620 0.445520 -0.509504
O21   O     O_R   0.319370 0.022040 0.450020 -0.492135
O22   O     O_3   0.499990 0.000010 0.499990 -0.272672
O23   O     O_R   0.818720 0.150820 0.967160 -0.484365
O24   O     O_R   0.006410 0.181720 0.970200 -0.484334
O25   O     O_R   0.027890 0.334070 0.964920 -0.496281
O26   O     O_R   0.809600 0.521790 0.967960 -0.485698

loop_
_geom_bond_atom_site_label_1
_geom_bond_atom_site_label_2
_ccdc_geom_bond_type
Cr5   O25   S    
C66   C68   A    
C20   C93   S    
C63   C65   A    
C1    C21   S    
C23   C45   S    
Cr3   O15   S    
C27   C29   S    
C41   C42   A    
C41   C50   A    
C57   H17   S    
C35   C36   A    
C18   C26   S    
C24   C27   S    
Cr5   O8    S    
C25   H11   S    
C2    C12   T    
Cr4   O24   S    
C79   C87   A    
C81   C82   A    
Cr1   O18   S    
C28   O18   A    
C47   C49   A    
C20   C30   T    
C85   C86   A    
C29   H23   S    
C21   C31   T    
Cr6   O2    S    
C36   C37   A    
Cr2   O14   S    
Cr4   O11   S    
C32   H25   S    
C10   H9    S    
C41   H15   S    
C18   H12   S    
C19   Cl6   S    
C66   C69   A    
C54   C68   A    
Cr3   O21   S    
C6    C91   S    
Cr6   O3    S    
C56   C78   S    
C18   C19   S    
C73   C74   A    
C61   C63   A    
C9    C13   S    
C67   Cl2   S    
C76   H1    S    
C6    C15   T    
C46   C47   A    
C96   O10   A    
C88   C92   S    
C45   C56   S    
C92   O26   A    
C8    C9    S    
C7    C17   T    
C22   C25   S    
C45   C67   S    
C38   H24   S    
C56   C64   S    
C60   H3    S    
C59   C94   S    
C4    C12   S    
Cr1   O1    S    
Cr2   O12   S    
C52   O17   A    
C85   C87   A    
C26   C31   S    
C83   Cl3   S    
C13   C14   S    
C80   Cl4   S    
C80   C90   A    
C67   C78   S    
C42   C44   A    
Cr5   O7    S    
C46   H14   S    
C72   C75   A    
Cr1   O4    S    
C35   C48   A    
C81   C83   A    
Cr1   O17   S    
C3    H8    S    
C24   C30   S    
C77   C79   A    
Cr3   O20   S    
C4    O14   A    
C75   Cl13  S    
C9    C15   S    
C74   C75   A    
C91   O25   A    
C92   O2    A    
C33   C43   A    
C47   C48   A    
C87   H20   S    
C91   O24   A    
C35   C38   A    
Cr2   O19   S    
C84   C85   A    
C23   H6    S    
C3    C8    S    
C37   H27   S    
C53   C57   A    
C49   Cl9   S    
C44   C46   A    
C64   H13   S    
C25   C26   S    
C82   C86   A    
C5    H7    S    
C33   C37   A    
C60   C61   A    
C95   O9    A    
C36   H26   S    
C5    C9    S    
Cr4   O5    S    
C52   O21   A    
C3    C11   S    
C53   C62   A    
C40   O12   A    
C83   C84   A    
C14   H22   S    
C60   C70   A    
C58   H16   S    
C23   C34   S    
Cr3   O22   S    
C78   H2    S    
C64   C76   S    
Cr2   O22   S    
C88   C89   T    
C32   C50   A    
C5    C14   S    
C45   Cl5   S    
C59   C69   A    
C23   C64   S    
C39   C49   A    
C44   Cl10  S    
C55   C57   A    
C51   C70   A    
C72   C82   A    
C22   C24   S    
C94   O7    A    
C94   O6    A    
C42   C43   A    
C19   C29   S    
Cr5   O11   S    
C54   C58   A    
Cr5   O26   S    
C54   C55   A    
C84   H21   S    
C69   H18   S    
C55   H29   S    
Cr3   O16   S    
Cr6   O11   S    
C18   C22   S    
Cr4   O6    S    
C7    C16   S    
C76   C78   S    
C80   C81   A    
C3    C5    S    
C10   C13   S    
C11   C17   S    
C34   C67   S    
Cr4   O23   S    
C40   O20   A    
C51   H28   S    
C25   C27   S    
C74   H5    S    
C71   H4    S    
C43   C48   A    
C32   C33   A    
C1    O13   A    
C19   C24   S    
Cr2   O13   S    
C34   C89   S    
C71   C72   A    
Cr6   O10   S    
C2    C56   S    
C22   Cl8   S    
Cr1   O22   S    
C38   C39   A    
C71   C90   A    
C40   C50   S    
C96   O5    A    
C27   Cl7   S    
C11   C14   S    
C93   O3    A    
C39   C95   S    
C62   C68   A    
C13   Cl1   S    
C61   C62   A    
C58   C59   A    
C73   C86   A    
C52   C70   S    
C10   C11   S    
C4    O15   A    
C8    H10   S    
C79   C96   S    
C16   O16   A    
C93   O23   A    
C26   C29   S    
C8    C10   S    
C65   C66   A    
C77   H19   S    
C73   C77   A    
C16   O1    A    
C1    O4    A    
C28   C90   S    
C95   O8    A    
C51   C53   A    
C63   Cl12  S    
C65   Cl11  S    
Cr6   O9    S    
C28   O19   A    
C34   C76   S    
