data_mof_unit_8578.cif
_audit_creation_date              2012-12-10T16:47:51-0500
_audit_creation_method            fapswitch 2.2
_symmetry_space_group_name_H-M    P1
_symmetry_Int_Tables_number       1
_space_group_crystal_system       triclinic
_cell_length_a                    7.758672
_cell_length_b                    8.58047
_cell_length_c                    10.678558
_cell_angle_alpha                 90.728234
_cell_angle_beta                  86.078666
_cell_angle_gamma                 93.453854
_cell_volume                      707.925322071

loop_
_atom_site_label
_atom_site_type_symbol
_atom_type_description
_atom_site_fract_x
_atom_site_fract_y
_atom_site_fract_z
_atom_type_partial_charge
Br1   Br    Br    0.783817 0.022647 0.372120 -0.502936
C1    C     C_R   0.545352 0.794226 0.490195 0.891953
C2    C     C_2   0.568430 0.954949 0.465063 0.092951
C3    C     C_R   0.736685 0.298338 0.859760 0.172991
C4    C     C_R   0.916903 0.328634 0.857498 -0.155392
C5    C     C_R   0.027924 0.225103 0.796453 -0.112539
C6    C     C_R   0.959900 0.090178 0.738617 -0.085168
C7    C     C_R   0.780852 0.058643 0.741597 -0.093098
C8    C     C_R   0.669225 0.162688 0.801200 -0.131011
C9    C     C_2   0.434207 0.041998 0.498760 -0.449866
C10   C     C_R   0.502196 0.496185 0.737305 0.904886
C11   C     C_R   0.454928 0.205382 0.497685 0.972127
C12   C     C_R   0.496088 0.491467 0.262711 0.957962
C13   C     C_2   0.624770 0.421790 0.061463 -0.168996
C14   C     C_2   0.484788 0.460205 0.132352 -0.345042
C15   C     C_2   0.618637 0.406437 0.926685 0.020449
C16   C     C_2   0.509139 0.493525 0.869473 -0.387127
H1    H     H_    0.746574 0.403437 0.102117 0.184939
H2    H     H_    0.728696 0.952988 0.698424 0.126778
H3    H     H_    0.530661 0.136966 0.802882 0.101468
H4    H     H_    0.357930 0.463414 0.095679 0.151990
H5    H     H_    0.425454 0.573084 0.920137 0.147002
H6    H     H_    0.311131 0.992985 0.540155 0.159505
H7    H     H_    0.013592 0.382130 0.406702 0.216945
H8    H     H_    0.986356 0.617580 0.593547 0.190971
H9    H     H_    0.971125 0.432551 0.902381 0.127072
H10   H     H_    0.166667 0.248829 0.794693 0.142242
H11   H     H_    0.045835 0.009503 0.692236 0.126735
N1    N     N_2   0.950320 0.457950 0.466680 -0.149192
N2    N     N_2   0.049680 0.542050 0.533320 -0.165957
O1    O     O_R   0.389250 0.738570 0.508180 -0.629868
O2    O     O_R   0.678390 0.711630 0.486820 -0.599338
O3    O     O_R   0.355470 0.513470 0.691600 -0.629630
O4    O     O_R   0.644610 0.486520 0.670240 -0.610863
O5    O     O_R   0.321610 0.288370 0.513180 -0.632321
O6    O     O_R   0.610750 0.261430 0.491820 -0.560579
O7    O     O_R   0.355390 0.513480 0.329760 -0.626764
O8    O     O_R   0.644530 0.486530 0.308400 -0.603431
Zn1   Zn    Zn3+2 0.306940 0.517990 0.514260 0.951714
Zn2   Zn    Zn3+2 0.693060 0.482010 0.485740 0.998437

loop_
_geom_bond_atom_site_label_1
_geom_bond_atom_site_label_2
_ccdc_geom_bond_type
C3    C15   S    
O5    Zn1   S    
C5    C6    A    
C9    H6    S    
C11   O6    A    
N1    N2    D    
C13   H1    S    
C8    H3    S    
C12   O7    A    
C16   H5    S    
C10   O3    A    
O2    Zn2   S    
C1    C2    S    
C6    C7    A    
O7    Zn1   S    
C2    C9    D    
C11   O5    A    
O8    Zn2   S    
C12   O8    A    
O3    Zn1   S    
C14   H4    S    
C9    C11   S    
O4    Zn2   S    
C3    C4    A    
N1    Zn2   S    
O1    Zn1   S    
N2    Zn1   S    
C12   C14   S    
C4    C5    A    
C13   C15   S    
C7    H2    S    
C15   C16   D    
C4    H9    S    
O6    Zn2   S    
C1    O2    A    
H8    N2    S    
C13   C14   D    
C1    O1    A    
C3    C8    A    
H7    N1    S    
C10   O4    A    
C10   C16   S    
C6    H11   S    
C5    H10   S    
C7    C8    A    
Br1   C2    S    
