data_mof_unit_43422.cif
_audit_creation_date              2012-12-11T15:08:39-0500
_audit_creation_method            fapswitch 2.2
_symmetry_space_group_name_H-M    P1
_symmetry_Int_Tables_number       1
_space_group_crystal_system       triclinic
_cell_length_a                    19.457247
_cell_length_b                    11.293923
_cell_length_c                    18.69818
_cell_angle_alpha                 89.966211
_cell_angle_beta                  90.684044
_cell_angle_gamma                 90.01494
_cell_volume                      4108.60612632

loop_
_atom_site_label
_atom_site_type_symbol
_atom_type_description
_atom_site_fract_x
_atom_site_fract_y
_atom_site_fract_z
_atom_type_partial_charge
C1    C     C_R   0.271668 0.045153 0.853293 0.534010
C2    C     C_3   0.683422 0.539705 0.953256 -0.235954
C3    C     C_R   0.227601 0.545361 0.353559 0.544206
C4    C     C_R   0.449016 0.820257 0.638461 0.535517
C5    C     C_R   0.551010 0.820216 0.361541 0.535669
C6    C     C_R   0.948994 0.320254 0.638457 0.535435
C7    C     C_R   0.051011 0.320216 0.361543 0.535645
C8    C     C_R   0.259889 0.638231 0.644497 0.558046
C9    C     C_R   0.740114 0.638177 0.355497 0.559512
C10   C     C_R   0.759889 0.138232 0.644497 0.558039
C11   C     C_R   0.240116 0.138173 0.355496 0.559507
C12   C     C_3   0.489739 0.924073 0.032664 -0.112506
C13   C     C_3   0.809090 0.015565 0.041540 -0.232304
C14   C     C_3   0.527871 0.910501 0.960856 -0.110111
C15   C     C_3   0.989739 0.424073 0.032664 -0.112506
C16   C     C_3   0.027871 0.410502 0.960856 -0.110111
C17   C     C_3   0.434979 0.834380 0.007465 -0.163669
C18   C     C_3   0.570556 0.807197 0.992659 -0.161515
C19   C     C_3   0.934979 0.334380 0.007465 -0.163669
C20   C     C_3   0.070556 0.307197 0.992659 -0.161516
C21   C     C_3   0.473258 0.821597 0.936197 0.059349
C22   C     C_3   0.531832 0.821503 0.063479 0.053322
C23   C     C_3   0.973258 0.321597 0.936197 0.059349
C24   C     C_3   0.183422 0.039705 0.953256 -0.235954
C25   C     C_3   0.031832 0.321503 0.063479 0.053321
C26   C     C_3   0.070347 0.718087 0.563549 -0.019738
C27   C     C_3   0.067461 0.802260 0.627540 -0.238614
C28   C     C_3   0.004888 0.883471 0.622076 -0.494149
C29   C     C_3   0.929690 0.718116 0.436357 -0.019761
C30   C     C_3   0.932529 0.802413 0.372361 -0.238585
C31   C     C_3   0.995116 0.883652 0.377766 -0.493881
C32   C     C_3   0.570350 0.218102 0.563558 -0.019742
C33   C     C_3   0.567476 0.302279 0.627548 -0.238588
C34   C     C_3   0.504890 0.383477 0.622101 -0.494151
C35   C     C_3   0.313718 0.523843 0.959211 -0.241700
C36   C     C_3   0.429692 0.218118 0.436359 -0.019763
C37   C     C_3   0.432553 0.302364 0.372340 -0.238588
C38   C     C_3   0.495125 0.383633 0.377761 -0.493820
C39   C     C_3   0.676083 0.557646 0.034824 -0.233577
C40   C     C_3   0.813718 0.023843 0.959211 -0.241700
C41   C     C_3   0.176083 0.057646 0.034824 -0.233577
C42   C     C_3   0.176793 0.530621 0.025184 -0.210498
C43   C     C_3   0.813392 0.513819 0.974056 -0.213062
C44   C     C_3   0.676793 0.030621 0.025184 -0.210498
C45   C     C_R   0.727080 0.042302 0.145162 0.534178
C46   C     C_3   0.313392 0.013819 0.974056 -0.213062
C47   C     C_3   0.247458 0.704100 0.055266 -0.253543
C48   C     C_3   0.764124 0.708117 0.943937 -0.256182
C49   C     C_3   0.747458 0.204100 0.055266 -0.253543
C50   C     C_3   0.264124 0.208118 0.943937 -0.256182
C51   C     C_3   0.240997 0.571959 0.069002 0.063060
C52   C     C_3   0.756749 0.576289 0.928844 0.065567
C53   C     C_3   0.740997 0.071959 0.069002 0.063060
C54   C     C_3   0.256749 0.076289 0.928844 0.065568
C55   C     C_3   0.255107 0.604443 0.930548 0.058878
C56   C     C_R   0.771668 0.545153 0.853293 0.534013
C57   C     C_3   0.743362 0.610326 0.067302 0.055247
C58   C     C_3   0.755107 0.104443 0.930548 0.058879
C59   C     C_3   0.243362 0.110326 0.067302 0.055247
C60   C     C_3   0.186247 0.543826 0.944351 -0.245461
C61   C     C_3   0.800534 0.520598 0.055096 -0.255819
C62   C     C_3   0.686247 0.043826 0.944351 -0.245462
C63   C     C_3   0.300534 0.020598 0.055096 -0.255819
C64   C     C_3   0.259121 0.720746 0.974222 -0.222062
C65   C     C_3   0.763426 0.724650 0.025741 -0.223012
C66   C     C_3   0.759121 0.220746 0.974222 -0.222062
C67   C     C_R   0.227080 0.542302 0.145162 0.534180
C68   C     C_3   0.263426 0.224650 0.025741 -0.223012
C69   C     C_3   0.507827 0.697311 0.461247 -0.207700
C70   C     C_3   0.492128 0.697331 0.538812 -0.207470
C71   C     C_3   0.007830 0.197310 0.461248 -0.207683
C72   C     C_3   0.992120 0.197329 0.538810 -0.207456
C73   C     C_R   0.444767 0.817360 0.862480 0.543693
C74   C     C_R   0.557905 0.817089 0.137905 0.542792
C75   C     C_R   0.944767 0.317360 0.862480 0.543693
C76   C     C_R   0.057905 0.317089 0.137905 0.542792
C77   C     C_3   0.568908 0.898119 0.486969 -0.202738
C78   C     C_3   0.515675 0.718546 0.967062 -0.110589
C79   C     C_3   0.431162 0.898252 0.512996 -0.202692
C80   C     C_3   0.068902 0.398129 0.486973 -0.202736
C81   C     C_3   0.931160 0.398261 0.512991 -0.202650
C82   C     C_3   0.452769 0.888580 0.433931 0.110808
C83   C     C_3   0.547292 0.888513 0.566038 0.110551
C84   C     C_3   0.952765 0.388571 0.433926 0.110832
C85   C     C_3   0.047284 0.388504 0.566045 0.110557
C86   C     C_3   0.521837 0.825341 0.434186 0.042255
C87   C     C_3   0.478184 0.825392 0.565811 0.042358
C88   C     C_3   0.021836 0.325342 0.434187 0.042239
C89   C     C_3   0.477792 0.731973 0.038116 -0.109300
C90   C     C_3   0.978173 0.325389 0.565810 0.042327
C91   C     C_3   0.179320 0.649939 0.457635 -0.193565
C92   C     C_3   0.820724 0.649960 0.542323 -0.193557
C93   C     C_3   0.679316 0.149932 0.457635 -0.193575
C94   C     C_3   0.320722 0.149971 0.542324 -0.193549
C95   C     C_3   0.184819 0.668822 0.537155 0.164965
C96   C     C_3   0.815209 0.668832 0.462796 0.164921
C97   C     C_3   0.684818 0.168824 0.537154 0.164963
C98   C     C_3   0.315210 0.168834 0.462795 0.164917
C99   C     C_3   0.250294 0.458058 0.472144 -0.239294
C100  C     C_3   0.015675 0.218546 0.967062 -0.110589
C101  C     C_3   0.749719 0.458090 0.527974 -0.239145
C102  C     C_3   0.750300 0.958069 0.472139 -0.239294
C103  C     C_3   0.249727 0.958091 0.527975 -0.239134
C104  C     C_3   0.304479 0.650059 0.445157 -0.263602
C105  C     C_3   0.695544 0.650086 0.554795 -0.263751
C106  C     C_3   0.804475 0.150078 0.445156 -0.263589
C107  C     C_3   0.195541 0.150084 0.554790 -0.263776
C108  C     C_3   0.240473 0.575690 0.429677 0.021166
C109  C     C_3   0.759546 0.575748 0.570331 0.021558
C110  C     C_3   0.740474 0.075699 0.429675 0.021140
C111  C     C_3   0.977792 0.231973 0.038116 -0.109300
C112  C     C_3   0.259546 0.075753 0.570331 0.021571
C113  C     C_3   0.250293 0.606011 0.568186 0.071786
C114  C     C_3   0.749706 0.605984 0.431819 0.071481
C115  C     C_3   0.750292 0.106016 0.568185 0.071786
C116  C     C_3   0.249710 0.105980 0.431817 0.071490
C117  C     C_3   0.242325 0.474213 0.553743 -0.263018
C118  C     C_3   0.757646 0.474202 0.446360 -0.263110
C119  C     C_3   0.742328 0.974217 0.553738 -0.263027
C120  C     C_3   0.257655 0.974199 0.446361 -0.263108
C121  C     C_R   0.261607 0.638326 0.853708 0.535367
C122  C     C_3   0.309090 0.515565 0.041540 -0.232304
C123  C     C_R   0.737365 0.642223 0.144749 0.537018
C124  C     C_R   0.761608 0.138326 0.853708 0.535366
C125  C     C_R   0.237365 0.142223 0.144749 0.537017
C126  C     C_3   0.315931 0.646092 0.527303 -0.264794
C127  C     C_3   0.684072 0.646055 0.472661 -0.264921
C128  C     C_3   0.815929 0.146104 0.527301 -0.264781
C129  C     C_3   0.184074 0.146046 0.472656 -0.264941
C130  C     C_R   0.272394 0.045422 0.646453 0.542913
C131  C     C_R   0.727603 0.045367 0.353557 0.544190
C132  C     C_R   0.772395 0.545418 0.646452 0.542910
Cr1   Cr    Cr6+3 0.229620 0.836040 0.749110 0.980276
Cr2   Cr    Cr6+3 0.613980 0.676590 0.250790 0.986006
Cr3   Cr    Cr6+3 0.886020 0.176590 0.749210 0.985695
Cr4   Cr    Cr6+3 0.113980 0.176590 0.250790 0.986006
Cr5   Cr    Cr6+3 0.770380 0.836040 0.250890 0.980139
Cr6   Cr    Cr6+3 0.729620 0.336040 0.749110 0.980266
Cr7   Cr    Cr6+3 0.270380 0.336040 0.250890 0.980137
Cr8   Cr    Cr6+3 0.387630 0.990680 0.750730 0.991525
Cr9   Cr    Cr6+3 0.612370 0.990680 0.249270 0.991132
Cr10  Cr    Cr6+3 0.887630 0.490680 0.750730 0.991528
Cr11  Cr    Cr6+3 0.112370 0.490680 0.249270 0.991137
Cr12  Cr    Cr6+3 0.386020 0.676590 0.749210 0.985703
H1    H     H_    0.383384 0.839091 0.029192 0.097777
H2    H     H_    0.722289 0.758810 0.917223 0.104572
H3    H     H_    0.217637 0.923284 0.416805 0.093989
H4    H     H_    0.316415 0.425291 0.060000 0.133325
H5    H     H_    0.670501 0.447593 0.939142 0.128179
H6    H     H_    0.816415 0.925291 0.060000 0.133325
H7    H     H_    0.170501 0.947593 0.939142 0.128179
H8    H     H_    0.353349 0.563487 0.065846 0.108462
H9    H     H_    0.644760 0.594603 0.924322 0.113263
H10   H     H_    0.853349 0.063487 0.065846 0.108461
H11   H     H_    0.144760 0.094603 0.924322 0.113262
H12   H     H_    0.365020 0.560134 0.945152 0.137443
H13   H     H_    0.791443 0.239543 0.087007 0.102549
H14   H     H_    0.631822 0.615827 0.046041 0.136094
H15   H     H_    0.865020 0.060134 0.945152 0.137443
H16   H     H_    0.131822 0.115827 0.046041 0.136094
H17   H     H_    0.309707 0.435477 0.934511 0.113099
H18   H     H_    0.664548 0.471121 0.060513 0.116499
H19   H     H_    0.809707 0.935477 0.934511 0.113099
H20   H     H_    0.164548 0.971121 0.060513 0.116500
H21   H     H_    0.663748 0.940550 0.040358 0.100636
H22   H     H_    0.317080 0.924310 0.954724 0.100572
H23   H     H_    0.163748 0.440550 0.040358 0.100635
H24   H     H_    0.222289 0.258810 0.917223 0.104572
H25   H     H_    0.817080 0.424310 0.954724 0.100572
H26   H     H_    0.684243 0.956103 0.917689 0.106918
H27   H     H_    0.285126 0.933809 0.076694 0.109868
H28   H     H_    0.184243 0.456103 0.917689 0.106920
H29   H     H_    0.785126 0.433810 0.076694 0.109868
H30   H     H_    0.589881 0.851939 0.658213 0.346878
H31   H     H_    0.410147 0.852060 0.341787 0.347419
H32   H     H_    0.089838 0.351819 0.658225 0.346925
H33   H     H_    0.910140 0.352017 0.341785 0.347410
H34   H     H_    0.020861 0.669665 0.560432 0.122438
H35   H     H_    0.222604 0.786740 0.953349 0.138664
H36   H     H_    0.074078 0.770241 0.513101 0.096957
H37   H     H_    0.064779 0.750151 0.677874 0.183906
H38   H     H_    0.114454 0.857863 0.629350 0.179640
H39   H     H_    0.005898 0.934265 0.571239 0.124325
H40   H     H_    0.005370 0.946875 0.667445 0.164057
H41   H     H_    0.956721 0.830733 0.623956 0.143547
H42   H     H_    0.979174 0.669718 0.439430 0.122451
H43   H     H_    0.926011 0.770176 0.486806 0.096936
H44   H     H_    0.935161 0.750400 0.322025 0.184360
H45   H     H_    0.885543 0.857996 0.370596 0.179576
H46   H     H_    0.817028 0.746156 0.042044 0.132464
H47   H     H_    0.994159 0.934337 0.428605 0.124256
H48   H     H_    0.994597 0.947151 0.332403 0.164399
H49   H     H_    0.043273 0.830950 0.375833 0.143683
H50   H     H_    0.520861 0.169688 0.560448 0.122451
H51   H     H_    0.574077 0.270255 0.513109 0.096947
H52   H     H_    0.564813 0.250168 0.677886 0.183919
H53   H     H_    0.614467 0.357893 0.629340 0.179620
H54   H     H_    0.505857 0.434227 0.571248 0.124321
H55   H     H_    0.505396 0.446923 0.667446 0.164063
H56   H     H_    0.456730 0.330730 0.624037 0.143563
H57   H     H_    0.722604 0.286740 0.953349 0.138664
H58   H     H_    0.479174 0.169721 0.439462 0.122431
H59   H     H_    0.425997 0.270215 0.486792 0.096943
H60   H     H_    0.435225 0.250308 0.322023 0.184315
H61   H     H_    0.385557 0.357925 0.370527 0.179643
H62   H     H_    0.494106 0.434408 0.428570 0.124256
H63   H     H_    0.494640 0.447056 0.332354 0.164384
H64   H     H_    0.543297 0.330941 0.375916 0.143645
H65   H     H_    0.317028 0.246156 0.042044 0.132463
H66   H     H_    0.311966 0.749034 0.965978 0.101911
H67   H     H_    0.729245 0.797001 0.040470 0.109983
H68   H     H_    0.811965 0.249034 0.965978 0.101912
H69   H     H_    0.625147 0.790421 0.982393 0.092769
H70   H     H_    0.229245 0.297001 0.040470 0.109983
H71   H     H_    0.630939 0.083859 0.040149 0.137883
H72   H     H_    0.364496 0.054498 0.963539 0.139450
H73   H     H_    0.130939 0.583859 0.040149 0.137884
H74   H     H_    0.864496 0.554498 0.963539 0.139450
H75   H     H_    0.143588 0.598489 0.921973 0.131105
H76   H     H_    0.848688 0.547373 0.083479 0.126182
H77   H     H_    0.643588 0.098489 0.921973 0.131103
H78   H     H_    0.348688 0.047373 0.083479 0.126181
H79   H     H_    0.549632 0.636482 0.451075 0.102654
H80   H     H_    0.883384 0.339091 0.029192 0.097777
H81   H     H_    0.450315 0.636506 0.549043 0.102744
H82   H     H_    0.049642 0.136489 0.451085 0.102640
H83   H     H_    0.950308 0.136501 0.549037 0.102744
H84   H     H_    0.464167 0.656107 0.431732 0.183443
H85   H     H_    0.535773 0.656088 0.568346 0.183534
H86   H     H_    0.964177 0.156094 0.431727 0.183448
H87   H     H_    0.035762 0.156084 0.568349 0.183526
H88   H     H_    0.622405 0.881195 0.482162 0.135656
H89   H     H_    0.377635 0.881403 0.517824 0.135614
H90   H     H_    0.122412 0.381180 0.482182 0.135701
H91   H     H_    0.125147 0.290421 0.982393 0.092768
H92   H     H_    0.877628 0.381441 0.517826 0.135602
H93   H     H_    0.479322 0.009666 0.059599 0.114818
H94   H     H_    0.546136 0.984655 0.927377 0.115650
H95   H     H_    0.979322 0.509666 0.059599 0.114819
H96   H     H_    0.046136 0.484655 0.927377 0.115651
H97   H     H_    0.459263 0.978516 0.411207 0.176818
H98   H     H_    0.540856 0.978446 0.588703 0.176778
H99   H     H_    0.959254 0.478504 0.411192 0.176816
H100  H     H_    0.040852 0.478434 0.588721 0.176828
H101  H     H_    0.439177 0.991212 0.527215 0.074528
H102  H     H_    0.200339 0.752165 0.071871 0.125114
H103  H     H_    0.560959 0.991064 0.472691 0.074548
H104  H     H_    0.939192 0.491222 0.527204 0.074497
H105  H     H_    0.060944 0.491083 0.472690 0.074568
H106  H     H_    0.129777 0.611241 0.443839 0.158054
H107  H     H_    0.870240 0.611140 0.556119 0.158176
H108  H     H_    0.629779 0.111218 0.443845 0.158060
H109  H     H_    0.370241 0.111164 0.556124 0.158180
H110  H     H_    0.177700 0.737175 0.430155 0.069345
H111  H     H_    0.822398 0.737200 0.569740 0.069224
H112  H     H_    0.677684 0.237161 0.430153 0.069356
H113  H     H_    0.813642 0.741095 0.922533 0.129122
H114  H     H_    0.322389 0.237213 0.569739 0.069215
H115  H     H_    0.192636 0.761411 0.546129 0.121931
H116  H     H_    0.807412 0.761435 0.453746 0.121919
H117  H     H_    0.692635 0.261413 0.546123 0.121933
H118  H     H_    0.307415 0.261437 0.453739 0.121925
H119  H     H_    0.720766 0.885065 0.449409 0.102160
H120  H     H_    0.279282 0.885120 0.550751 0.102353
H121  H     H_    0.220774 0.385039 0.449418 0.102141
H122  H     H_    0.779272 0.385116 0.550747 0.102352
H123  H     H_    0.692027 0.943740 0.572163 0.215641
H124  H     H_    0.700339 0.252165 0.071871 0.125114
H125  H     H_    0.307935 0.943720 0.427920 0.215687
H126  H     H_    0.192026 0.443739 0.572173 0.215662
H127  H     H_    0.807925 0.443718 0.427916 0.215663
H128  H     H_    0.349620 0.613157 0.417006 0.155905
H129  H     H_    0.650399 0.613185 0.582987 0.155944
H130  H     H_    0.849616 0.113183 0.417002 0.155936
H131  H     H_    0.150395 0.113181 0.582981 0.155944
H132  H     H_    0.296240 0.741823 0.426785 0.175797
H133  H     H_    0.703799 0.741863 0.573079 0.175563
H134  H     H_    0.796230 0.241841 0.426787 0.175796
H135  H     H_    0.313642 0.241095 0.922533 0.129122
H136  H     H_    0.203789 0.241866 0.573069 0.175582
H137  H     H_    0.525414 0.632124 0.940874 0.120742
H138  H     H_    0.457617 0.656876 0.069734 0.124164
H139  H     H_    0.025414 0.132124 0.940874 0.120741
H140  H     H_    0.957617 0.156877 0.069734 0.124164
H141  H     H_    0.337286 0.726658 0.549611 0.109881
H142  H     H_    0.662741 0.726616 0.450268 0.109733
H143  H     H_    0.837287 0.226669 0.549611 0.109882
H144  H     H_    0.162726 0.226582 0.450251 0.109740
H145  H     H_    0.354331 0.576112 0.537818 0.128912
H146  H     H_    0.291443 0.739544 0.087007 0.102550
H147  H     H_    0.645642 0.576073 0.462207 0.128868
H148  H     H_    0.854327 0.076120 0.537812 0.128917
H149  H     H_    0.145650 0.076055 0.462206 0.128864
H150  H     H_    0.304912 0.435181 0.464149 0.111150
H151  H     H_    0.695103 0.435199 0.536036 0.111287
H152  H     H_    0.804920 0.935192 0.464141 0.111143
H153  H     H_    0.195113 0.935194 0.536037 0.111291
H154  H     H_    0.282309 0.423298 0.583368 0.093860
H155  H     H_    0.717625 0.423296 0.416803 0.093995
H156  H     H_    0.782310 0.923300 0.583363 0.093864
O1    O     O_R   0.214130 0.708570 0.829890 -0.531367
O2    O     O_R   0.542830 0.717300 0.331620 -0.515653
O3    O     O_R   0.957170 0.217300 0.668380 -0.515836
O4    O     O_R   0.042830 0.217300 0.331620 -0.515661
O5    O     O_R   0.320870 0.624890 0.673130 -0.528269
O6    O     O_R   0.679130 0.624890 0.326870 -0.527499
O7    O     O_R   0.820870 0.124890 0.673130 -0.528271
O8    O     O_R   0.179130 0.124890 0.326870 -0.527498
O9    O     O_3   0.334430 0.834430 0.749680 -0.291740
O10   O     O_3   0.665570 0.834430 0.250320 -0.295881
O11   O     O_3   0.834430 0.334430 0.749680 -0.291746
O12   O     O_R   0.785870 0.708570 0.170110 -0.530150
O13   O     O_3   0.165570 0.334430 0.250320 -0.295880
O14   O     O_R   0.236050 0.959150 0.825270 -0.513868
O15   O     O_R   0.763950 0.959150 0.174730 -0.515250
O16   O     O_R   0.736050 0.459150 0.825270 -0.513866
O17   O     O_R   0.263950 0.459150 0.174730 -0.515250
O18   O     O_R   0.332100 0.076650 0.832310 -0.532199
O19   O     O_R   0.667900 0.076650 0.167690 -0.531724
O20   O     O_R   0.832100 0.576650 0.832310 -0.532197
O21   O     O_R   0.167900 0.576650 0.167690 -0.531724
O22   O     O_R   0.446500 0.918620 0.826240 -0.499932
O23   O     O_R   0.714130 0.208570 0.829890 -0.531371
O24   O     O_R   0.553500 0.918620 0.173760 -0.499916
O25   O     O_R   0.946500 0.418620 0.826240 -0.499929
O26   O     O_R   0.053500 0.418620 0.173760 -0.499914
O27   O     O_R   0.457310 0.715830 0.831280 -0.521166
O28   O     O_R   0.542690 0.715830 0.168720 -0.521524
O29   O     O_R   0.957310 0.215830 0.831280 -0.521169
O30   O     O_R   0.042690 0.215830 0.168720 -0.521524
O31   O     O_R   0.321000 0.623520 0.824130 -0.519288
O32   O     O_R   0.679000 0.623520 0.175870 -0.519306
O33   O     O_R   0.821000 0.123520 0.824130 -0.519286
O34   O     O_R   0.285870 0.208570 0.170110 -0.530149
O35   O     O_R   0.179000 0.123520 0.175870 -0.519304
O36   O     O_R   0.213990 0.710040 0.667000 -0.499796
O37   O     O_R   0.786010 0.710040 0.333000 -0.499127
O38   O     O_R   0.713990 0.210040 0.667000 -0.499799
O39   O     O_R   0.286010 0.210040 0.333000 -0.499142
O40   O     O_R   0.235920 0.960520 0.674260 -0.522512
O41   O     O_R   0.764080 0.960520 0.325740 -0.521765
O42   O     O_R   0.735920 0.460520 0.674260 -0.522517
O43   O     O_R   0.264080 0.460520 0.325740 -0.521767
O44   O     O_R   0.331960 0.078120 0.669410 -0.538006
O45   O     O_R   0.446360 0.919990 0.675230 -0.517708
O46   O     O_R   0.668040 0.078120 0.330590 -0.537202
O47   O     O_R   0.831960 0.578120 0.669410 -0.538004
O48   O     O_R   0.168040 0.578120 0.330590 -0.537207
O49   O     O_3   0.596251 0.827632 0.607707 -0.759054
O50   O     O_3   0.403755 0.827779 0.392313 -0.758804
O51   O     O_3   0.096246 0.327611 0.607710 -0.759093
O52   O     O_3   0.903750 0.327753 0.392316 -0.758810
O53   O     O_3   0.123873 0.633151 0.572362 -0.577110
O54   O     O_3   0.876145 0.633166 0.427608 -0.576885
O55   O     O_3   0.623873 0.133159 0.572365 -0.577132
O56   O     O_R   0.553640 0.919990 0.324770 -0.517288
O57   O     O_3   0.376148 0.133165 0.427612 -0.576889
O58   O     O_R   0.946360 0.419990 0.675230 -0.517707
O59   O     O_R   0.053640 0.419990 0.324770 -0.517280
O60   O     O_R   0.457170 0.717300 0.668380 -0.515823

loop_
_geom_bond_atom_site_label_1
_geom_bond_atom_site_label_2
_ccdc_geom_bond_type
C72   H87   S    
C107  C112  S    
C119  H156  S    
C107  C129  S    
C79   C87   S    
C4    C87   S    
C42   H23   S    
C121  O31   A    
C9    C114  S    
C14   C21   S    
C28   H39   S    
H33   O52   S    
C92   C109  S    
C70   C87   S    
C24   C54   S    
C15   H95   S    
C29   H42   S    
C111  H140  S    
C62   H77   S    
C66   H57   S    
C44   C53   S    
Cr5   O37   S    
C123  O12   A    
C106  H134  S    
C122  H4    S    
C48   C65   S    
C97   C115  S    
Cr12  O31   S    
C107  H131  S    
Cr3   O11   S    
C93   C110  S    
C26   H34   S    
C75   O29   A    
Cr3   O29   S    
C24   C41   S    
C63   H78   S    
C64   H66   S    
Cr1   O14   S    
C131  O46   A    
C78   C89   S    
C62   H26   S    
Cr10  O58   S    
C40   C58   S    
C80   H90   S    
C17   C89   S    
C49   C66   S    
C60   H75   S    
C23   C75   S    
C47   C64   S    
C8    O5    A    
Cr12  O60   S    
C17   C21   S    
Cr7   O43   S    
C103  C112  S    
C77   H103  S    
C19   C23   S    
C37   C38   S    
C24   H7    S    
C57   C123  S    
C126  H145  S    
Cr8   O9    S    
C129  H149  S    
C18   C78   S    
C132  O47   A    
C109  C132  S    
C110  C131  S    
Cr12  O27   S    
C2    C52   S    
C29   O54   S    
Cr2   O10   S    
C81   C90   S    
C75   O25   A    
Cr8   O44   S    
C66   H68   S    
Cr12  O5    S    
C43   C61   S    
C8    O36   A    
C84   O52   S    
Cr1   O40   S    
C35   C122  S    
C19   H80   S    
C84   C88   S    
Cr5   O15   S    
C85   C90   S    
C57   C61   S    
C19   C111  S    
Cr4   O13   S    
C59   C63   S    
C25   C76   S    
Cr10  O20   S    
Cr4   O30   S    
C80   C88   S    
Cr6   O11   S    
C123  O32   A    
C49   C53   S    
C22   C89   S    
C69   C70   S    
Cr10  O25   S    
C13   H10   S    
C3    O43   A    
C71   C88   S    
C92   H111  S    
C34   H56   S    
C48   C52   S    
C100  C111  S    
C41   H20   S    
Cr6   O42   S    
C45   O19   A    
C102  C119  S    
C56   O16   A    
Cr7   O17   S    
C91   H106  S    
C101  H122  S    
C55   C121  S    
C31   H47   S    
C40   H15   S    
C99   H150  S    
C93   H112  S    
C76   O26   A    
C99   C108  S    
C83   H98   S    
C89   H138  S    
C35   H17   S    
C125  O35   A    
C101  C118  S    
C36   C37   S    
C74   O24   A    
C43   C52   S    
C30   H45   S    
C10   C115  S    
C12   C22   S    
C92   C96   S    
Cr4   O8    S    
Cr5   O10   S    
Cr11  O59   S    
C9    O6    A    
C33   H52   S    
C72   H83   S    
Cr9   O46   S    
C98   O57   S    
C104  H132  S    
C130  O40   A    
C23   C100  S    
C45   C53   S    
C67   O21   A    
C1    O14   A    
C49   H13   S    
C107  H136  S    
C76   O30   A    
C38   H63   S    
C105  C127  S    
C125  O34   A    
C31   H49   S    
C64   H35   S    
C102  H152  S    
C113  C126  S    
Cr5   O41   S    
C6    C90   S    
C85   H100  S    
C115  C128  S    
C116  C120  S    
C9    O37   A    
C69   H79   S    
C122  H8    S    
C21   C78   S    
C27   H37   S    
C78   H137  S    
C29   C30   S    
C99   C117  S    
C41   H16   S    
C72   C90   S    
C34   H54   S    
Cr3   O33   S    
C95   O53   S    
Cr10  O11   S    
C51   C67   S    
C39   H18   S    
C113  C117  S    
C73   O27   A    
C124  O23   A    
C16   C23   S    
C115  C119  S    
C39   H14   S    
C50   H24   S    
C43   H74   S    
C22   C74   S    
C69   H84   S    
C93   C97   S    
C49   H124  S    
C105  C109  S    
Cr7   O39   S    
C18   C22   S    
Cr1   O1    S    
C79   C82   S    
C32   O55   S    
C97   H117  S    
C3    C108  S    
C59   C125  S    
C46   C63   S    
C105  H129  S    
C28   H40   S    
C70   H85   S    
C71   C72   S    
Cr5   O12   S    
Cr2   O6    S    
C94   H114  S    
C10   O7    A    
C94   C112  S    
C97   O55   S    
C37   H60   S    
C44   H21   S    
C25   C111  S    
C101  H151  S    
C91   C95   S    
C128  H148  S    
C98   H118  S    
C16   H96   S    
Cr11  O26   S    
C102  H119  S    
C112  C130  S    
C55   C60   S    
C10   O38   A    
C3    O48   A    
C58   C62   S    
C83   C87   S    
C67   O17   A    
Cr2   O32   S    
C103  C120  S    
C96   C114  S    
C43   H25   S    
C73   O22   A    
C15   C19   S    
C26   C27   S    
C50   C54   S    
C79   H101  S    
C13   H6    S    
C30   C31   S    
Cr10  O47   S    
C20   C25   S    
C94   C98   S    
C101  C109  S    
C106  C128  S    
C45   O15   A    
C13   C40   S    
Cr7   O13   S    
C12   C17   S    
C103  H120  S    
C5    O56   A    
C36   H59   S    
C68   H70   S    
C93   H108  S    
Cr6   O23   S    
Cr2   O28   S    
C81   H104  S    
C37   H61   S    
C32   H51   S    
Cr1   O9    S    
C74   O28   A    
C13   C53   S    
C48   H113  S    
Cr11  O21   S    
C132  O42   A    
C79   H89   S    
C94   H109  S    
C14   H94   S    
C47   C51   S    
C82   C86   S    
C117  H154  S    
C120  H125  S    
C29   H43   S    
C82   H97   S    
C30   H44   S    
Cr4   O35   S    
C17   H1    S    
C104  H128  S    
C130  O44   A    
C80   C85   S    
C82   O50   S    
C63   H27   S    
C20   C100  S    
C96   H116  S    
C20   H91   S    
C1    O18   A    
C46   C54   S    
C11   C116  S    
C8    C113  S    
C12   H93   S    
C46   H72   S    
C71   H82   S    
C102  C110  S    
C83   O49   S    
Cr8   O45   S    
C104  C108  S    
C103  H153  S    
C46   H22   S    
C91   C108  S    
C128  H143  S    
C57   C65   S    
Cr3   O3    S    
Cr4   O4    S    
Cr7   O34   S    
C26   H36   S    
C32   C33   S    
Cr1   O36   S    
C114  C127  S    
C31   H48   S    
C100  H139  S    
C84   H99   S    
C15   C25   S    
C65   H46   S    
C120  H3    S    
C51   C122  S    
C47   H146  S    
C50   C68   S    
C47   H102  S    
C36   O57   S    
C21   C73   S    
C44   H71   S    
C105  H133  S    
C14   C18   S    
C106  H130  S    
C70   H81   S    
C42   H73   S    
Cr9   O56   S    
C117  H126  S    
Cr3   O7    S    
C95   H115  S    
H30   O49   S    
C38   H64   S    
C118  H155  S    
H31   O50   S    
C61   H76   S    
C77   C83   S    
C15   C16   S    
C39   C57   S    
C4    O45   A    
C2    C39   S    
C58   C66   S    
C116  C129  S    
C7    C88   S    
C48   H2    S    
H32   O51   S    
C131  O41   A    
C5    O2    A    
C24   H11   S    
C16   C20   S    
C42   C51   S    
C7    O4    A    
C2    H5    S    
C85   O51   S    
C127  H142  S    
C36   H58   S    
C68   H65   S    
C4    O60   A    
C6    O58   A    
C26   O53   S    
C35   C55   S    
C60   H28   S    
C61   H29   S    
C35   H12   S    
C41   C59   S    
C40   H19   S    
C32   H50   S    
C42   C60   S    
Cr12  O9    S    
C127  H147  S    
C44   C62   S    
Cr11  O48   S    
C50   H135  S    
Cr9   O24   S    
C121  O1    A    
C1    C54   S    
C59   C68   S    
C98   C116  S    
C33   H53   S    
C119  H123  S    
C55   C64   S    
C33   C34   S    
C81   H92   S    
Cr11  O13   S    
C114  C118  S    
C5    C86   S    
C12   C14   S    
C77   C86   S    
C2    H9    S    
C80   H105  S    
C18   H69   S    
C81   C84   S    
C118  H127  S    
C106  C110  S    
C92   H107  S    
C99   H121  S    
C77   H88   S    
C11   O8    A    
C38   H62   S    
Cr8   O22   S    
Cr6   O38   S    
C129  H144  S    
C96   O54   S    
Cr6   O16   S    
C56   O20   A    
C91   H110  S    
C124  O33   A    
Cr8   O18   S    
C58   C124  S    
Cr9   O19   S    
C27   H38   S    
C7    O59   A    
C28   H41   S    
C95   C113  S    
C71   H86   S    
C65   H67   S    
C6    O3    A    
C34   H55   S    
C104  C126  S    
Cr9   O10   S    
C126  H141  S    
C27   C28   S    
Cr2   O2    S    
C11   O39   A    
C69   C86   S    
C52   C56   S    
