data_mof_unit_9958.cif
_audit_creation_date              2012-10-26T21:17:41-0400
_audit_creation_method            fapswitch 2.2
_symmetry_space_group_name_H-M    P1
_symmetry_Int_Tables_number       1
_space_group_crystal_system       triclinic
_cell_length_a                    10.824125
_cell_length_b                    9.0922
_cell_length_c                    7.794109
_cell_angle_alpha                 89.936209
_cell_angle_beta                  89.993359
_cell_angle_gamma                 89.993356
_cell_volume                      767.057603614

loop_
_atom_site_label
_atom_site_type_symbol
_atom_type_description
_atom_site_fract_x
_atom_site_fract_y
_atom_site_fract_z
_atom_type_partial_charge
C1    C     C_R   0.499987 0.220035 0.499925 0.664621
C2    C     C_R   0.065703 0.362860 0.585558 -0.018711
C3    C     C_R   0.128663 0.479129 0.500122 0.020336
C4    C     C_R   0.871344 0.479105 0.500054 0.020360
C5    C     C_R   0.063637 0.587114 0.410643 -0.161292
C6    C     C_R   0.936380 0.587121 0.410636 -0.161331
C7    C     C_1   0.499987 0.065359 0.499924 0.036002
C8    C     C_1   0.499991 0.934610 0.499862 -0.024724
C9    C     C_R   0.499997 0.779940 0.499917 0.530781
C10   C     C_R   0.262053 0.492458 0.500141 0.598094
C11   C     C_R   0.737954 0.492468 0.500120 0.598198
C12   C     C_R   0.128811 0.243856 0.665431 0.364017
C13   C     C_R   0.871178 0.243724 0.665127 0.363999
C14   C     C_R   0.063897 0.131603 0.746608 -0.134967
C15   C     C_R   0.936071 0.131531 0.746435 -0.134995
C16   C     C_R   0.934294 0.362815 0.585463 -0.018668
Cu1   Cu    Cu3+1 0.500000 0.500000 0.669080 1.136780
Cu2   Cu    Cu3+1 0.500000 0.500000 0.330920 1.063772
F1    F     F_    0.252947 0.229659 0.660676 -0.641675
F2    F     F_    0.747042 0.229477 0.660110 -0.641742
H1    H     H_    0.111977 0.674456 0.343609 0.130940
H2    H     H_    0.888044 0.674481 0.343616 0.130923
H3    H     H_    0.113343 0.041740 0.806811 0.152480
H4    H     H_    0.886618 0.041614 0.806488 0.152466
N1    N     N_1   0.500000 0.500000 0.076820 -0.077424
N2    N     N_1   0.500000 0.500000 0.923180 -0.065582
O1    O     O_R   0.500000 0.288390 0.642760 -0.398725
O2    O     O_R   0.500000 0.711610 0.642760 -0.511188
O3    O     O_R   0.500000 0.288370 0.357190 -0.509191
O4    O     O_R   0.500000 0.711630 0.357190 -0.511865
O5    O     O_R   0.319650 0.500000 0.642810 -0.462315
O6    O     O_R   0.680350 0.500000 0.642810 -0.462431
O7    O     O_R   0.319630 0.500000 0.357240 -0.513507
O8    O     O_R   0.680370 0.500000 0.357240 -0.513436

loop_
_geom_bond_atom_site_label_1
_geom_bond_atom_site_label_2
_ccdc_geom_bond_type
C14   H3    S    
C4    C16   A    
Cu2   O4    S    
C2    C16   A    
C2    C12   A    
C1    O3    A    
C2    C3    A    
C7    C8    T    
C1    O1    A    
C3    C10   S    
C4    C11   S    
Cu2   O8    S    
Cu2   N1    S    
C9    O4    A    
Cu1   N2    S    
C12   F1    S    
C15   H4    S    
C12   C14   A    
C11   O6    A    
Cu1   Cu2   S    
C10   O7    A    
C13   C15   A    
C5    C6    A    
Cu1   O5    S    
Cu2   O7    S    
Cu1   O1    S    
C5    H1    S    
C4    C6    A    
C13   C16   A    
Cu2   O3    S    
Cu1   O6    S    
C14   C15   A    
C13   F2    S    
N1    N2    T    
C1    C7    S    
Cu1   O2    S    
C10   O5    A    
C11   O8    A    
C9    O2    A    
C8    C9    S    
C3    C5    A    
C6    H2    S    
