data_mof_unit_46100.cif
_audit_creation_date              2012-12-10T16:57:08-0500
_audit_creation_method            fapswitch 2.2
_symmetry_space_group_name_H-M    P1
_symmetry_Int_Tables_number       1
_space_group_crystal_system       triclinic
_cell_length_a                    7.745392
_cell_length_b                    8.479674
_cell_length_c                    16.627282
_cell_angle_alpha                 91.532304
_cell_angle_beta                  80.606198
_cell_angle_gamma                 93.846941
_cell_volume                      1074.84275208

loop_
_atom_site_label
_atom_site_type_symbol
_atom_type_description
_atom_site_fract_x
_atom_site_fract_y
_atom_site_fract_z
_atom_type_partial_charge
C1    C     C_R   0.547227 0.792953 0.485734 0.962504
C2    C     C_R   0.372292 0.340289 0.244787 -0.166748
C3    C     C_R   0.598134 0.455252 0.860884 -0.140831
C4    C     C_R   0.373192 0.273822 0.167735 -0.122610
C5    C     C_R   0.431830 0.431972 0.908232 0.125346
C6    C     C_R   0.521810 0.297976 0.108296 0.096837
C7    C     C_R   0.280602 0.444728 0.873886 -0.167802
C8    C     C_R   0.674826 0.376157 0.127951 -0.190094
C9    C     C_R   0.295355 0.472841 0.791153 -0.202480
C10   C     C_R   0.675169 0.440223 0.205706 -0.199132
C11   C     C_2   0.416554 0.404196 0.995571 0.360107
C12   C     C_R   0.456060 0.206017 0.489972 0.954967
C13   C     C_2   0.501880 0.287081 0.022131 0.350299
C14   C     C_3   0.634339 0.048238 0.003303 -0.327253
C15   C     C_3   0.369038 0.657354 0.041989 -0.339281
C16   C     C_3   0.763290 0.011227 0.425545 -0.885644
C17   C     C_3   0.254912 0.983727 0.447797 -0.873139
C18   C     C_2   0.575420 0.952897 0.457808 -0.030975
C19   C     C_2   0.435445 0.043746 0.464228 -0.038575
C20   C     C_R   0.477260 0.501715 0.654724 0.881706
C21   C     C_R   0.520641 0.487935 0.345831 0.820153
C22   C     C_R   0.461857 0.488987 0.742685 -0.039649
C23   C     C_R   0.521447 0.428060 0.263254 -0.021346
C24   C     C_R   0.613204 0.482727 0.778259 -0.195275
H1    H     H_    0.742884 0.496963 0.742219 0.152162
H2    H     H_    0.977112 0.620501 0.560472 0.190741
H3    H     H_    0.514764 0.991601 0.040486 0.147526
H4    H     H_    0.739296 0.073789 0.040989 0.173776
H5    H     H_    0.683248 0.962261 0.954816 0.195202
H6    H     H_    0.335245 0.705210 0.985331 0.178149
H7    H     H_    0.512570 0.675935 0.042793 0.152728
H8    H     H_    0.300857 0.725579 0.094155 0.194138
H9    H     H_    0.832690 0.916932 0.388309 0.236500
H10   H     H_    0.768359 0.112591 0.384065 0.252342
H11   H     H_    0.834715 0.043742 0.476937 0.256752
H12   H     H_    0.254612 0.323895 0.289695 0.135424
H13   H     H_    0.197469 0.074700 0.415167 0.221827
H14   H     H_    0.261673 0.877645 0.407016 0.259661
H15   H     H_    0.166148 0.957905 0.506080 0.254800
H16   H     H_    0.792788 0.503579 0.220033 0.157291
H17   H     H_    0.176698 0.478024 0.764959 0.158288
H18   H     H_    0.151856 0.430449 0.910839 0.154137
H19   H     H_    0.789090 0.397332 0.081528 0.149804
H20   H     H_    0.254005 0.215179 0.152310 0.127988
H21   H     H_    0.715931 0.451844 0.887968 0.143266
H22   H     H_    0.022870 0.379471 0.439523 0.183127
N1    N     N_2   0.953500 0.457650 0.478520 -0.170229
N2    N     N_2   0.046500 0.542350 0.521480 -0.170607
O1    O     O_R   0.388470 0.738640 0.505270 -0.615581
O2    O     O_3   0.310961 0.496628 0.051265 -0.624794
O3    O     O_R   0.611530 0.261360 0.494730 -0.613355
O4    O     O_R   0.679650 0.711510 0.491500 -0.617453
O5    O     O_R   0.320350 0.288490 0.508500 -0.617379
O6    O     O_R   0.337210 0.515200 0.623500 -0.612194
O7    O     O_R   0.662790 0.484800 0.376500 -0.624969
O8    O     O_R   0.628380 0.488060 0.609730 -0.617493
O9    O     O_R   0.371620 0.511940 0.390270 -0.633754
O10   O     O_3   0.597051 0.186862 0.966096 -0.627153
Zn1   Zn    Zn3+2 0.305580 0.518120 0.509190 0.928457
Zn2   Zn    Zn3+2 0.694420 0.481880 0.490810 0.929789

loop_
_geom_bond_atom_site_label_1
_geom_bond_atom_site_label_2
_ccdc_geom_bond_type
C2    C4    A    
C7    H18   S    
C21   O9    A    
C13   O10   S    
C14   H3    S    
C4    H20   S    
C9    H17   S    
C12   O5    A    
O1    Zn1   S    
C8    H19   S    
H2    N2    S    
C20   O8    A    
C16   H10   S    
C1    C18   S    
C15   H8    S    
C11   O2    S    
C17   H13   S    
O7    Zn2   S    
C6    C13   S    
C15   H7    S    
C11   C13   D    
C3    C24   A    
N2    Zn1   S    
C14   O10   S    
C12   C19   S    
C20   O6    A    
C17   C19   S    
C20   C22   S    
C5    C11   S    
C10   C23   A    
C5    C7    A    
C17   H14   S    
C21   C23   S    
C16   H11   S    
O5    Zn1   S    
C16   H9    S    
C1    O4    A    
C22   C24   A    
C9    C22   A    
O9    Zn1   S    
C4    C6    A    
C14   H5    S    
N1    N2    D    
C7    C9    A    
C12   O3    A    
C24   H1    S    
C15   H6    S    
C16   C18   S    
C18   C19   D    
C17   H15   S    
C15   O2    S    
C2    H12   S    
C2    C23   A    
C21   O7    A    
H22   N1    S    
C10   H16   S    
C6    C8    A    
O3    Zn2   S    
O4    Zn2   S    
C14   H4    S    
N1    Zn2   S    
O6    Zn1   S    
C1    O1    A    
C3    H21   S    
C8    C10   A    
O8    Zn2   S    
C3    C5    A    
