data_mof_unit_48231.cif
_audit_creation_date              2012-12-11T15:34:53-0500
_audit_creation_method            fapswitch 2.2
_symmetry_space_group_name_H-M    P1
_symmetry_Int_Tables_number       1
_space_group_crystal_system       triclinic
_cell_length_a                    30.397072
_cell_length_b                    7.238499
_cell_length_c                    25.946474
_cell_angle_alpha                 90.001563
_cell_angle_beta                  112.552303
_cell_angle_gamma                 89.999847
_cell_volume                      5272.41439846

loop_
_atom_site_label
_atom_site_type_symbol
_atom_type_description
_atom_site_fract_x
_atom_site_fract_y
_atom_site_fract_z
_atom_type_partial_charge
O1    O     O_R   0.295360 0.592990 0.320420 -0.534646
O2    O     O_R   0.704640 0.407010 0.679580 -0.532204
O3    O     O_R   0.204640 0.092990 0.179580 -0.534644
O4    O     O_R   0.795360 0.907010 0.820420 -0.532203
O5    O     O_R   0.294060 0.265620 0.213230 -0.539943
O6    O     O_R   0.705940 0.734380 0.786770 -0.539167
O7    O     O_R   0.205940 0.765620 0.286770 -0.539943
O8    O     O_R   0.794060 0.234380 0.713230 -0.539166
C1    C     C_R   0.304323 0.432339 0.199678 0.700077
C2    C     C_R   0.696190 0.567708 0.800989 0.697813
C3    C     C_R   0.195677 0.932342 0.300322 0.700075
C4    C     C_R   0.803810 0.067705 0.699012 0.697819
O9    O     O_R   0.300850 0.263360 0.322080 -0.531264
O10   O     O_R   0.699150 0.736640 0.677920 -0.534038
O11   O     O_R   0.199150 0.763360 0.177920 -0.531265
O12   O     O_R   0.800850 0.236640 0.822080 -0.534040
O13   O     O_R   0.211480 0.091820 0.289210 -0.538157
O14   O     O_R   0.788520 0.908180 0.710790 -0.538350
O15   O     O_R   0.288520 0.591820 0.210790 -0.538154
O16   O     O_R   0.711480 0.408180 0.789210 -0.538347
C5    C     C_R   0.313601 0.430783 0.343470 0.699635
C6    C     C_R   0.686644 0.569046 0.656253 0.693243
C7    C     C_R   0.186398 0.930778 0.156530 0.699635
C8    C     C_R   0.813356 0.069051 0.843747 0.693242
O17   O     O_3   0.220670 0.426670 0.239090 -0.373622
O18   O     O_3   0.779330 0.573330 0.760910 -0.373108
O19   O     O_3   0.279330 0.926670 0.260910 -0.373620
O20   O     O_3   0.720670 0.073330 0.739090 -0.373106
V1    V     V_3+5 0.255440 0.152290 0.252020 1.409034
V2    V     V_3+5 0.744560 0.847710 0.747980 1.407866
V3    V     V_3+5 0.244560 0.652290 0.247980 1.409035
V4    V     V_3+5 0.755440 0.347710 0.752020 1.407867
C9    C     C_R   0.849517 0.068380 0.901694 -0.058608
C10   C     C_R   0.147957 0.926750 0.100196 -0.095594
C11   C     C_R   0.650484 0.568363 0.598306 -0.058604
C12   C     C_R   0.352042 0.426771 0.399804 -0.095579
C13   C     C_R   0.876190 0.198572 0.995144 0.032535
C14   C     C_R   0.118789 0.778480 0.009332 0.021366
C15   C     C_R   0.623814 0.698535 0.504856 0.032535
C16   C     C_R   0.381210 0.278545 0.490669 0.021372
C17   C     C_R   0.841331 0.176612 0.941498 -0.218383
C18   C     C_R   0.156245 0.830467 0.058479 -0.181881
C19   C     C_R   0.658672 0.676581 0.558502 -0.218381
C20   C     C_R   0.343754 0.330515 0.441522 -0.181877
C21   C     C_R   0.894012 0.983171 0.915706 -0.194074
C22   C     C_R   0.101348 0.981060 0.091206 -0.157350
C23   C     C_R   0.605987 0.483159 0.584293 -0.194082
C24   C     C_R   0.398653 0.481073 0.408793 -0.157345
C25   C     C_R   0.929380 0.990164 0.970980 0.035273
C26   C     C_R   0.061429 0.913551 0.044713 0.074299
C27   C     C_R   0.570621 0.490146 0.529019 0.035272
C28   C     C_R   0.438570 0.413565 0.455285 0.074310
C29   C     C_R   0.919944 0.098577 0.011452 0.069542
C30   C     C_R   0.070574 0.805727 0.003712 -0.037459
C31   C     C_R   0.580058 0.598545 0.488547 0.069542
C32   C     C_R   0.429424 0.305758 0.496285 -0.037472
C33   C     C_R   0.975191 0.903925 0.985907 -0.098883
C34   C     C_R   0.012827 0.952181 0.037227 0.008222
C35   C     C_R   0.524807 0.403917 0.514090 -0.098878
C36   C     C_R   0.487173 0.452176 0.462772 0.008234
C37   C     C_R   0.999577 0.023199 0.080207 0.149664
C38   C     C_R   0.984489 0.762238 0.953573 0.211976
C39   C     C_R   0.500424 0.523177 0.419791 0.149666
C40   C     C_R   0.515506 0.262234 0.546422 0.211965
C41   C     C_R   0.953651 0.098032 0.067274 0.107700
C42   C     C_R   0.031466 0.716589 0.961573 0.179988
C43   C     C_R   0.546352 0.597994 0.432725 0.107704
C44   C     C_R   0.468528 0.216595 0.538419 0.179990
H1    H     H_    0.097575 0.073058 0.121801 0.151709
H2    H     H_    0.901344 0.922316 0.881989 0.113780
H3    H     H_    0.402427 0.573062 0.378199 0.151707
H4    H     H_    0.598653 0.422314 0.618010 0.113776
H5    H     H_    0.192586 0.795265 0.064432 0.113434
H6    H     H_    0.808165 0.252914 0.929641 0.117601
H7    H     H_    0.307411 0.295330 0.435572 0.113418
H8    H     H_    0.691839 0.752879 0.570359 0.117602
C45   C     C_R   0.076923 0.852375 0.462859 0.576693
C46   C     C_R   0.915179 0.141383 0.527300 0.575487
C47   C     C_R   0.423083 0.352346 0.037145 0.576711
C48   C     C_R   0.584818 0.641417 0.972700 0.575514
N1    N     N_R   0.070133 0.971531 0.419535 -0.551594
N2    N     N_R   0.922221 0.022890 0.570861 -0.551460
N3    N     N_R   0.429867 0.471523 0.080466 -0.551593
N4    N     N_R   0.577784 0.522897 0.929145 -0.551459
C49   C     C_R   0.034545 0.101341 0.404864 0.552817
C50   C     C_R   0.957256 0.890891 0.584795 0.554158
C51   C     C_R   0.465450 0.601358 0.095133 0.552828
C52   C     C_R   0.542757 0.390867 0.915216 0.554175
C53   C     C_R   0.003096 0.113250 0.433644 -0.066828
C54   C     C_R   0.988301 0.877601 0.555558 -0.067598
C55   C     C_R   0.496902 0.613266 0.066356 -0.066834
C56   C     C_R   0.511707 0.377582 0.944449 -0.067604
C57   C     C_R   0.010481 0.991294 0.479038 -0.032874
C58   C     C_R   0.980912 0.999764 0.510202 -0.032993
C59   C     C_R   0.489522 0.491293 0.020965 -0.032884
C60   C     C_R   0.519091 0.499767 0.989801 -0.033005
C61   C     C_R   0.047499 0.860397 0.493414 -0.042514
C62   C     C_R   0.944029 0.131270 0.496013 -0.042500
C63   C     C_R   0.452508 0.360373 0.006592 -0.042516
C64   C     C_R   0.555968 0.631299 0.003986 -0.042499
C65   C     C_R   0.964945 0.242608 0.419387 -0.018664
C66   C     C_R   0.026196 0.747149 0.569473 -0.018720
C67   C     C_R   0.535049 0.742643 0.080612 -0.018659
C68   C     C_R   0.473816 0.247111 0.930535 -0.018709
C69   C     C_R   0.936577 0.250963 0.450970 -0.199039
C70   C     C_R   0.054696 0.739626 0.538090 -0.198481
C71   C     C_R   0.563416 0.751008 0.049027 -0.199038
C72   C     C_R   0.445316 0.239584 0.961918 -0.198482
O21   O     O_2   0.112644 0.727742 0.476979 -0.532073
O22   O     O_2   0.879868 0.267631 0.513763 -0.533172
O23   O     O_2   0.387367 0.227688 0.023029 -0.532066
O24   O     O_2   0.620123 0.767698 0.986232 -0.533165
O25   O     O_2   0.029868 0.217826 0.362570 -0.529714
O26   O     O_2   0.961882 0.773888 0.626953 -0.528727
O27   O     O_2   0.470120 0.717872 0.137421 -0.529715
O28   O     O_2   0.538143 0.273821 0.873070 -0.528733
H9    H     H_    0.908007 0.351678 0.439591 0.169979
H10   H     H_    0.083233 0.638761 0.549404 0.170890
H11   H     H_    0.591983 0.851739 0.060404 0.169979
H12   H     H_    0.416782 0.138705 0.950605 0.170889
C73   C     C_R   0.891152 0.198087 0.631867 -0.097553
C74   C     C_R   0.129770 0.113568 0.388313 -0.088859
C75   C     C_R   0.608845 0.698081 0.868131 -0.097553
C76   C     C_R   0.370224 0.613549 0.111681 -0.088852
H13   H     H_    0.912965 0.315246 0.630831 0.151941
H14   H     H_    0.128500 0.239161 0.410385 0.144392
H15   H     H_    0.587026 0.815226 0.869160 0.151966
H16   H     H_    0.371490 0.739133 0.089605 0.144402
C77   C     C_R   0.862447 0.209361 0.663085 -0.203582
C78   C     C_R   0.160056 0.104351 0.359179 -0.208059
C79   C     C_R   0.637549 0.709354 0.836912 -0.203593
C80   C     C_R   0.339938 0.604333 0.140814 -0.208049
H17   H     H_    0.862544 0.336089 0.685309 0.140101
H18   H     H_    0.181502 0.224089 0.359434 0.133988
H19   H     H_    0.637445 0.836067 0.814680 0.140104
H20   H     H_    0.318488 0.724062 0.140556 0.133988
C81   C     C_R   0.834520 0.057695 0.666115 -0.053381
C82   C     C_R   0.163114 0.941902 0.330859 -0.052413
C83   C     C_R   0.665483 0.557702 0.833889 -0.053380
C84   C     C_R   0.336885 0.441896 0.169140 -0.052412
C85   C     C_R   0.835576 0.895718 0.636514 -0.206285
C86   C     C_R   0.134805 0.789365 0.332174 -0.201781
C87   C     C_R   0.664436 0.395743 0.863499 -0.206283
C88   C     C_R   0.365198 0.289368 0.167830 -0.201782
H21   H     H_    0.814180 0.776894 0.637272 0.133094
H22   H     H_    0.136029 0.662492 0.310646 0.139240
H23   H     H_    0.685838 0.276932 0.862746 0.133091
H24   H     H_    0.363978 0.162504 0.189361 0.139242
C89   C     C_R   0.863758 0.885559 0.604825 -0.089965
C90   C     C_R   0.104073 0.799617 0.360804 -0.100155
C91   C     C_R   0.636255 0.385586 0.895189 -0.089962
C92   C     C_R   0.395931 0.299620 0.139200 -0.100152
H25   H     H_    0.863650 0.759957 0.582095 0.142950
H26   H     H_    0.082243 0.681337 0.360795 0.149376
H27   H     H_    0.636370 0.259999 0.917927 0.142964
H28   H     H_    0.417764 0.181348 0.139212 0.149393
C93   C     C_R   0.892058 0.036004 0.602455 0.367622
C94   C     C_R   0.101401 0.961606 0.389292 0.368124
C95   C     C_R   0.607947 0.536014 0.897552 0.367603
C96   C     C_R   0.398599 0.461597 0.110707 0.368110
N5    N     N_3   0.940457 0.164742 0.111534 -0.673986
H29   H     H_    0.963773 0.270454 0.132807 0.240561
H30   H     H_    0.942743 0.057237 0.139300 0.225834
N6    N     N_3   0.037702 0.561070 0.930634 -0.631897
H31   H     H_    0.048422 0.605469 0.899027 0.241693
H32   H     H_    0.061964 0.467787 0.957536 0.237873
N7    N     N_3   0.559549 0.664681 0.388466 -0.673991
H33   H     H_    0.536235 0.770392 0.367191 0.240561
H34   H     H_    0.557261 0.557165 0.360701 0.225826
N8    N     N_3   0.462286 0.061049 0.569342 -0.631875
H35   H     H_    0.451580 0.105425 0.600963 0.241675
H36   H     H_    0.438006 0.967819 0.542432 0.237859
C97   C     C_R   0.867391 0.344935 0.029920 0.151922
C98   C     C_R   0.895969 0.504389 0.043384 -0.110396
C99   C     C_R   0.887591 0.643288 0.075904 -0.122167
C100  C     C_R   0.850470 0.624977 0.094746 -0.099361
C101  C     C_R   0.821513 0.467830 0.080886 -0.113215
C102  C     C_R   0.829760 0.328326 0.048367 -0.118556
H37   H     H_    0.924845 0.520255 0.029019 0.118115
H38   H     H_    0.909930 0.764808 0.086565 0.121479
H39   H     H_    0.844109 0.732650 0.120006 0.108810
H40   H     H_    0.792688 0.454082 0.095368 0.118649
H41   H     H_    0.807176 0.207003 0.037942 0.109807
C103  C     C_R   0.132514 0.708500 0.964092 0.086252
C104  C     C_R   0.124110 0.816931 0.916355 -0.136312
C105  C     C_R   0.138510 0.754313 0.874292 -0.125105
C106  C     C_R   0.161564 0.583953 0.879772 -0.096411
C107  C     C_R   0.170604 0.476542 0.927539 -0.100971
C108  C     C_R   0.156525 0.539113 0.969869 -0.148616
H42   H     H_    0.106462 0.949463 0.911825 0.114410
H43   H     H_    0.131872 0.838059 0.837507 0.106531
H44   H     H_    0.172598 0.535534 0.847111 0.106251
H45   H     H_    0.188654 0.345109 0.931847 0.118965
H46   H     H_    0.163902 0.455342 0.006846 0.113082
C109  C     C_R   0.632614 0.844891 0.470081 0.151917
C110  C     C_R   0.604038 0.004348 0.456618 -0.110399
C111  C     C_R   0.612417 0.143239 0.424099 -0.122173
C112  C     C_R   0.649536 0.124917 0.405255 -0.099367
C113  C     C_R   0.678492 0.967768 0.419114 -0.113207
C114  C     C_R   0.670244 0.828272 0.451633 -0.118549
H47   H     H_    0.575163 0.020221 0.470985 0.118116
H48   H     H_    0.590080 0.264761 0.413440 0.121484
H49   H     H_    0.655899 0.232583 0.379995 0.108813
H50   H     H_    0.707315 0.954011 0.404630 0.118653
H51   H     H_    0.692826 0.706947 0.462056 0.109810
C115  C     C_R   0.367488 0.208629 0.535916 0.086242
C116  C     C_R   0.375942 0.317009 0.583672 -0.136297
C117  C     C_R   0.361543 0.254466 0.625738 -0.125119
C118  C     C_R   0.338435 0.084233 0.620244 -0.096458
C119  C     C_R   0.329346 0.976877 0.572459 -0.100942
C120  C     C_R   0.343429 0.039366 0.530127 -0.148590
H52   H     H_    0.393634 0.449454 0.588212 0.114424
H53   H     H_    0.368219 0.338181 0.662539 0.106537
H54   H     H_    0.327398 0.035871 0.652907 0.106270
H55   H     H_    0.311252 0.845537 0.568140 0.118993
H56   H     H_    0.336013 0.955626 0.493135 0.113071
N9    N     N_3   0.030061 0.995481 0.137678 -0.692866
H57   H     H_    0.036210 0.122209 0.158567 0.230618
H58   H     H_    0.013328 0.906061 0.156090 0.236229
N10   N     N_3   0.947907 0.636652 0.920155 -0.631664
H59   H     H_    0.938316 0.667719 0.877913 0.234413
H60   H     H_    0.918333 0.637287 0.931313 0.230490
N11   N     N_3   0.469939 0.495460 0.362320 -0.692867
H61   H     H_    0.463792 0.622187 0.341434 0.230616
H62   H     H_    0.486670 0.406036 0.343906 0.236227
N12   N     N_3   0.552086 0.136647 0.579839 -0.631657
H63   H     H_    0.561676 0.167722 0.622082 0.234394
H64   H     H_    0.581661 0.137277 0.568684 0.230492
C121  C     C_R   0.952520 0.370844 0.371502 0.155985
C122  C     C_R   0.963134 0.559617 0.380664 -0.110844
C123  C     C_R   0.951462 0.681177 0.335482 -0.117142
C124  C     C_R   0.928766 0.615175 0.280988 -0.094403
C125  C     C_R   0.917454 0.427651 0.271618 -0.110309
C126  C     C_R   0.929038 0.305661 0.316727 -0.063415
H65   H     H_    0.980485 0.611791 0.422705 0.117438
H66   H     H_    0.959924 0.826453 0.342679 0.113562
H67   H     H_    0.919790 0.709384 0.246041 0.105658
H68   H     H_    0.899722 0.376894 0.229408 0.118618
H69   H     H_    0.920150 0.160636 0.309080 0.093035
C127  C     C_R   0.038346 0.616715 0.616779 0.156404
C128  C     C_R   0.061394 0.679450 0.671878 -0.058061
C129  C     C_R   0.073083 0.554854 0.716331 -0.111522
C130  C     C_R   0.062521 0.367155 0.706031 -0.091773
C131  C     C_R   0.040410 0.303570 0.651213 -0.117377
C132  C     C_R   0.028519 0.427759 0.606661 -0.115535
H70   H     H_    0.069854 0.824515 0.680284 0.091684
H71   H     H_    0.090332 0.603724 0.758737 0.106440
H72   H     H_    0.071673 0.270921 0.740500 0.108286
H73   H     H_    0.032660 0.158124 0.643301 0.113834
H74   H     H_    0.011768 0.377442 0.564341 0.119029
C133  C     C_R   0.547473 0.870887 0.128497 0.155979
C134  C     C_R   0.536875 0.059668 0.119336 -0.110879
C135  C     C_R   0.548546 0.181236 0.164518 -0.117136
C136  C     C_R   0.571227 0.115232 0.219013 -0.094417
C137  C     C_R   0.582525 0.927699 0.228383 -0.110316
C138  C     C_R   0.570941 0.805702 0.183273 -0.063375
H75   H     H_    0.519536 0.111843 0.077295 0.117448
H76   H     H_    0.540095 0.326517 0.157321 0.113549
H77   H     H_    0.580203 0.209447 0.253960 0.105653
H78   H     H_    0.600245 0.876941 0.270593 0.118624
H79   H     H_    0.579819 0.660671 0.190921 0.093025
C139  C     C_R   0.461668 0.116662 0.883230 0.156391
C140  C     C_R   0.438647 0.179394 0.828128 -0.058008
C141  C     C_R   0.426965 0.054783 0.783676 -0.111524
C142  C     C_R   0.437503 0.867073 0.793981 -0.091794
C143  C     C_R   0.459585 0.803491 0.848801 -0.117376
C144  C     C_R   0.471471 0.927693 0.893352 -0.115584
H80   H     H_    0.430206 0.324466 0.819719 0.091672
H81   H     H_    0.409738 0.103652 0.741268 0.106450
H82   H     H_    0.428356 0.770828 0.759513 0.108282
H83   H     H_    0.467316 0.658037 0.856717 0.113813
H84   H     H_    0.488199 0.877378 0.935673 0.119045

loop_
_geom_bond_atom_site_label_1
_geom_bond_atom_site_label_2
_ccdc_geom_bond_type
O17   V3    S    
N3    C51   A    
C132  H74   S    
C92   C96   A    
C121  C126  A    
O1    C5    A    
C117  H53   S    
C51   C55   A    
O19   V1    S    
C9    C21   A    
C86   H22   S    
O3    C7    A    
C59   C60   A    
C10   C18   A    
C56   C60   A    
C48   N4    A    
C11   C23   A    
N10   H60   S    
N5    H29   S    
C133  C138  A    
C85   C89   A    
C104  H42   S    
N7    H34   S    
C5    C12   S    
C122  H65   S    
C97   C98   A    
C131  C132  A    
O7    C3    A    
C6    C11   S    
C35   C40   A    
C57   C58   A    
C62   C69   A    
N8    H36   S    
C36   C39   A    
C113  C114  A    
C65   C121  S    
C40   C44   A    
C47   C63   A    
N6    H31   S    
C3    C82   S    
C37   N9    S    
C14   C18   A    
C79   H19   S    
C143  H83   S    
C135  C136  A    
O4    C8    A    
C1    C84   S    
C59   C63   A    
C80   H20   S    
N8    H35   S    
C58   C62   A    
C43   N7    S    
C101  H40   S    
C114  H51   S    
C113  H50   S    
O1    V3    S    
C142  C143  A    
O13   V1    S    
C103  C104  A    
C76   C80   A    
O2    V4    S    
C128  C129  A    
C105  H43   S    
O3    V1    S    
C72   H12   S    
C98   C99   A    
C54   C66   A    
C22   H1    S    
C89   H25   S    
C28   C36   A    
C17   H6    S    
C28   C32   A    
C83   C87   A    
C108  H46   S    
C1    O15   A    
C15   C31   A    
N3    C96   S    
C92   H28   S    
C20   H7    S    
C2    O16   A    
C117  C118  A    
C16   C32   A    
C46   C62   A    
C142  H82   S    
C45   C61   A    
C112  C113  A    
C10   C22   A    
C91   H27   S    
C111  C112  A    
C11   C19   A    
C125  C126  A    
C73   C77   A    
N9    H58   S    
C51   O27   S    
C102  H41   S    
C85   H21   S    
C76   H16   S    
C13   C29   A    
C74   H14   S    
C34   C37   A    
O11   C7    A    
C120  H56   S    
O15   V3    S    
C35   C36   A    
O12   C8    A    
C73   C93   A    
C138  H79   S    
C70   H10   S    
C53   C57   A    
C69   H9    S    
C78   H18   S    
C68   C139  S    
C76   C96   A    
O10   V2    S    
C135  H76   S    
C71   H11   S    
N10   H59   S    
N5    H30   S    
N4    C95   S    
C134  H75   S    
C54   C58   A    
N12   H63   S    
O5    V1    S    
C65   C69   A    
C100  H39   S    
C16   C115  S    
O7    V3    S    
C131  H73   S    
C38   C42   A    
C42   N6    S    
C128  H70   S    
C26   C34   A    
C39   N11   S    
C140  C141  A    
N11   H61   S    
C133  C134  A    
C82   C86   A    
C44   N8    S    
N7    H33   S    
N2    C93   S    
C49   C53   A    
C115  C116  A    
C141  C142  A    
C15   C19   A    
C33   C38   A    
N9    H57   S    
C32   C44   A    
C15   C109  S    
O4    V2    S    
C77   C81   A    
C116  C117  A    
C107  C108  A    
O8    V4    S    
C52   O28   S    
C14   C103  S    
C87   H23   S    
C125  H68   S    
C39   C43   A    
C73   H13   S    
C121  C122  A    
C63   C72   A    
C118  H54   S    
C37   C41   A    
C144  H84   S    
C46   N2    A    
C75   H15   S    
C99   C100  A    
C14   C30   A    
C16   C20   A    
C40   N12   S    
O8    C4    A    
C7    C10   S    
C52   C56   A    
C140  H80   S    
C48   O24   S    
C118  C119  A    
C74   C94   A    
O9    C5    A    
C111  H48   S    
C46   O22   S    
C136  H77   S    
C26   C30   A    
C115  C120  A    
C106  H44   S    
C123  H66   S    
O14   V2    S    
C61   C70   A    
C100  C101  A    
O6    V2    S    
C107  H45   S    
C101  C102  A    
N12   H64   S    
C49   O25   S    
C50   C54   A    
C116  H52   S    
C77   H17   S    
C12   C20   A    
C80   C84   A    
C2    C83   S    
C24   H3    S    
C41   N5    S    
C137  C138  A    
C78   C82   A    
C57   C61   A    
C68   C72   A    
C123  C124  A    
C29   C41   A    
C109  C114  A    
O16   V4    S    
O9    V1    S    
C19   H8    S    
C81   C85   A    
C137  H78   S    
C45   O21   S    
C64   C71   A    
N1    C94   S    
C90   C94   A    
C75   C79   A    
C21   H2    S    
C4    C81   S    
C141  H81   S    
C84   C88   A    
C55   C67   A    
C110  C111  A    
C3    O13   A    
C127  C132  A    
O6    C2    A    
C25   C33   A    
C23   C27   A    
N11   H62   S    
O11   V3    S    
C139  C140  A    
C30   C42   A    
O12   V4    S    
C119  H55   S    
C22   C26   A    
C66   C127  S    
C8    C9    S    
C47   O23   S    
C91   C95   A    
C50   O26   S    
C129  H71   S    
C9    C17   A    
O10   C6    A    
C136  C137  A    
N6    H32   S    
C110  H47   S    
C129  C130  A    
C67   C133  S    
C31   C43   A    
C88   C92   A    
N2    C50   A    
O2    C6    A    
C47   N3    A    
C86   C90   A    
C33   C34   A    
C124  H67   S    
N4    C52   A    
C75   C95   A    
C97   C102  A    
C124  C125  A    
C25   C29   A    
C60   C64   A    
C87   C91   A    
C127  C128  A    
C18   H5    S    
O20   V2    S    
C21   C25   A    
C12   C24   A    
C27   C31   A    
C126  H69   S    
C119  C120  A    
C13   C17   A    
C122  C123  A    
C45   N1    A    
N1    C49   A    
C23   H4    S    
C79   C83   A    
C143  C144  A    
C56   C68   A    
C99   H38   S    
C13   C97   S    
C109  C110  A    
C53   C65   A    
C24   C28   A    
C27   C35   A    
C139  C144  A    
C106  C107  A    
C55   C59   A    
C130  H72   S    
C90   H26   S    
C66   C70   A    
C4    O14   A    
C112  H49   S    
C103  C108  A    
C104  C105  A    
C67   C71   A    
O5    C1    A    
C105  C106  A    
C89   C93   A    
C98   H37   S    
C74   C78   A    
O18   V4    S    
C48   C64   A    
C130  C131  A    
C38   N10   S    
C134  C135  A    
C88   H24   S    
