data_mof_unit_27551.cif
_audit_creation_date              2012-12-10T18:54:28-0500
_audit_creation_method            fapswitch 2.2
_symmetry_space_group_name_H-M    P1
_symmetry_Int_Tables_number       1
_space_group_crystal_system       triclinic
_cell_length_a                    10.71413
_cell_length_b                    9.820293
_cell_length_c                    23.43848
_cell_angle_alpha                 89.998856
_cell_angle_beta                  90.300257
_cell_angle_gamma                 89.989752
_cell_volume                      2466.0667677

loop_
_atom_site_label
_atom_site_type_symbol
_atom_type_description
_atom_site_fract_x
_atom_site_fract_y
_atom_site_fract_z
_atom_type_partial_charge
C1    C     C_R   0.259812 0.500010 0.499955 0.874220
C2    C     C_R   0.527007 0.618905 0.703168 -0.283099
C3    C     C_R   0.474821 0.619031 0.237327 0.269093
C4    C     C_R   0.524499 0.619248 0.762674 0.269474
C5    C     C_R   0.505734 0.497947 0.208481 0.296783
C6    C     C_R   0.494458 0.497925 0.791535 0.296636
C7    C     C_R   0.063809 0.378085 0.489968 -0.186535
C8    C     C_R   0.936189 0.621918 0.510030 -0.186900
C9    C     C_R   0.935998 0.378058 0.490032 -0.188033
C10   C     C_R   0.064001 0.621946 0.509961 -0.187894
C11   C     C_R   0.872592 0.499979 0.500050 -0.013425
C12   C     C_R   0.740188 0.499990 0.500044 0.874233
C13   C     C_R   0.127406 0.500024 0.499946 -0.014004
C14   C     C_R   0.578000 0.072002 0.535464 -0.075501
C15   C     C_R   0.422008 0.927993 0.464531 -0.073094
C16   C     C_R   0.421996 0.072039 0.464537 -0.075309
C17   C     C_R   0.577994 0.927955 0.535468 -0.072986
C18   C     C_R   0.499995 0.499971 0.389298 0.892144
C19   C     C_R   0.500015 0.499971 0.610705 0.892220
C20   C     C_R   0.607679 0.489886 0.880049 0.549332
C21   C     C_R   0.392609 0.488759 0.119966 0.549211
C22   C     C_R   0.384584 0.488972 0.880501 0.495220
C23   C     C_R   0.534613 0.379478 0.238762 -0.161027
C24   C     C_R   0.615701 0.490112 0.119519 0.495417
C25   C     C_R   0.382752 0.482701 0.940457 -0.049194
C26   C     C_R   0.617594 0.483925 0.059561 -0.049252
C27   C     C_R   0.498584 0.483887 0.969972 -0.065962
C28   C     C_R   0.501759 0.483900 0.030045 -0.065998
C29   C     C_R   0.611524 0.485998 0.939488 -0.038403
C30   C     C_R   0.388805 0.484832 0.060528 -0.038288
C31   C     C_R   0.270087 0.477710 0.971856 0.222396
C32   C     C_R   0.730299 0.480165 0.028163 0.222306
C33   C     C_R   0.274535 0.481155 0.031353 -0.239652
C34   C     C_R   0.466365 0.379233 0.761262 -0.161157
C35   C     C_R   0.725825 0.483526 0.968664 -0.239589
C36   C     C_3   0.112086 0.329825 0.933272 -0.685465
C37   C     C_3   0.889870 0.334111 0.066663 -0.685918
C38   C     C_3   0.541004 0.804263 0.174780 -0.757279
C39   C     C_3   0.457024 0.803902 0.825245 -0.757635
C40   C     C_R   0.532350 0.380040 0.297845 -0.216832
C41   C     C_R   0.468553 0.379809 0.702180 -0.215457
C42   C     C_R   0.501420 0.499624 0.327168 -0.065693
C43   C     C_R   0.498647 0.499622 0.672841 -0.065882
C44   C     C_R   0.472284 0.618683 0.296832 -0.281721
H1    H     H_    0.187443 0.479104 0.054659 0.187349
H2    H     H_    0.887605 0.716687 0.518177 0.154527
H3    H     H_    0.887258 0.283267 0.481942 0.158145
H4    H     H_    0.112740 0.716740 0.518048 0.158647
H5    H     H_    0.640291 0.126725 0.563782 0.130125
H6    H     H_    0.359737 0.873264 0.436202 0.125781
H7    H     H_    0.359694 0.126793 0.436223 0.127077
H8    H     H_    0.640275 0.873196 0.563793 0.122740
H9    H     H_    0.082797 0.524289 0.964179 0.208558
H10   H     H_    0.101211 0.273177 0.973978 0.205522
H11   H     H_    0.181440 0.276464 0.906193 0.258188
H12   H     H_    0.812939 0.482377 0.945359 0.187683
H13   H     H_    0.021086 0.330833 0.910381 0.245708
H14   H     H_    0.917060 0.529082 0.035897 0.208523
H15   H     H_    0.901559 0.277856 0.025915 0.205655
H16   H     H_    0.820994 0.279712 0.093627 0.258265
H17   H     H_    0.980740 0.336154 0.089645 0.245975
H18   H     H_    0.385938 0.806859 0.228505 0.227174
H19   H     H_    0.553556 0.910955 0.189528 0.225651
H20   H     H_    0.515477 0.805517 0.128833 0.246856
H21   H     H_    0.631806 0.750793 0.180026 0.266719
H22   H     H_    0.611980 0.807842 0.771467 0.226958
H23   H     H_    0.557857 0.286613 0.216259 0.144569
H24   H     H_    0.443517 0.910419 0.810445 0.225686
H25   H     H_    0.482706 0.805547 0.871171 0.246877
H26   H     H_    0.366662 0.749540 0.820104 0.266673
H27   H     H_    0.443782 0.286189 0.783774 0.144591
H28   H     H_    0.555332 0.287174 0.320522 0.167768
H29   H     H_    0.446191 0.286755 0.679519 0.168192
H30   H     H_    0.447479 0.711229 0.319262 0.155925
H31   H     H_    0.551152 0.711647 0.680734 0.155768
H32   H     H_    0.112393 0.283314 0.481824 0.154818
N1    N     N_R   0.495649 0.492940 0.852248 -0.348489
N2    N     N_R   0.504603 0.492945 0.147769 -0.348488
N3    N     N_R   0.500000 0.857200 0.500000 -0.079383
N4    N     N_R   0.500000 0.142800 0.500000 -0.080887
N5    N     N_2   0.151563 0.468184 0.944453 -0.247009
N6    N     N_2   0.848903 0.472015 0.055572 -0.247047
N7    N     N_2   0.441958 0.739261 0.206716 -0.296551
N8    N     N_2   0.556499 0.739760 0.793271 -0.296512
O1    O     O_R   0.316770 0.614620 0.500000 -0.627853
O2    O     O_2   0.285428 0.488404 0.150019 -0.555816
O3    O     O_2   0.277188 0.493900 0.850261 -0.532523
O4    O     O_2   0.723043 0.496052 0.149766 -0.532468
O5    O     O_R   0.683230 0.385380 0.500000 -0.627965
O6    O     O_R   0.683230 0.614620 0.500000 -0.626633
O7    O     O_R   0.316770 0.385380 0.500000 -0.626843
O8    O     O_R   0.499970 0.614690 0.416160 -0.619032
O9    O     O_R   0.500030 0.385310 0.583840 -0.622291
O10   O     O_R   0.500030 0.614690 0.583840 -0.621067
O11   O     O_R   0.499970 0.385310 0.416160 -0.624211
O12   O     O_2   0.714855 0.490620 0.849995 -0.555486
Zn1   Zn    Zn3+2 0.500000 0.653120 0.500000 0.952328
Zn2   Zn    Zn3+2 0.500000 0.346880 0.500000 0.950036

loop_
_geom_bond_atom_site_label_1
_geom_bond_atom_site_label_2
_ccdc_geom_bond_type
C25   C31   A    
H18   N7    S    
C26   C32   A    
C38   N7    S    
C27   C29   A    
C33   H1    S    
C39   H24   S    
C16   H7    S    
O11   Zn2   S    
C20   N1    A    
C12   O6    A    
C24   C26   A    
C39   N8    S    
C18   C42   S    
C14   H5    S    
C23   C40   A    
C17   N3    A    
H9    N5    S    
C15   H6    S    
C23   H23   S    
C15   N3    A    
C22   C25   A    
C4    N8    S    
C21   N2    A    
C31   C33   A    
C14   N4    A    
C36   N5    S    
O6    Zn1   S    
C19   O9    A    
C40   C42   A    
C20   O12   S    
C1    O7    A    
C18   O11   A    
C41   C43   A    
C14   C17   A    
C34   C41   A    
C42   C44   A    
C17   H8    S    
C19   C43   S    
O8    Zn1   S    
C38   H20   S    
C20   C29   A    
C1    O1    A    
C3    C44   A    
C32   C35   A    
C12   O5    A    
C36   H10   S    
C4    C6    A    
C36   H13   S    
C6    N1    S    
O10   Zn1   S    
H22   N8    S    
C6    C34   A    
C16   N4    A    
C2    C4    A    
C24   O4    S    
C5    C23   A    
C38   H21   S    
C2    C43   A    
C39   H25   S    
C22   O3    S    
C44   H30   S    
C9    C11   A    
C37   H15   S    
C19   O10   A    
C24   N2    A    
C9    H3    S    
C10   H4    S    
C37   N6    S    
C1    C13   S    
C38   H19   S    
C7    C9    A    
C21   O2    S    
C40   H28   S    
C30   C33   A    
N4    Zn2   S    
C35   H12   S    
N3    Zn1   S    
C22   N1    A    
C3    C5    A    
C10   C13   A    
C37   H17   S    
C11   C12   S    
C7    H32   S    
C25   C27   A    
C32   N6    S    
C21   C30   A    
C29   C35   A    
C26   C28   A    
C31   N5    S    
O5    Zn2   S    
C18   O8    A    
H14   N6    S    
C36   H11   S    
C3    N7    S    
C8    C11   A    
C34   H27   S    
C28   C30   A    
C39   H26   S    
O7    Zn2   S    
C8    H2    S    
C37   H16   S    
O1    Zn1   S    
C41   H29   S    
C7    C13   A    
C8    C10   A    
C27   C28   A    
C5    N2    S    
O9    Zn2   S    
C2    H31   S    
C15   C16   A    
