data_mof_unit_16601.cif
_audit_creation_date              2012-12-11T16:53:30-0500
_audit_creation_method            fapswitch 2.2
_symmetry_space_group_name_H-M    P1
_symmetry_Int_Tables_number       1
_space_group_crystal_system       triclinic
_cell_length_a                    14.992823
_cell_length_b                    14.756646
_cell_length_c                    16.973815
_cell_angle_alpha                 108.60067
_cell_angle_beta                  106.768012
_cell_angle_gamma                 108.289429
_cell_volume                      3048.06292701

loop_
_atom_site_label
_atom_site_type_symbol
_atom_type_description
_atom_site_fract_x
_atom_site_fract_y
_atom_site_fract_z
_atom_type_partial_charge
C1    C     C_R   0.089038 0.284403 0.072578 -0.124787
C2    C     C_R   0.027419 0.579643 0.745117 0.071177
C3    C     C_R   0.760596 0.195176 0.725944 0.061626
C4    C     C_R   0.361861 0.567695 0.062936 0.081690
C5    C     C_R   0.273298 0.689699 0.253526 -0.140979
C6    C     C_R   0.718112 0.530066 0.943067 0.243595
C7    C     C_R   0.891708 0.458513 0.189539 -0.125049
C8    C     C_R   0.084609 0.805634 0.015553 -0.117783
C9    C     C_R   0.913589 0.722101 0.936892 -0.129020
C10   C     C_R   0.065179 0.546730 0.265493 -0.128515
C11   C     C_R   0.278526 0.786400 0.176903 -0.137304
C12   C     C_R   0.936115 0.519836 0.746654 -0.149469
C13   C     C_R   0.714554 0.436080 0.023023 -0.167169
C14   C     C_R   0.334911 0.783573 0.255873 0.068513
C15   C     C_R   0.671498 0.497273 0.995546 -0.018292
C16   C     C_R   0.973567 0.529846 0.275763 0.059703
C17   C     C_R   0.999398 0.820574 0.974733 0.051682
C18   C     C_R   0.536323 0.663340 0.068735 0.186000
C19   C     C_R   0.472625 0.597197 0.093779 0.021483
C20   C     C_R   0.508491 0.531221 0.123462 -0.209377
C21   C     C_R   0.576838 0.501669 0.093863 -0.186773
C22   C     C_R   0.614554 0.542969 0.039401 0.029914
C23   C     C_R   0.776626 0.200964 0.812667 -0.130047
C24   C     C_R   0.605023 0.635088 0.040275 0.176865
C25   C     C_3   0.598049 0.687759 0.978210 -0.553959
C26   C     C_3   0.522679 0.718734 0.009296 -0.535130
C27   C     C_R   0.965120 0.574817 0.362239 0.131131
C28   C     C_R   0.035888 0.621527 0.678666 0.128330
C29   C     C_R   0.140783 0.691266 0.607560 -0.223885
C30   C     C_R   0.133901 0.675387 0.682316 -0.176017
C31   C     C_R   0.945373 0.597317 0.604970 -0.281357
C32   C     C_R   0.951476 0.607341 0.527878 0.189889
C33   C     C_R   0.049870 0.649894 0.527753 0.188972
C34   C     C_R   0.302809 0.599666 0.009240 -0.133179
C35   C     C_R   0.055806 0.637519 0.445212 -0.277746
C36   C     C_R   0.867273 0.545498 0.364114 -0.170189
C37   C     C_R   0.860585 0.563119 0.447185 -0.226634
C38   C     C_R   0.719176 0.098781 0.639308 0.131081
C39   C     C_R   0.443607 0.857103 0.322480 0.129183
C40   C     C_R   0.589047 0.032881 0.394835 -0.222854
C41   C     C_R   0.496412 0.952722 0.320043 -0.178403
C42   C     C_R   0.491430 0.837409 0.395194 -0.281230
C43   C     C_R   0.580290 0.919374 0.472487 0.190295
C44   C     C_R   0.626785 0.019330 0.473705 0.187516
C45   C     C_R   0.783429 0.297771 0.735223 -0.137721
C46   C     C_R   0.700457 0.107445 0.556722 -0.276809
C47   C     C_R   0.683084 0.997051 0.636247 -0.171477
C48   C     C_R   0.615138 0.907066 0.552496 -0.226449
C49   C     C_R   0.094743 0.111831 0.133747 0.165898
C50   C     C_R   0.002875 0.110091 0.080812 0.018866
C51   C     C_R   0.909418 0.031213 0.068953 -0.205094
C52   C     C_R   0.911999 0.963052 0.111966 -0.192888
C53   C     C_R   0.007181 0.970521 0.166967 0.021459
C54   C     C_R   0.096196 0.045625 0.174013 0.180876
C55   C     C_3   0.211492 0.093824 0.220786 -0.492990
C56   C     C_R   0.295107 0.499789 0.082827 -0.120424
C57   C     C_3   0.210954 0.169578 0.176027 -0.540424
C58   C     C_R   0.108837 0.602192 0.823820 -0.128396
C59   C     C_R   0.916479 0.200184 0.998457 -0.137309
C60   C     C_R   0.003202 0.189827 0.044946 0.068237
H1    H     H_    0.167474 0.311932 0.121851 0.095047
H2    H     H_    0.810720 0.423183 0.174273 0.085829
H3    H     H_    0.165378 0.862634 0.044792 0.088473
H4    H     H_    0.836912 0.702699 0.890581 0.109886
H5    H     H_    0.144096 0.596264 0.317830 0.095265
H6    H     H_    0.307445 0.839657 0.149165 0.080586
H7    H     H_    0.686644 0.384024 0.051701 0.098795
H8    H     H_    0.471791 0.487444 0.154763 0.125114
H9    H     H_    0.590983 0.439476 0.107105 0.122137
H10   H     H_    0.672417 0.757273 0.000279 0.195594
H11   H     H_    0.857808 0.500172 0.702585 0.086453
H12   H     H_    0.555806 0.632848 0.903760 0.197831
H13   H     H_    0.553936 0.806433 0.050332 0.198268
H14   H     H_    0.445653 0.679354 0.949615 0.194503
H15   H     H_    0.131875 0.666190 0.445771 0.117979
H16   H     H_    0.795622 0.502639 0.301600 0.114956
H17   H     H_    0.216859 0.726032 0.608893 0.126817
H18   H     H_    0.784501 0.532777 0.446792 0.125846
H19   H     H_    0.205495 0.698677 0.739508 0.114494
H20   H     H_    0.869261 0.559973 0.602339 0.117233
H21   H     H_    0.732411 0.184282 0.557070 0.119035
H22   H     H_    0.766414 0.136429 0.831417 0.092926
H23   H     H_    0.700237 0.987127 0.698460 0.115552
H24   H     H_    0.625085 0.108830 0.394440 0.127077
H25   H     H_    0.581737 0.830117 0.552004 0.125226
H26   H     H_    0.463385 0.969097 0.263672 0.113598
H27   H     H_    0.454609 0.762927 0.397146 0.114502
H28   H     H_    0.834345 0.023134 0.028744 0.125894
H29   H     H_    0.840023 0.905430 0.103659 0.129589
H30   H     H_    0.242171 0.134850 0.297045 0.196452
H31   H     H_    0.242250 0.037424 0.193777 0.187719
H32   H     H_    0.242146 0.253933 0.227394 0.191666
H33   H     H_    0.330193 0.667797 0.996662 0.090736
H34   H     H_    0.242130 0.157525 0.123529 0.196915
H35   H     H_    0.779261 0.324362 0.682684 0.103453
H36   H     H_    0.315691 0.471326 0.133377 0.081306
H37   H     H_    0.189527 0.658729 0.851892 0.082780
H38   H     H_    0.836462 0.149996 0.980376 0.086691
H39   H     H_    0.296637 0.652603 0.295853 0.083606
N1    N     N_R   0.055640 0.348550 0.045600 -0.041012
N2    N     N_R   0.798340 0.505430 0.954400 -0.045715
N3    N     N_R   0.931580 0.439470 0.128350 -0.039176
N4    N     N_R   0.051950 0.704140 0.002340 -0.041257
N5    N     N_R   0.944360 0.651450 0.954400 -0.042026
N6    N     N_R   0.039170 0.492150 0.176290 -0.041601
N7    N     N_R   0.188710 0.696600 0.128350 -0.037019
N8    N     N_R   0.794820 0.447010 0.002340 -0.050555
N9    N     N_R   0.960830 0.507850 0.823710 -0.038407
N10   N     N_R   0.811290 0.303400 0.871650 -0.038324
N11   N     N_R   0.205180 0.552990 0.997660 -0.040182
N12   N     N_R   0.814810 0.361830 0.823710 -0.038459
N13   N     N_R   0.201660 0.494570 0.045600 -0.039891
N14   N     N_R   0.068420 0.560530 0.871650 -0.037141
N15   N     N_R   0.948050 0.295860 0.997660 -0.039368
N16   N     N_R   0.185190 0.638170 0.176290 -0.037987
Ni1   Ni    Ni4+2 0.119330 0.493420 0.109950 0.205799
Ni2   Ni    Ni4+2 0.880670 0.506580 0.890050 0.208969
Ni3   Ni    Ni4+2 0.872590 0.372590 0.000000 0.211300
Ni4   Ni    Ni4+2 0.127410 0.627410 0.000000 0.205182
C61   C     C_3   0.657206 0.530873 0.855252 -0.414170
C62   C     C_3   0.669726 0.469032 0.771638 -0.908300
H40   H     H_    0.751578 0.505218 0.782432 0.257748
H41   H     H_    0.643045 0.384001 0.757663 0.269886
H42   H     H_    0.620970 0.472131 0.710283 0.244480
H43   H     H_    0.572834 0.491201 0.837291 0.199628
H44   H     H_    0.679263 0.613779 0.865081 0.182922

loop_
_geom_bond_atom_site_label_1
_geom_bond_atom_site_label_2
_ccdc_geom_bond_type
N2    N8    A    
C59   N15   A    
C23   H22   S    
N7    Ni4   S    
C9    H4    S    
C40   H24   S    
N6    Ni1   S    
C3    C23   A    
C19   C20   A    
N1    Ni1   S    
C34   H33   S    
C13   N8    A    
C2    C12   A    
C31   H20   S    
C39   C41   A    
C53   C54   A    
C61   C62   S    
C41   H26   S    
C35   H15   S    
C18   C24   A    
C36   C37   A    
C57   H32   S    
C55   H30   S    
N10   N12   A    
C11   C14   A    
C61   H44   S    
C49   C54   A    
C29   C33   A    
C26   H13   S    
C49   C57   S    
N3    N6    A    
C18   C19   A    
C6    N2    A    
C62   H42   S    
C55   H31   S    
C36   H16   S    
C33   C35   A    
C14   C39   S    
N14   Ni4   S    
C4    C19   S    
C15   C22   S    
C5    H39   S    
C3    C38   S    
C7    N3    A    
C18   C26   S    
C58   N14   A    
C47   H23   S    
C5    C14   A    
C43   C48   A    
N8    Ni3   S    
N3    Ni3   S    
C11   H6    S    
C16   C27   S    
C6    C15   A    
C59   C60   A    
C21   C22   A    
C4    C56   A    
C52   H29   S    
C58   H37   S    
C1    N1    A    
C6    C61   S    
C44   C46   A    
N10   Ni3   S    
C39   C42   A    
C23   N10   A    
C4    C34   A    
C62   H41   S    
C51   C52   A    
C47   C48   A    
N1    N15   A    
C24   C25   S    
C1    C60   A    
C12   N9    A    
C61   H43   S    
C27   C35   A    
C25   C26   S    
C3    C45   A    
C21   H9    S    
N9    N14   A    
N11   Ni4   S    
C43   C44   A    
C7    H2    S    
C29   C30   A    
C46   H21   S    
C31   C32   A    
C11   N7    A    
C45   N12   A    
C50   C51   A    
C38   C47   A    
C25   H12   S    
C32   C37   A    
C62   H40   S    
N15   Ni3   S    
C30   H19   S    
C9    C17   A    
C7    C16   A    
C12   H11   S    
C57   H34   S    
C55   C57   S    
C34   N11   A    
C22   C24   A    
C42   C43   A    
C45   H35   S    
N13   Ni1   S    
C52   C53   A    
N5    Ni2   S    
C13   H7    S    
C10   H5    S    
C56   H36   S    
C54   C55   S    
C40   C41   A    
N9    Ni2   S    
C20   H8    S    
C28   C31   A    
N4    Ni4   S    
C1    H1    S    
C51   H28   S    
C2    C58   A    
C42   H27   S    
C27   C36   A    
C37   H18   S    
C8    C17   A    
N7    N16   A    
N12   Ni2   S    
C50   C60   S    
C32   C33   A    
C13   C15   A    
N2    Ni2   S    
C10   C16   A    
C9    N5    A    
C28   C30   A    
C26   H14   S    
C8    N4    A    
N11   N13   A    
C38   C46   A    
C8    H3    S    
C40   C44   A    
C29   H17   S    
C20   C21   A    
C49   C50   A    
N4    N5    A    
C59   H38   S    
C48   H25   S    
C10   N6    A    
C2    C28   S    
C25   H10   S    
C56   N13   A    
C5    N16   A    
N16   Ni1   S    
