data_mof_unit_16970.cif
_audit_creation_date              2012-12-10T16:45:21-0500
_audit_creation_method            fapswitch 2.2
_symmetry_space_group_name_H-M    P1
_symmetry_Int_Tables_number       1
_space_group_crystal_system       triclinic
_cell_length_a                    7.40617
_cell_length_b                    8.72772
_cell_length_c                    15.93729
_cell_angle_alpha                 94.237964
_cell_angle_beta                  75.450245
_cell_angle_gamma                 102.556903
_cell_volume                      973.078878883

loop_
_atom_site_label
_atom_site_type_symbol
_atom_type_description
_atom_site_fract_x
_atom_site_fract_y
_atom_site_fract_z
_atom_type_partial_charge
C1    C     C_R   0.542495 0.799501 0.503869 0.865670
C2    C     C_R   0.457503 0.200499 0.496133 0.865656
C3    C     C_R   0.295933 0.364075 0.068166 -0.157363
C4    C     C_R   0.704150 0.635951 0.931826 -0.157382
C5    C     C_R   0.160989 0.341805 0.019409 0.578995
C6    C     C_R   0.839097 0.658187 0.980581 0.578975
C7    C     C_2   0.551410 0.963675 0.518333 0.011346
C8    C     C_2   0.448582 0.036324 0.481674 0.011341
C9    C     C_R   0.385101 0.490575 0.666195 0.845117
C10   C     C_R   0.614900 0.509437 0.333805 0.845096
C11   C     C_R   0.318040 0.478725 0.761144 -0.142129
C12   C     C_R   0.681966 0.521302 0.238856 -0.142197
C13   C     C_R   0.073403 0.375760 0.886555 -0.088816
C14   C     C_R   0.926654 0.624201 0.113442 -0.088789
C15   C     C_R   0.127188 0.415484 0.799566 -0.227558
C16   C     C_R   0.872842 0.584477 0.200433 -0.227489
C17   C     C_R   0.451419 0.517254 0.812830 0.594843
C18   C     C_R   0.548583 0.482847 0.187169 0.594761
C19   C     C_R   0.396166 0.489835 0.902710 -0.042349
C20   C     C_R   0.603879 0.510216 0.097285 -0.042368
C21   C     C_R   0.208042 0.405536 0.937193 -0.043306
C22   C     C_R   0.792022 0.594463 0.062801 -0.043291
C23   C     C_R   0.525939 0.531479 0.957720 -0.030921
C24   C     C_R   0.474120 0.468570 0.042272 -0.030935
Cu1   Cu    Cu3+1 0.322120 0.483240 0.490330 1.072102
Cu2   Cu    Cu3+1 0.677880 0.516760 0.509670 1.072106
H1    H     H_    0.977606 0.613869 0.238923 0.216066
H2    H     H_    0.022428 0.386044 0.761076 0.216011
H3    H     H_    0.927580 0.316420 0.913291 0.204992
H4    H     H_    0.072495 0.683500 0.086706 0.204987
H5    H     H_    0.257869 0.293182 0.124875 0.245230
H6    H     H_    0.742245 0.706854 0.875122 0.245299
H7    H     H_    0.004769 0.614870 0.568278 0.253931
H8    H     H_    0.995231 0.385130 0.431722 0.253922
N1    N     N_2   0.945180 0.542040 0.524240 -0.180069
N2    N     N_2   0.054820 0.457960 0.475760 -0.180069
O1    O     O_R   0.384450 0.714270 0.493720 -0.577957
O2    O     O_R   0.615550 0.285730 0.506280 -0.577969
O3    O     O_R   0.684880 0.742590 0.510050 -0.544544
O4    O     O_R   0.315120 0.257410 0.489950 -0.544560
O5    O     O_R   0.265540 0.477900 0.617090 -0.606430
O6    O     O_R   0.734460 0.522100 0.382910 -0.606422
O7    O     O_R   0.565970 0.506210 0.633420 -0.498673
O8    O     O_R   0.434030 0.493790 0.366580 -0.498661
F1    F     F_    0.987591 0.248201 0.050645 -0.647729
F2    F     F_    0.012519 0.751756 0.949344 -0.647731
F3    F     F_    0.361350 0.437610 0.227071 -0.673053
F4    F     F_    0.638614 0.562644 0.772923 -0.673079
Br1   Br    Br    0.688618 0.058178 0.604479 -0.427302
Br2   Br    Br    0.311356 0.941820 0.395540 -0.427303

loop_
_geom_bond_atom_site_label_1
_geom_bond_atom_site_label_2
_ccdc_geom_bond_type
C19   C23   A    
C23   C24   A    
C2    O4    A    
C10   O6    A    
C2    O2    A    
C9    O5    A    
N1    N2    D    
C17   F4    S    
C1    O1    A    
Cu1   O1    S    
C18   F3    S    
C14   C22   A    
C16   H1    S    
C3    C24   A    
C13   C21   A    
C7    C8    D    
Cu1   O5    S    
C3    H5    S    
C9    C11   S    
C7    Br1   S    
C15   H2    S    
C4    H6    S    
C11   C15   A    
C14   H4    S    
C10   O8    A    
C10   C12   S    
Cu1   O8    S    
C13   H3    S    
C19   C21   A    
C20   C22   A    
Cu2   O7    S    
H8    N2    S    
C13   C15   A    
Cu1   O4    S    
C14   C16   A    
Cu2   O3    S    
C9    O7    A    
C1    O3    A    
Cu1   N2    S    
C17   C19   A    
C6    C22   A    
C8    Br2   S    
Cu2   N1    S    
C5    C21   A    
Cu2   O6    S    
C18   C20   A    
C4    C6    A    
C12   C18   A    
C4    C23   A    
C20   C24   A    
Cu2   O2    S    
C2    C8    S    
C6    F2    S    
H7    N1    S    
Cu1   Cu2   S    
C1    C7    S    
C5    F1    S    
C11   C17   A    
C12   C16   A    
C3    C5    A    
