data_mof_unit_6979.cif
_audit_creation_date              2012-12-10T18:53:47-0500
_audit_creation_method            fapswitch 2.2
_symmetry_space_group_name_H-M    P1
_symmetry_Int_Tables_number       1
_space_group_crystal_system       triclinic
_cell_length_a                    10.792483
_cell_length_b                    9.818705
_cell_length_c                    19.351034
_cell_angle_alpha                 88.453937
_cell_angle_beta                  90.051708
_cell_angle_gamma                 90.980671
_cell_volume                      2049.54741911

loop_
_atom_site_label
_atom_site_type_symbol
_atom_type_description
_atom_site_fract_x
_atom_site_fract_y
_atom_site_fract_z
_atom_type_partial_charge
C1    C     C_R   0.259265 0.498635 0.501895 0.873009
C2    C     C_R   0.739978 0.501525 0.502874 0.857016
C3    C     C_R   0.508638 0.474713 0.932632 0.267395
C4    C     C_R   0.506441 0.471326 0.070864 0.271261
C5    C     C_R   0.501929 0.501304 0.365026 0.864862
C6    C     C_R   0.502550 0.497806 0.635424 0.861224
C7    C     C_R   0.055125 0.374792 0.515970 0.048416
C8    C     C_R   0.942664 0.624290 0.493777 0.042896
C9    C     C_R   0.932054 0.388090 0.536017 0.059395
C10   C     C_R   0.065643 0.623045 0.513810 0.055159
C11   C     C_R   0.871944 0.505395 0.510791 -0.153408
C12   C     C_R   0.126052 0.497316 0.508905 -0.160582
C13   C     C_R   0.579032 0.071123 0.541762 -0.105081
C14   C     C_R   0.422028 0.928721 0.457691 -0.105532
C15   C     C_R   0.423697 0.072750 0.456827 -0.114935
C16   C     C_R   0.580109 0.927293 0.540930 -0.103295
C17   C     C_R   0.483858 0.618177 0.246429 0.054442
C18   C     C_R   0.490822 0.362354 0.749983 0.042534
C19   C     C_R   0.533709 0.612145 0.750954 0.057770
C20   C     C_R   0.547462 0.377920 0.255933 0.049565
C21   C     C_R   0.503483 0.612626 0.174245 0.071072
C22   C     C_R   0.506379 0.357070 0.822619 0.066084
C23   C     C_R   0.518459 0.607956 0.823617 0.073204
C24   C     C_R   0.516739 0.364133 0.186104 0.057229
C25   C     C_R   0.508248 0.483067 0.144964 -0.013980
C26   C     C_R   0.510475 0.480056 0.858061 -0.015949
C27   C     C_R   0.512515 0.500786 0.288574 -0.170903
C28   C     C_R   0.508145 0.490990 0.712917 -0.178332
H1    H     H_    0.642138 0.124812 0.575190 0.115113
H2    H     H_    0.359437 0.874429 0.424256 0.140485
H3    H     H_    0.365371 0.128222 0.421238 0.143980
H4    H     H_    0.645302 0.871809 0.572326 0.142649
N1    N     N_R   0.500000 0.857200 0.500000 -0.074738
N2    N     N_R   0.500000 0.142800 0.500000 -0.079509
N3    N     N_R   0.613477 0.450358 0.036744 -0.179663
N4    N     N_R   0.401464 0.495139 0.966725 -0.175474
N5    N     N_R   0.614641 0.452246 0.968240 -0.175378
N6    N     N_R   0.400661 0.494763 0.035206 -0.194799
O1    O     O_R   0.316770 0.614620 0.500000 -0.622296
O2    O     O_R   0.683230 0.385380 0.500000 -0.619992
O3    O     O_R   0.683230 0.614620 0.500000 -0.625007
O4    O     O_R   0.316770 0.385380 0.500000 -0.626282
O5    O     O_R   0.499990 0.614700 0.398140 -0.619907
O6    O     O_R   0.500010 0.385300 0.601860 -0.620761
O7    O     O_R   0.500010 0.614700 0.601860 -0.619755
O8    O     O_R   0.499990 0.385300 0.398140 -0.610917
Zn1   Zn    Zn3+2 0.500000 0.653120 0.500000 0.922195
Zn2   Zn    Zn3+2 0.500000 0.346880 0.500000 0.915823
C29   C     C_3   0.097879 0.236355 0.493376 -0.379451
C30   C     C_3   0.116886 0.238075 0.414482 -0.329367
C31   C     C_3   0.103014 0.095667 0.386004 -0.971370
H5    H     H_    0.169079 0.025591 0.411697 0.262133
H6    H     H_    0.008393 0.054549 0.395757 0.270373
H7    H     H_    0.119426 0.100389 0.329384 0.265770
H8    H     H_    0.048228 0.304615 0.388093 0.218086
H9    H     H_    0.209509 0.280722 0.400549 0.228620
H10   H     H_    0.181786 0.202607 0.521365 0.222253
H11   H     H_    0.027204 0.156787 0.506462 0.195011
C32   C     C_3   0.897117 0.746197 0.451291 -0.395529
C33   C     C_3   0.857928 0.703153 0.378412 -0.309725
C34   C     C_3   0.814987 0.823711 0.334020 -0.913642
H12   H     H_    0.893303 0.896209 0.324243 0.258498
H13   H     H_    0.781317 0.786849 0.283542 0.246160
H14   H     H_    0.737784 0.875827 0.359824 0.269935
H15   H     H_    0.937126 0.654795 0.352449 0.206034
H16   H     H_    0.780758 0.627634 0.381072 0.220932
H17   H     H_    0.821579 0.798601 0.478173 0.223041
H18   H     H_    0.973292 0.823250 0.445065 0.188249
C35   C     C_3   0.875480 0.292203 0.591218 -0.404615
C36   C     C_3   0.948498 0.302051 0.659171 -0.365418
C37   C     C_3   0.910710 0.188644 0.710557 -0.919282
H19   H     H_    0.808554 0.185392 0.717445 0.257747
H20   H     H_    0.942155 0.089395 0.691596 0.269914
H21   H     H_    0.955241 0.206580 0.761327 0.258925
H22   H     H_    0.049582 0.295892 0.649807 0.229972
H23   H     H_    0.930630 0.402108 0.682476 0.212158
H24   H     H_    0.779378 0.320112 0.604157 0.210181
H25   H     H_    0.871223 0.185883 0.573387 0.192346
C38   C     C_3   0.110234 0.731892 0.563053 -0.386520
C39   C     C_3   0.123994 0.667550 0.636121 -0.317960
C40   C     C_3   0.175436 0.767940 0.687494 -0.919331
H26   H     H_    0.120103 0.862204 0.686697 0.267742
H27   H     H_    0.170841 0.721023 0.740229 0.248364
H28   H     H_    0.273895 0.791648 0.674868 0.267521
H29   H     H_    0.031879 0.629437 0.654502 0.213887
H30   H     H_    0.187384 0.579564 0.635589 0.210480
H31   H     H_    0.197167 0.783254 0.545458 0.234301
H32   H     H_    0.041249 0.814457 0.565766 0.176527
C41   C     C_3   0.419600 0.741504 0.275293 -0.393016
C42   C     C_3   0.286378 0.703970 0.298262 -0.335689
C43   C     C_3   0.203512 0.828002 0.295003 -0.944075
H33   H     H_    0.253385 0.916721 0.316598 0.263541
H34   H     H_    0.178328 0.853060 0.240527 0.270042
H35   H     H_    0.117527 0.806961 0.325051 0.268728
H36   H     H_    0.245359 0.625405 0.264305 0.219994
H37   H     H_    0.286281 0.661455 0.351952 0.231561
H38   H     H_    0.474151 0.788415 0.317153 0.209397
H39   H     H_    0.413486 0.825610 0.236689 0.200354
C44   C     C_3   0.451216 0.231062 0.714194 -0.359803
C45   C     C_3   0.315271 0.236277 0.690624 -0.307414
C46   C     C_3   0.278386 0.105490 0.654903 -0.918301
H40   H     H_    0.331960 0.095364 0.606523 0.281699
H41   H     H_    0.297613 0.017725 0.690065 0.258721
H42   H     H_    0.178155 0.104962 0.642329 0.247053
H43   H     H_    0.298042 0.324334 0.655023 0.223984
H44   H     H_    0.255029 0.247216 0.736669 0.211602
H45   H     H_    0.516421 0.204657 0.672879 0.212219
H46   H     H_    0.458254 0.138768 0.747132 0.174390
C47   C     C_3   0.591335 0.741015 0.716812 -0.384370
C48   C     C_3   0.724119 0.714401 0.691682 -0.323667
C49   C     C_3   0.805139 0.843488 0.692227 -0.962787
H47   H     H_    0.757861 0.930487 0.666476 0.254351
H48   H     H_    0.826596 0.870726 0.746345 0.275237
H49   H     H_    0.893175 0.825991 0.664761 0.263182
H50   H     H_    0.768934 0.636486 0.725725 0.220096
H51   H     H_    0.721989 0.674447 0.638629 0.229824
H52   H     H_    0.531936 0.784964 0.675735 0.205924
H53   H     H_    0.596841 0.827248 0.751754 0.197439
C50   C     C_3   0.616301 0.261958 0.292797 -0.376731
C51   C     C_3   0.734271 0.309484 0.330450 -0.307050
C52   C     C_3   0.779032 0.197283 0.379754 -0.854715
H54   H     H_    0.702406 0.156847 0.412895 0.281496
H55   H     H_    0.816691 0.113518 0.349501 0.248380
H56   H     H_    0.851523 0.238088 0.414229 0.260812
H57   H     H_    0.719856 0.401798 0.360404 0.216574
H58   H     H_    0.808188 0.335310 0.292054 0.198139
H59   H     H_    0.551557 0.203433 0.327356 0.218307
H60   H     H_    0.651024 0.187777 0.255579 0.178829
C53   C     C_3   0.516724 0.741649 0.128151 -0.410187
C54   C     C_3   0.629114 0.829450 0.149263 -0.346459
C55   C     C_3   0.662588 0.935511 0.092882 -0.907130
H61   H     H_    0.701622 0.884761 0.047339 0.268428
H62   H     H_    0.579262 0.992233 0.076256 0.265276
H63   H     H_    0.732936 0.008531 0.112686 0.254869
H64   H     H_    0.609458 0.882696 0.197815 0.209761
H65   H     H_    0.710653 0.763580 0.158324 0.231213
H66   H     H_    0.530168 0.717792 0.073087 0.221650
H67   H     H_    0.430351 0.800832 0.128058 0.190466
C56   C     C_3   0.521071 0.221221 0.863235 -0.409813
C57   C     C_3   0.647491 0.157477 0.847908 -0.332039
C58   C     C_3   0.697151 0.075128 0.909729 -0.895431
H68   H     H_    0.717766 0.143412 0.953283 0.277128
H69   H     H_    0.628745 0.996288 0.927234 0.259965
H70   H     H_    0.783936 0.024276 0.894907 0.250827
H71   H     H_    0.639400 0.089767 0.803035 0.201916
H72   H     H_    0.717268 0.238760 0.834793 0.236316
H73   H     H_    0.512943 0.232055 0.919784 0.220937
H74   H     H_    0.443005 0.149973 0.853292 0.186574
C59   C     C_3   0.510119 0.738968 0.865267 -0.411085
C60   C     C_3   0.391000 0.816766 0.847376 -0.328238
C61   C     C_3   0.341290 0.892864 0.909143 -0.896724
H75   H     H_    0.309266 0.819049 0.950124 0.273311
H76   H     H_    0.413837 0.960173 0.931111 0.257516
H77   H     H_    0.261636 0.955933 0.892515 0.251516
H78   H     H_    0.408980 0.890525 0.803870 0.203100
H79   H     H_    0.317153 0.744323 0.831017 0.232730
H80   H     H_    0.511697 0.719148 0.921785 0.219157
H81   H     H_    0.593852 0.804419 0.858272 0.184352
C62   C     C_3   0.479472 0.226290 0.156696 -0.435535
C63   C     C_3   0.338255 0.216804 0.146981 -0.328202
C64   C     C_3   0.298121 0.079443 0.118704 -0.898986
H82   H     H_    0.345494 0.061256 0.068926 0.265667
H83   H     H_    0.320275 0.996773 0.156617 0.255397
H84   H     H_    0.196461 0.078052 0.109827 0.254962
H85   H     H_    0.291858 0.230199 0.197598 0.217305
H86   H     H_    0.306004 0.298156 0.110837 0.241764
H87   H     H_    0.527437 0.212228 0.106772 0.211832
H88   H     H_    0.504123 0.138704 0.190748 0.202382

loop_
_geom_bond_atom_site_label_1
_geom_bond_atom_site_label_2
_ccdc_geom_bond_type
C46   H40   S    
C6    O7    A    
C35   H24   S    
C49   H47   S    
C55   H63   S    
C64   H84   S    
C14   N1    A    
C38   H31   S    
C4    C25   S    
C24   C62   S    
C47   H52   S    
C42   H36   S    
C10   C38   S    
C44   H46   S    
C56   H73   S    
C45   H43   S    
C64   H83   S    
C13   H1    S    
N3    N5    A    
C9    C35   S    
C58   H69   S    
C8    C32   S    
C32   H18   S    
C51   H58   S    
C23   C26   A    
C2    O3    A    
C29   H10   S    
C62   H88   S    
C7    C9    A    
C61   H77   S    
C34   H13   S    
C48   C49   S    
C52   H56   S    
C39   H30   S    
C32   H17   S    
C5    C27   S    
C6    C28   S    
C53   H67   S    
C20   C24   A    
C61   H75   S    
C36   C37   S    
C63   H86   S    
C59   H81   S    
C15   N2    A    
C50   H60   S    
C19   C47   S    
C5    O5    A    
C4    N3    A    
C33   H16   S    
C32   C33   S    
C46   H41   S    
C60   H79   S    
C35   H25   S    
C35   C36   S    
C1    C12   S    
C14   H2    S    
C2    C11   S    
C38   H32   S    
C40   H27   S    
C47   H53   S    
C40   H26   S    
O7    Zn1   S    
C7    C12   A    
O8    Zn2   S    
C56   H74   S    
C31   H5    S    
C17   C27   A    
C17   C41   S    
C57   C58   S    
C7    C29   S    
C58   H70   S    
C57   H72   S    
C43   H33   S    
C37   H20   S    
C51   H57   S    
C22   C56   S    
C30   H9    S    
C29   H11   S    
C41   H38   S    
C33   C34   S    
C31   H6    S    
C34   H14   S    
C19   C23   A    
C39   H29   S    
C16   N1    A    
C43   H34   S    
C62   C63   S    
C14   C15   A    
C50   C51   S    
C30   C31   S    
O3    Zn1   S    
C18   C28   A    
C49   H48   S    
O4    Zn2   S    
C63   H85   S    
C24   C25   A    
C42   H37   S    
C19   C28   A    
C9    C11   A    
C21   C53   S    
C52   H54   S    
C10   C12   A    
C54   H64   S    
C4    N6    A    
C33   H15   S    
C46   H42   S    
C60   H78   S    
C36   H23   S    
N1    Zn1   S    
N2    Zn2   S    
C18   C44   S    
C55   H61   S    
C48   H51   S    
C40   H28   S    
C51   C52   S    
O1    Zn1   S    
C53   C54   S    
O2    Zn2   S    
C21   C25   A    
C18   C22   A    
C3    C26   S    
C54   H65   S    
C39   C40   S    
C55   H62   S    
C57   H71   S    
C37   H21   S    
C56   C57   S    
C15   H3    S    
C20   C27   A    
C16   H4    S    
C44   H45   S    
C5    O8    A    
C45   H44   S    
C30   H8    S    
C44   C45   S    
C41   H39   S    
C31   H7    S    
C63   C64   S    
N4    N6    A    
C54   C55   S    
C13   N2    A    
C64   H82   S    
C58   H68   S    
C43   H35   S    
C42   C43   S    
C59   H80   S    
C3    N4    A    
C8    C11   A    
C45   C46   S    
C62   H87   S    
C49   H49   S    
C61   H76   S    
C23   C59   S    
C34   H12   S    
C17   C21   A    
C52   H55   S    
C1    O1    A    
C38   C39   S    
C2    O2    A    
C1    O4    A    
C37   H19   S    
C53   H66   S    
C3    N5    A    
C8    C10   A    
C29   C30   S    
C22   C26   A    
C13   C16   A    
C47   C48   S    
C36   H22   S    
C60   C61   S    
C6    O6    A    
C41   C42   S    
C59   C60   S    
O5    Zn1   S    
C48   H50   S    
C20   C50   S    
O6    Zn2   S    
C50   H59   S    
