data_mof_unit_19575.cif
_audit_creation_date              2012-12-11T16:57:15-0500
_audit_creation_method            fapswitch 2.2
_symmetry_space_group_name_H-M    P1
_symmetry_Int_Tables_number       1
_space_group_crystal_system       triclinic
_cell_length_a                    14.422786
_cell_length_b                    16.318128
_cell_length_c                    6.9418
_cell_angle_alpha                 90.010197
_cell_angle_beta                  98.61895
_cell_angle_gamma                 90.011183
_cell_volume                      1615.32206706

loop_
_atom_site_label
_atom_site_type_symbol
_atom_type_description
_atom_site_fract_x
_atom_site_fract_y
_atom_site_fract_z
_atom_type_partial_charge
O1    O     O_R   0.584990 0.413650 0.534420 -0.545693
O2    O     O_R   0.584990 0.586350 0.534420 -0.556535
O3    O     O_R   0.596190 0.585230 0.208380 -0.523976
O4    O     O_R   0.596190 0.414770 0.208380 -0.538037
O5    O     O_R   0.415010 0.586420 0.976930 -0.534102
O6    O     O_R   0.415010 0.413580 0.976930 -0.532139
C1    C     C_R   0.619960 0.613105 0.384173 0.779691
C2    C     C_R   0.620798 0.387608 0.384585 0.732752
O7    O     O_3   0.440560 0.500000 0.319140 -0.362238
V1    V     V_3+5 0.511030 0.500000 0.068070 1.526626
O8    O     O_R   0.403810 0.414840 0.643540 -0.538228
O9    O     O_R   0.403810 0.585160 0.643540 -0.538972
C3    C     C_R   0.380576 0.387525 0.805832 0.617335
C4    C     C_R   0.380578 0.612468 0.805855 0.616019
V2    V     V_3+5 0.488970 0.500000 0.560620 1.488154
O10   O     O_3   0.559440 0.500000 0.859420 -0.369830
C5    C     C_2   0.299755 0.668942 0.797482 0.135774
C6    C     C_2   0.299731 0.331055 0.797426 0.136491
C7    C     C_2   0.302472 0.734911 0.920272 0.324010
C8    C     C_2   0.302459 0.265075 0.920112 0.322576
C9    C     C_2   0.201034 0.822946 0.103437 0.080896
C10   C     C_2   0.201023 0.177097 0.103411 0.083181
C11   C     C_2   0.215223 0.783460 0.935886 0.348191
C12   C     C_2   0.215196 0.216543 0.935820 0.351172
C13   C     C_R   0.669515 0.753384 0.502454 -0.051584
C14   C     C_R   0.669950 0.247450 0.498660 -0.008583
C15   C     C_R   0.689896 0.680826 0.412458 -0.214967
C16   C     C_R   0.692000 0.320831 0.413807 -0.307176
C17   C     C_R   0.776622 0.676861 0.340052 0.363335
C18   C     C_R   0.781388 0.325035 0.348566 0.393341
C19   C     C_R   0.844888 0.741456 0.381920 0.332078
C20   C     C_R   0.846890 0.259225 0.386069 0.431330
C21   C     C_R   0.823333 0.813359 0.485761 -0.226599
C22   C     C_R   0.823882 0.186832 0.485825 -0.276705
C23   C     C_R   0.732836 0.817575 0.536471 0.061781
C24   C     C_R   0.732870 0.182935 0.533731 0.059588
C25   C     C_3   0.694771 0.840729 0.718684 0.516378
C26   C     C_3   0.693569 0.159368 0.714158 0.513470
C27   C     C_3   0.625279 0.769517 0.678897 0.136850
C28   C     C_3   0.624374 0.230659 0.673219 0.138431
H1    H     H_    0.635012 0.719404 0.789072 0.091393
H2    H     H_    0.633340 0.280428 0.784371 0.091698
O11   O     O_R   0.921430 0.915960 0.371040 -0.527785
O12   O     O_R   0.921430 0.084040 0.371040 -0.530532
O13   O     O_R   0.910450 0.087500 0.697310 -0.516363
O14   O     O_R   0.910450 0.912500 0.697310 -0.518218
O15   O     O_R   0.091710 0.087460 0.928430 -0.528109
O16   O     O_R   0.091710 0.912540 0.928430 -0.527982
C29   C     C_R   0.889012 0.115124 0.520516 0.772448
C30   C     C_R   0.889027 0.884805 0.520537 0.770366
O17   O     O_3   0.065970 0.000000 0.586140 -0.376282
V3    V     V_3+5 0.995640 0.000000 0.837400 1.667864
O18   O     O_R   0.103020 0.915700 0.261710 -0.535688
O19   O     O_R   0.103020 0.084300 0.261710 -0.536344
C31   C     C_R   0.125448 0.885789 0.099245 0.737536
C32   C     C_R   0.125444 0.114224 0.099256 0.736868
V4    V     V_3+5 0.017940 1.000000 0.344880 1.608399
O20   O     O_3   0.947330 0.000000 0.046180 -0.341826
O21   O     O_3   0.147216 0.790639 0.773439 -0.625470
H3    H     H_    0.178529 0.789233 0.656317 0.345587
O22   O     O_3   0.147163 0.209334 0.773404 -0.623708
H4    H     H_    0.178445 0.210769 0.656238 0.345591
O23   O     O_3   0.385655 0.762217 0.027708 -0.604199
H5    H     H_    0.439986 0.741677 0.970089 0.292998
O24   O     O_3   0.385667 0.237739 0.027307 -0.603756
H6    H     H_    0.439953 0.258173 0.969340 0.293482
Br1   Br    Br    0.282831 0.807419 0.346493 -0.472355
Br2   Br    Br    0.282835 0.192722 0.346415 -0.470677
O25   O     O_3   0.216080 0.647173 0.684083 -0.617927
H7    H     H_    0.225443 0.595594 0.613916 0.309986
O26   O     O_3   0.216030 0.352857 0.684221 -0.615142
H8    H     H_    0.225404 0.404442 0.614119 0.311041
O27   O     O_3   0.794929 0.607217 0.238750 -0.636321
H9    H     H_    0.855407 0.613244 0.189220 0.358645
O28   O     O_3   0.810827 0.393674 0.257897 -0.584732
H10   H     H_    0.767238 0.439637 0.267846 0.310171
O29   O     O_3   0.931800 0.730602 0.324113 -0.620995
H11   H     H_    0.977509 0.769566 0.393895 0.306440
O30   O     O_3   0.933821 0.270488 0.328814 -0.579231
H12   H     H_    0.978663 0.229445 0.392580 0.297756
O31   O     O_3   0.651765 0.917629 0.701180 -0.557302
H13   H     H_    0.620857 0.924049 0.818735 0.349977
O32   O     O_3   0.650463 0.082526 0.694424 -0.557141
H14   H     H_    0.618255 0.076093 0.810164 0.350691
Br3   Br    Br    0.783062 0.828379 0.956350 -0.548331
Br4   Br    Br    0.780283 0.171442 0.954624 -0.534832
O33   O     O_3   0.532110 0.795547 0.629216 -0.575994
H15   H     H_    0.494243 0.744974 0.601814 0.314153
O34   O     O_3   0.531324 0.204765 0.620332 -0.576646
H16   H     H_    0.493560 0.255426 0.593855 0.316711

loop_
_geom_bond_atom_site_label_1
_geom_bond_atom_site_label_2
_ccdc_geom_bond_type
O12   C29   A    
O16   C31   A    
C26   C28   S    
O33   H15   S    
C5    O25   S    
C12   O22   S    
C26   O32   S    
C15   C17   A    
O1    C2    A    
O27   H9    S    
O2    C1    A    
C27   O33   S    
O4    C2    A    
O31   H13   S    
C27   H1    S    
O29   H11   S    
C11   O21   S    
C3    C6    S    
C26   Br4   S    
C25   Br3   S    
C23   C25   S    
O3    C1    A    
C17   O27   S    
V2    O10   S    
O14   V3    S    
C1    C15   S    
C21   C23   A    
O8    V2    S    
C8    C12   S    
C7    O23   S    
C19   C21   A    
O17   V4    S    
C28   O34   S    
O7    V1    S    
C22   C24   A    
C28   H2    S    
O21   H3    S    
C9    Br1   S    
C4    C5    S    
C25   O31   S    
O25   H7    S    
O5    V1    S    
C19   O29   S    
O18   C31   A    
O19   C32   A    
O17   V3    S    
C8    O24   S    
C9    C31   S    
O18   V4    S    
C10   C32   S    
O13   V3    S    
C21   C30   S    
O23   H5    S    
C20   C22   A    
C7    C11   S    
O28   H10   S    
O32   H14   S    
O9    V2    S    
O13   C29   A    
O12   V4    S    
O2    V2    S    
C10   Br2   S    
O5    C4    A    
V3    O20   S    
C13   C23   A    
O1    V2    S    
C14   C24   A    
O9    C4    A    
C9    C11   D    
C2    C16   S    
C10   C12   D    
O4    V1    S    
C6    O26   S    
C22   C29   S    
O6    V1    S    
O11   C30   A    
O15   V3    S    
C13   C15   A    
O14   C30   A    
C14   C16   A    
C24   C26   S    
O7    V2    S    
O26   H8    S    
C25   C27   S    
O3    V1    S    
V1    O10   S    
C13   C27   S    
C20   O30   S    
C18   C20   A    
C18   O28   S    
O8    C3    A    
C14   C28   S    
V4    O20   S    
C16   C18   A    
C5    C7    D    
C6    C8    D    
O22   H4    S    
O11   V4    S    
O30   H12   S    
O16   V3    S    
C17   C19   A    
O24   H6    S    
O34   H16   S    
O15   C32   A    
O6    C3    A    
O19   V4    S    
