data_mof_unit_40931.cif
_audit_creation_date              2012-10-26T18:51:35-0400
_audit_creation_method            fapswitch 2.2
_symmetry_space_group_name_H-M    P1
_symmetry_Int_Tables_number       1
_space_group_crystal_system       triclinic
_cell_length_a                    11.69637
_cell_length_b                    14.689025
_cell_length_c                    14.679075
_cell_angle_alpha                 64.619634
_cell_angle_beta                  103.332031
_cell_angle_gamma                 102.834873
_cell_volume                      2195.24677585

loop_
_atom_site_label
_atom_site_type_symbol
_atom_type_description
_atom_site_fract_x
_atom_site_fract_y
_atom_site_fract_z
_atom_type_partial_charge
C1    C     C_R   0.479424 0.120106 0.311805 0.578672
C2    C     C_R   0.527603 0.609851 0.108100 0.282985
C3    C     C_R   0.715204 0.294071 0.653176 0.251965
C4    C     C_R   0.288577 0.710870 0.339891 0.259121
C5    C     C_R   0.668464 0.203642 0.636911 0.387816
C6    C     C_R   0.328214 0.796110 0.366105 0.395519
C7    C     C_R   0.515545 0.285644 0.510401 0.092279
C8    C     C_R   0.484230 0.714332 0.488217 0.097513
C9    C     C_R   0.548745 0.373701 0.532920 -0.043098
C10   C     C_R   0.455378 0.629361 0.460700 -0.029757
C11   C     C_R   0.660484 0.382695 0.593131 0.004707
C12   C     C_R   0.520511 0.879742 0.688318 0.572464
C13   C     C_R   0.349641 0.624353 0.390423 0.019546
C14   C     C_R   0.479345 0.455339 0.491180 0.002599
C15   C     C_R   0.528294 0.549496 0.500538 0.020590
C16   C     C_R   0.284126 0.000222 0.499949 0.543465
C17   C     C_R   0.715873 0.999786 0.500027 0.554417
C18   C     C_R   0.649778 0.562723 0.543904 0.209169
C19   C     C_R   0.360803 0.444619 0.443036 0.208925
C20   C     C_R   0.717110 0.480895 0.586197 0.231811
C21   C     C_R   0.308134 0.531770 0.376153 0.265716
C22   C     C_1   0.162521 0.000468 0.499991 0.034346
C23   C     C_R   0.380319 0.324149 0.001804 -0.014947
C24   C     C_1   0.837468 0.999533 0.499931 0.038636
C25   C     C_1   0.059952 0.000226 0.499963 0.016017
C26   C     C_1   0.940024 0.999754 0.499926 0.017239
C27   C     C_R   0.453396 0.187974 0.203472 0.012028
C28   C     C_R   0.525922 0.811612 0.797417 0.009525
C29   C     C_R   0.337240 0.218162 0.034801 0.261791
C30   C     C_R   0.530501 0.786538 0.973622 0.278362
C31   C     C_R   0.372133 0.152264 0.136095 -0.171755
C32   C     C_R   0.530340 0.850870 0.869901 -0.168711
C33   C     C_R   0.500758 0.290786 0.169960 0.286444
C34   C     C_R   0.518776 0.679444 0.004367 0.025995
C35   C     C_R   0.519013 0.706379 0.828557 0.235567
C36   C     C_R   0.448701 0.361139 0.075958 -0.045490
C37   C     C_R   0.493513 0.640305 0.927600 -0.082945
C38   C     C_R   0.465828 0.466917 0.054003 -0.028658
C39   C     C_R   0.447723 0.536062 0.951909 -0.099040
C40   C     C_R   0.378584 0.499962 0.877466 0.250228
C41   C     C_R   0.491093 0.504795 0.131754 0.268703
C42   C     C_R   0.353729 0.395276 0.899450 0.322015
Cu1   Cu    Cu3+1 0.469550 0.918260 0.475690 1.089454
Cu2   Cu    Cu3+1 0.530450 0.081740 0.524310 1.092912
H1    H     H_    0.533504 0.932063 0.845845 0.143882
H2    H     H_    0.646742 0.381541 0.181928 0.350074
H3    H     H_    0.231759 0.106477 0.007057 0.335176
H4    H     H_    0.537535 0.901968 0.008748 0.333173
H5    H     H_    0.304862 0.621959 0.795492 0.342207
H6    H     H_    0.451460 0.477382 0.263572 0.376581
H7    H     H_    0.903381 0.629767 0.459547 0.366012
H8    H     H_    0.147881 0.414446 0.197924 0.377777
H9    H     H_    0.183221 0.857514 0.306170 0.327149
H10   H     H_    0.742647 0.109664 0.764946 0.315443
H11   H     H_    0.862069 0.248088 0.738506 0.363056
H12   H     H_    0.333798 0.072794 0.162904 0.164260
H13   H     H_    0.189898 0.779695 0.212854 0.343108
H14   H     H_    0.551470 0.715805 0.551667 0.216149
H15   H     H_    0.444852 0.281890 0.449751 0.228412
H16   H     H_    0.285869 0.433732 0.629425 0.367540
H17   H     H_    0.714954 0.575721 0.355028 0.368179
H18   H     H_    0.760054 0.651884 0.599110 0.373204
H19   H     H_    0.209948 0.355089 0.453043 0.382061
H20   H     H_    0.572450 0.604108 0.803444 0.344703
N1    N     N_R   0.576230 0.204580 0.560790 -0.240753
N2    N     N_R   0.423770 0.795420 0.439210 -0.235169
O1    O     O_R   0.459870 0.022090 0.338120 -0.472064
O2    O     O_2   0.168285 0.328543 0.786220 -0.163447
O3    O     O_3   0.331749 0.455801 0.683956 -0.465310
O4    O     O_2   0.711617 0.727908 0.170588 -0.211686
O5    O     O_2   0.529227 0.687673 0.244072 -0.246587
O6    O     O_3   0.664004 0.546929 0.307053 -0.511828
O7    O     O_3   0.705710 0.658626 0.534483 -0.679023
O8    O     O_3   0.295502 0.348825 0.466555 -0.675148
O9    O     O_3   0.542442 0.670298 0.762753 -0.645080
O10   O     O_3   0.602303 0.319023 0.227486 -0.608788
O11   O     O_3   0.251444 0.181335 0.972124 -0.589811
O12   O     O_R   0.540130 0.977910 0.661880 -0.474873
O13   O     O_3   0.529303 0.826674 0.042937 -0.585216
O14   O     O_3   0.324206 0.564905 0.785366 -0.563696
O15   O     O_3   0.469090 0.438558 0.228792 -0.602260
O16   O     O_2   0.918128 0.496080 0.715023 -0.170376
O17   O     O_2   0.931200 0.438075 0.584723 -0.215169
O18   O     O_3   0.923259 0.628636 0.529336 -0.467411
O19   O     O_2   0.079047 0.520874 0.288400 -0.193259
O20   O     O_2   0.229061 0.607128 0.173881 -0.224764
O21   O     O_3   0.203097 0.410963 0.261245 -0.506291
O22   O     O_3   0.268997 0.879818 0.322204 -0.668315
O23   O     O_R   0.511290 0.160150 0.379180 -0.448415
O24   O     O_3   0.716049 0.114447 0.694121 -0.650375
O25   O     O_3   0.808738 0.295974 0.729717 -0.612442
O26   O     O_3   0.188654 0.710891 0.268725 -0.600379
O27   O     O_R   0.488710 0.839850 0.620820 -0.452788
O28   O     O_R   0.311490 0.930960 0.479480 -0.450893
O29   O     O_R   0.688510 0.069040 0.520520 -0.442980
O30   O     O_R   0.362910 0.069020 0.520540 -0.504949
O31   O     O_R   0.637090 0.930980 0.479460 -0.497212
O32   O     O_2   0.358596 0.271092 0.808068 -0.241943
S1    S     S_3+6 0.300540 0.358897 0.793845 0.135939
S2    S     S_3+6 0.609320 0.646958 0.208357 0.068255
S3    S     S_3+6 0.875912 0.508679 0.606085 0.093336
S4    S     S_3+6 0.200939 0.520232 0.271800 0.068887

loop_
_geom_bond_atom_site_label_1
_geom_bond_atom_site_label_2
_ccdc_geom_bond_type
C15   C18   A    
C8    N2    A    
H13   O26   S    
C34   C37   A    
C32   H1    S    
Cu1   Cu2   S    
C33   C36   A    
H2    O10   S    
C27   C33   A    
C35   O9    S    
C23   C42   A    
C12   C28   S    
C23   C29   A    
H4    O13   S    
C35   C37   A    
C24   C26   T    
H10   O24   S    
C10   C15   A    
C38   C39   A    
C2    C41   A    
Cu1   O28   S    
C6    O22   S    
C3    O25   S    
C4    C13   A    
H11   O25   S    
C8    H14   S    
O16   S3    D    
C28   C35   A    
C22   C25   T    
C12   O12   A    
C1    O23   A    
C40   O14   S    
H18   O7    S    
C17   O29   A    
C31   H12   S    
C5    O24   S    
C2    C34   A    
C40   C42   A    
C2    S2    S    
O18   S3    S    
Cu2   N1    S    
C7    H15   S    
O4    S2    D    
C19   O8    S    
C11   C20   A    
C16   O30   A    
C17   C24   S    
C30   C34   A    
C27   C31   A    
C28   C32   A    
C38   C41   A    
C5    N1    A    
C39   C40   A    
C20   S3    S    
C25   C26   S    
C9    C14   A    
Cu1   O1    S    
Cu2   O30   S    
C7    N1    A    
O21   S4    S    
C33   O10   S    
C29   C31   A    
C41   O15   S    
C13   C21   A    
C9    C11   A    
C21   S4    S    
O3    S1    S    
H17   O6    S    
C4    C6    A    
C23   C36   A    
C18   O7    S    
C12   O27   A    
C30   O13   S    
O20   S4    D    
O6    S2    S    
C7    C9    A    
C16   C22   S    
O17   S3    D    
C19   C21   A    
C14   C19   A    
H8    O21   S    
Cu1   O31   S    
C3    C5    A    
C10   C13   A    
H19   O8    S    
O5    S2    D    
C16   O28   A    
H5    O14   S    
Cu1   O27   S    
Cu2   O12   S    
O2    S1    D    
C37   C39   A    
Cu2   O29   S    
C42   S1    S    
C30   C32   A    
H16   O3    S    
Cu1   N2    S    
C36   C38   A    
C1    O1    A    
H20   O9    S    
H9    O22   S    
C18   C20   A    
C3    C11   A    
Cu2   O23   S    
C6    N2    A    
C29   O11   S    
C8    C10   A    
O32   S1    D    
C1    C27   S    
H3    O11   S    
C14   C15   A    
C17   O31   A    
H7    O18   S    
O19   S4    D    
H6    O15   S    
C4    O26   S    
