data_mof_unit_13115.cif
_audit_creation_date              2012-10-26T20:03:43-0400
_audit_creation_method            fapswitch 2.2
_symmetry_space_group_name_H-M    P1
_symmetry_Int_Tables_number       1
_space_group_crystal_system       triclinic
_cell_length_a                    12.371885
_cell_length_b                    13.225459
_cell_length_c                    15.8373
_cell_angle_alpha                 76.751314
_cell_angle_beta                  101.474046
_cell_angle_gamma                 117.339023
_cell_volume                      2227.46319171

loop_
_atom_site_label
_atom_site_type_symbol
_atom_type_description
_atom_site_fract_x
_atom_site_fract_y
_atom_site_fract_z
_atom_type_partial_charge
C1    C     C_R   0.855042 0.286549 0.508329 0.542147
C2    C     C_R   0.229697 0.834192 0.465967 -0.060842
C3    C     C_R   0.812210 0.086228 0.576066 -0.137259
C4    C     C_R   0.000565 0.500587 0.659900 0.596710
C5    C     C_R   0.732128 0.970443 0.593725 -0.129516
C6    C     C_R   0.610942 0.931795 0.557076 -0.094845
C7    C     C_R   0.568184 0.008388 0.500577 0.047746
C8    C     C_R   0.654986 0.120734 0.471224 0.061262
C9    C     C_R   0.442874 0.974478 0.468509 -0.018307
C10   C     C_R   0.411279 0.041632 0.392738 0.051685
C11   C     C_R   0.501867 0.146526 0.357414 -0.102419
C12   C     C_3   0.000600 0.500927 0.917176 0.049697
C13   C     C_R   0.621290 0.186899 0.397259 -0.097855
C14   C     C_R   0.347976 0.877528 0.510546 -0.035399
C15   C     C_R   0.200309 0.897876 0.389256 -0.123635
C16   C     C_R   0.145522 0.713346 0.488330 0.551241
C17   C     C_R   0.774001 0.162799 0.516098 0.006437
C18   C     C_R   0.378184 0.393410 0.666806 -0.128202
C19   C     C_R   0.752205 0.631350 0.373713 0.053972
C20   C     C_R   0.653372 0.658113 0.343245 -0.154431
C21   C     C_R   0.554778 0.613425 0.392039 -0.127178
C22   C     C_R   0.554987 0.542920 0.473326 -0.012423
C23   C     C_3   0.111004 0.575154 0.031109 -0.096369
C24   C     C_R   0.658202 0.516937 0.502803 0.157454
C25   C     C_R   0.455595 0.495070 0.526146 -0.013229
C26   C     C_R   0.473828 0.446204 0.613866 0.011097
C27   C     C_R   0.583972 0.440564 0.646142 -0.161521
C28   C     C_R   0.000132 0.500427 0.339999 0.533659
C29   C     C_R   0.658746 0.449123 0.587288 0.083599
C30   C     C_R   0.338307 0.492000 0.496331 0.047183
C31   C     C_R   0.263924 0.388064 0.632585 0.063294
C32   C     C_3   0.974354 0.394289 0.044290 -0.098897
C33   C     C_3   0.889505 0.426552 0.968564 -0.099885
C34   C     C_3   0.999923 0.500781 0.082514 0.048352
C35   C     C_1   0.001020 0.500849 0.749774 0.022798
C36   C     C_1   0.999864 0.500592 0.250057 -0.036057
C37   C     C_3   0.085445 0.468666 0.991356 -0.094818
C38   C     C_2   0.361158 0.844694 0.607476 0.587918
C39   C     C_2   0.665420 0.338587 0.600756 0.626976
C40   C     C_3   0.250276 0.021388 0.205793 -0.139162
C41   C     C_3   0.026154 0.607416 0.955387 -0.097827
C42   C     C_3   0.915062 0.533039 0.008333 -0.105411
C43   C     C_1   0.000944 0.500933 0.825424 -0.037422
C44   C     C_1   0.999783 0.500694 0.174332 -0.062459
C45   C     C_R   0.289600 0.002606 0.353280 0.276266
Cu1   Cu    Cu3+1 0.098270 0.475420 0.519690 0.944754
Cu2   Cu    Cu3+1 0.901730 0.524580 0.480310 0.968973
H1    H     H_    0.798613 0.365595 0.941460 0.118468
H2    H     H_    0.827901 0.666788 0.334893 0.126545
H3    H     H_    0.953078 0.306810 0.082153 0.114413
H4    H     H_    0.481249 0.638140 0.366314 0.098066
H5    H     H_    0.653270 0.713886 0.281428 0.102391
H6    H     H_    0.845117 0.559444 0.016675 0.108707
H7    H     H_    0.047433 0.694890 0.917515 0.117478
H8    H     H_    0.201906 0.636151 0.058156 0.109279
H9    H     H_    0.155387 0.442256 0.983013 0.113673
H10   H     H_    0.108489 0.864781 0.355660 0.131391
H11   H     H_    0.480376 0.199176 0.299670 0.154752
H12   H     H_    0.903772 0.116107 0.610104 0.135217
H13   H     H_    0.372017 0.696088 0.607878 0.312162
H14   H     H_    0.728864 0.228562 0.677464 0.333022
H15   H     H_    0.338556 0.021020 0.200561 0.106594
H16   H     H_    0.230808 0.076871 0.146693 0.145731
H17   H     H_    0.174388 0.933056 0.206105 0.110155
H18   H     H_    0.553094 0.840864 0.570472 0.116585
H19   H     H_    0.763127 0.910940 0.637761 0.129733
H20   H     H_    0.687776 0.268532 0.367491 0.133236
H21   H     H_    0.190741 0.349225 0.674002 0.127232
H22   H     H_    0.593026 0.397506 0.712648 0.133025
H23   H     H_    0.390982 0.354326 0.733802 0.098167
H24   H     H_    0.319061 0.532930 0.431827 0.118009
N1    N     N_R   0.246280 0.438200 0.549540 -0.237634
N2    N     N_R   0.754330 0.561180 0.450980 -0.243020
O1    O     O_R   0.972510 0.318130 0.524770 -0.504081
O2    O     O_R   0.362892 0.739764 0.648604 -0.665489
O3    O     O_2   0.595001 0.266325 0.555179 -0.498778
O4    O     O_R   0.737419 0.309573 0.672916 -0.715504
O5    O     O_3   0.257397 0.067262 0.279890 -0.564282
O6    O     O_R   0.806530 0.359650 0.491510 -0.472199
O7    O     O_R   0.082970 0.479240 0.637550 -0.499380
O8    O     O_R   0.916990 0.520750 0.604290 -0.480942
O9    O     O_R   0.193470 0.640350 0.508490 -0.511753
O10   O     O_R   0.027490 0.681870 0.475230 -0.503890
O11   O     O_R   0.083010 0.479250 0.395710 -0.499139
O12   O     O_R   0.917030 0.520760 0.362450 -0.522158
O13   O     O_2   0.370786 0.912299 0.652745 -0.443636

loop_
_geom_bond_atom_site_label_1
_geom_bond_atom_site_label_2
_ccdc_geom_bond_type
C18   H23   S    
C8    C13   A    
C27   C29   A    
C41   C42   S    
C19   C20   A    
C18   C26   A    
Cu2   O6    S    
C30   H24   S    
C7    C8    A    
C26   C27   A    
C40   H16   S    
C38   O13   D    
C1    O1    A    
Cu2   O12   S    
C4    O7    A    
C12   C43   S    
C42   H6    S    
C5    C6    A    
C24   N2    A    
C21   H4    S    
C28   O11   A    
C40   H15   S    
C12   C37   S    
C24   C29   A    
Cu1   O9    S    
C37   H9    S    
C6    H18   S    
C4    O8    A    
H14   O4    S    
C22   C25   A    
C34   C42   S    
C45   O5    S    
Cu2   O10   S    
C11   H11   S    
C2    C16   S    
C9    C10   A    
Cu1   N1    S    
C27   H22   S    
C4    C35   S    
C21   C22   A    
C15   H10   S    
C38   O2    S    
C31   H21   S    
C32   C37   S    
C19   N2    A    
C34   C44   S    
Cu2   N2    S    
C25   C26   A    
C23   C37   S    
C16   O10   A    
C32   C34   S    
C9    C14   A    
C12   C41   S    
C14   C38   S    
C19   H2    S    
C23   C34   S    
C29   C39   S    
C10   C45   A    
C16   O9    A    
C39   O3    D    
C2    C15   A    
C32   H3    S    
Cu1   O11   S    
C31   N1    A    
C1    O6    A    
C22   C24   A    
C36   C44   T    
C33   C42   S    
C39   O4    S    
Cu1   O1    S    
C35   C43   T    
C13   H20   S    
C25   C30   A    
C7    C9    A    
Cu1   Cu2   S    
C5    H19   S    
C3    C5    A    
C40   H17   S    
C30   N1    A    
C23   H8    S    
C6    C7    A    
H13   O2    S    
C1    C17   S    
C8    C17   A    
C23   C41   S    
C32   C33   S    
C20   H5    S    
Cu1   O7    S    
C11   C13   A    
C3    C17   A    
C40   O5    S    
Cu2   O8    S    
C2    C14   A    
C41   H7    S    
C10   C11   A    
C20   C21   A    
C28   C36   S    
C28   O12   A    
C33   H1    S    
C15   C45   A    
C18   C31   A    
C12   C33   S    
C3    H12   S    
