data_mof_unit_10125.cif
_audit_creation_date              2012-12-10T18:14:28-0500
_audit_creation_method            fapswitch 2.2
_symmetry_space_group_name_H-M    P1
_symmetry_Int_Tables_number       1
_space_group_crystal_system       triclinic
_cell_length_a                    12.630452
_cell_length_b                    13.101925
_cell_length_c                    19.191131
_cell_angle_alpha                 91.369382
_cell_angle_beta                  103.374573
_cell_angle_gamma                 82.644756
_cell_volume                      3064.20082741

loop_
_atom_site_label
_atom_site_type_symbol
_atom_type_description
_atom_site_fract_x
_atom_site_fract_y
_atom_site_fract_z
_atom_type_partial_charge
C1    C     C_R   0.439342 0.690218 0.484177 0.917808
C2    C     C_R   0.516136 0.446556 0.149133 0.048555
C3    C     C_R   0.725765 0.052253 0.480401 -0.145827
C4    C     C_R   0.504781 0.490917 0.634852 0.924551
C5    C     C_R   0.596331 0.197148 0.500521 -0.152246
C6    C     C_R   0.290351 0.835650 0.451650 -0.278847
C7    C     C_R   0.256710 0.940524 0.441160 0.438980
C8    C     C_R   0.334568 0.007565 0.443260 -0.226580
C9    C     C_R   0.446911 0.969106 0.451153 0.040247
C10   C     C_R   0.475942 0.862312 0.448008 0.031117
C11   C     C_R   0.532134 0.032273 0.464376 0.050641
C12   C     C_R   0.516335 0.467266 0.711836 -0.206469
C13   C     C_R   0.640574 0.990640 0.461530 -0.000011
C14   C     C_R   0.661339 0.887548 0.441748 0.377991
C15   C     C_R   0.578961 0.824718 0.434370 -0.196938
C16   C     C_R   0.561078 0.307749 0.507211 0.879550
C17   C     C_R   0.513252 0.133832 0.485817 -0.272376
C18   C     C_R   0.704896 0.154299 0.500819 0.354804
C19   C     C_R   0.401237 0.796656 0.459596 -0.158916
C20   C     C_R   0.082636 0.354779 0.395941 -0.259768
C21   C     C_R   0.798304 0.633274 0.583690 0.540006
C22   C     C_R   0.900440 0.665154 0.601487 -0.283310
C23   C     C_R   0.518201 0.445123 0.073862 0.263842
C24   C     C_R   0.984920 0.617858 0.572591 -0.029265
C25   C     C_R   0.964482 0.536460 0.521389 -0.016236
C26   C     C_R   0.855565 0.507939 0.504024 0.156843
C27   C     C_R   0.042922 0.482246 0.485807 0.002123
C28   C     C_R   0.499498 0.497135 0.365680 0.828945
C29   C     C_R   0.008942 0.407465 0.432688 0.179097
C30   C     C_R   0.902107 0.384211 0.416913 -0.207962
C31   C     C_R   0.827739 0.432201 0.453152 -0.106437
C32   C     C_R   0.154061 0.497229 0.499798 0.016925
C33   C     C_R   0.190151 0.375081 0.412145 0.004118
C34   C     C_R   0.524142 0.444818 0.934525 0.314377
C35   C     C_R   0.426112 0.438317 0.735892 0.369970
C36   C     C_R   0.431254 0.431730 0.808427 -0.239591
C37   C     C_R   0.526566 0.446474 0.858811 -0.036727
C38   C     C_R   0.622702 0.459804 0.836512 -0.031895
C39   C     C_R   0.618681 0.468151 0.762612 -0.091477
C40   C     C_R   0.088986 0.660067 0.601198 0.064382
C41   C     C_R   0.155384 0.624418 0.667427 -0.101632
C42   C     C_R   0.248247 0.671037 0.699067 -0.108212
C43   C     C_R   0.273410 0.755598 0.665988 -0.112825
C44   C     C_R   0.205137 0.794204 0.601617 -0.118460
C45   C     C_R   0.414147 0.455945 0.167451 -0.176503
C46   C     C_R   0.113416 0.746414 0.568872 -0.133478
C47   C     C_R   0.729690 0.452671 0.889637 0.129373
C48   C     C_R   0.790249 0.356062 0.909064 -0.135661
C49   C     C_R   0.891920 0.348980 0.957973 -0.133656
C50   C     C_R   0.933448 0.438154 0.987807 -0.092690
C51   C     C_R   0.873128 0.534542 0.969089 -0.113045
C52   C     C_R   0.771538 0.541979 0.920091 -0.137279
C53   C     C_R   0.724643 0.460642 0.740217 0.160889
C54   C     C_R   0.762953 0.369427 0.708970 -0.126036
C55   C     C_R   0.867916 0.356610 0.695370 -0.069416
C56   C     C_R   0.407612 0.473232 0.238115 -0.195981
C57   C     C_R   0.935247 0.434474 0.712643 -0.137665
C58   C     C_R   0.897876 0.525326 0.743819 -0.161276
C59   C     C_R   0.792762 0.538750 0.757178 -0.052214
C60   C     C_R   0.724963 0.429409 0.187678 0.101932
C61   C     C_R   0.753746 0.341382 0.149343 -0.120700
C62   C     C_R   0.859950 0.319688 0.138375 -0.102548
C63   C     C_R   0.938602 0.384957 0.166014 -0.124386
C64   C     C_R   0.911051 0.472421 0.204309 -0.130774
C65   C     C_R   0.804846 0.494694 0.215179 -0.139510
C66   C     C_R   0.503147 0.481872 0.290805 -0.029559
C67   C     C_R   0.605385 0.469262 0.272758 -0.229440
C68   C     C_R   0.613604 0.450046 0.202517 0.026024
Cl1   Cl    Cl    0.307055 0.398649 0.679434 -0.643590
Cl2   Cl    Cl    0.790601 0.831537 0.429770 -0.636517
Cl3   Cl    Cl    0.117737 0.988916 0.430898 -0.597151
Cl4   Cl    Cl    0.700506 0.699319 0.625879 -0.615905
Cl5   Cl    Cl    0.819159 0.220925 0.529505 -0.646525
H1    H     H_    0.809576 0.021254 0.480836 0.239318
H2    H     H_    0.191872 0.547940 0.539004 0.172956
H3    H     H_    0.914524 0.727288 0.639677 0.189621
H4    H     H_    0.748397 0.407002 0.441243 0.217295
H5    H     H_    0.339193 0.453551 0.126627 0.146222
H6    H     H_    0.328065 0.481381 0.251277 0.153996
H7    H     H_    0.679961 0.471330 0.313825 0.155471
H8    H     H_    0.134271 0.561464 0.694870 0.157343
H9    H     H_    0.299539 0.642839 0.749882 0.140472
H10   H     H_    0.344527 0.792512 0.690956 0.147574
H11   H     H_    0.222490 0.862307 0.577889 0.175874
H12   H     H_    0.433357 0.164592 0.493145 0.189691
H13   H     H_    0.060184 0.777885 0.519487 0.203724
H14   H     H_    0.758949 0.286588 0.885975 0.133178
H15   H     H_    0.938576 0.274385 0.972727 0.130141
H16   H     H_    0.012259 0.432551 0.025547 0.119465
H17   H     H_    0.905194 0.603487 0.992437 0.132959
H18   H     H_    0.725401 0.616992 0.905835 0.131281
H19   H     H_    0.712537 0.307476 0.696781 0.132758
H20   H     H_    0.898035 0.285503 0.672733 0.198877
H21   H     H_    0.016515 0.424100 0.702182 0.166660
H22   H     H_    0.950185 0.585567 0.757381 0.140631
H23   H     H_    0.230174 0.785235 0.455042 0.188367
H24   H     H_    0.764757 0.609607 0.781237 0.143749
H25   H     H_    0.694508 0.288779 0.128827 0.132388
H26   H     H_    0.881511 0.251807 0.108856 0.130724
H27   H     H_    0.020944 0.367691 0.157818 0.119695
H28   H     H_    0.972127 0.522823 0.225806 0.140321
H29   H     H_    0.784975 0.562770 0.245096 0.149541
H30   H     H_    0.304808 0.088532 0.436557 0.162400
H31   H     H_    0.596674 0.746192 0.417718 0.192731
H32   H     H_    0.248593 0.335677 0.384227 0.131728
H33   H     H_    0.876210 0.326548 0.377287 0.172070
H34   H     H_    0.057290 0.298393 0.355241 0.166701
H35   H     H_    0.359426 0.414683 0.825613 0.188271
N1    N     N_R   0.581938 0.507762 0.981142 -0.160163
N2    N     N_R   0.579394 0.507701 0.049736 -0.151741
N3    N     N_R   0.457735 0.383933 0.027166 -0.179268
N4    N     N_R   0.460824 0.383704 0.958421 -0.172869
N5    N     N_R   0.222200 0.444680 0.463280 -0.106694
N6    N     N_R   0.776960 0.554780 0.536340 -0.158889
O1    O     O_R   0.366740 0.627160 0.482470 -0.626443
O2    O     O_R   0.544830 0.662520 0.505920 -0.561860
O3    O     O_R   0.410920 0.482320 0.590130 -0.555394
O4    O     O_R   0.589010 0.517690 0.613590 -0.565831
O5    O     O_R   0.455170 0.337480 0.494080 -0.615242
O6    O     O_R   0.633260 0.372840 0.517530 -0.591809
O7    O     O_R   0.410990 0.482310 0.386410 -0.627600
O8    O     O_R   0.589080 0.517680 0.409870 -0.658088
Zn1   Zn    Zn3+2 0.381090 0.476390 0.484340 0.977002
Zn2   Zn    Zn3+2 0.618910 0.523610 0.515660 1.001122

loop_
_geom_bond_atom_site_label_1
_geom_bond_atom_site_label_2
_ccdc_geom_bond_type
C36   H35   S    
C34   C37   S    
C43   H10   S    
C41   C42   A    
C61   H25   S    
C42   H9    S    
C22   H3    S    
C55   H20   S    
C32   H2    S    
C53   C59   A    
C7    C8    A    
C39   C53   S    
C53   C54   A    
C40   C46   A    
C6    C19   A    
C29   C30   A    
C56   H6    S    
C17   H12   S    
C36   C37   A    
C2    C68   A    
C10   C15   A    
C16   O6    A    
C51   H17   S    
C7    Cl3   S    
C38   C39   A    
C28   O8    A    
C5    C17   A    
C34   N4    A    
C27   C29   A    
C3    C18   A    
C3    H1    S    
C5    C16   S    
N3    N4    A    
C45   C56   A    
C8    C9    A    
C56   C66   A    
C45   H5    S    
C1    O2    A    
C15   H31   S    
C4    C12   S    
C9    C10   A    
C3    C13   A    
C20   H34   S    
N6    Zn2   S    
C66   C67   A    
C26   C31   A    
C13   C14   A    
C30   H33   S    
C14   Cl2   S    
C49   H15   S    
C4    O4    A    
C65   H29   S    
C44   C46   A    
C31   H4    S    
C20   C29   A    
C2    C45   A    
C64   H28   S    
C1    C19   S    
O1    Zn1   S    
C21   Cl4   S    
C51   C52   A    
C33   H32   S    
C24   C25   A    
C16   O5    A    
C28   O7    A    
C5    C18   A    
C63   H27   S    
C25   C26   A    
C67   C68   A    
C60   C61   A    
C35   C36   A    
C28   C66   S    
C58   H22   S    
C26   N6    A    
C54   H19   S    
C37   C38   A    
C50   H16   S    
C47   C48   A    
N5    Zn1   S    
C10   C19   A    
C41   H8    S    
C62   C63   A    
C50   C51   A    
C48   H14   S    
O4    Zn2   S    
C12   C35   A    
C9    C11   A    
C60   C68   S    
C38   C47   S    
C6    C7    A    
C20   C33   A    
C40   C41   A    
C60   C65   A    
C18   Cl5   S    
C6    H23   S    
C57   H21   S    
C55   C57   A    
C43   C44   A    
C59   H24   S    
C22   C24   A    
C4    O3    A    
C42   C43   A    
O8    Zn2   S    
C23   N2    A    
C54   C55   A    
C11   C17   A    
O2    Zn2   S    
C27   C32   A    
C67   H7    S    
C21   N6    A    
C44   H11   S    
C47   C52   A    
O5    Zn1   S    
C25   C27   A    
C23   N3    A    
C32   N5    A    
C33   N5    A    
C64   C65   A    
C12   C39   A    
C58   C59   A    
N1    N2    A    
C62   H26   S    
C11   C13   A    
C57   C58   A    
C30   C31   A    
C48   C49   A    
C24   C40   S    
O3    Zn1   S    
C61   C62   A    
C8    H30   S    
O7    Zn1   S    
C63   C64   A    
C35   Cl1   S    
C49   C50   A    
C2    C23   S    
C34   N1    A    
C14   C15   A    
C52   H18   S    
C1    O1    A    
C21   C22   A    
O6    Zn2   S    
C46   H13   S    
