data_mof_unit_26030.cif
_audit_creation_date              2012-12-10T17:22:10-0500
_audit_creation_method            fapswitch 2.2
_symmetry_space_group_name_H-M    P1
_symmetry_Int_Tables_number       1
_space_group_crystal_system       triclinic
_cell_length_a                    15.886152
_cell_length_b                    10.86646
_cell_length_c                    9.582124
_cell_angle_alpha                 90.336188
_cell_angle_beta                  89.994384
_cell_angle_gamma                 92.519068
_cell_volume                      1652.4990587

loop_
_atom_site_label
_atom_site_type_symbol
_atom_type_description
_atom_site_fract_x
_atom_site_fract_y
_atom_site_fract_z
_atom_type_partial_charge
C1    C     C_R   0.506598 0.263048 0.500408 0.796762
C2    C     C_3   0.948414 0.404690 0.603621 -0.354995
C3    C     C_3   0.917245 0.503674 0.501937 0.227558
C4    C     C_3   0.955924 0.634019 0.542289 -0.124432
C5    C     C_3   0.053920 0.631630 0.545179 -0.425844
C6    C     C_1   0.824921 0.502329 0.500665 -0.090981
C7    C     C_1   0.175064 0.501458 0.500477 -0.098549
C8    C     C_1   0.250594 0.500517 0.500159 -0.180638
C9    C     C_R   0.553285 0.121976 0.755593 -0.154784
C10   C     C_R   0.542741 0.063930 0.884006 -0.157958
C11   C     C_R   0.501004 0.949247 0.890591 -0.142741
C12   C     C_R   0.340269 0.499702 0.500060 0.833504
C13   C     C_R   0.477746 0.887339 0.767783 -0.163455
C14   C     C_R   0.496793 0.939395 0.635261 0.095348
C15   C     C_R   0.522112 0.065169 0.631159 0.097930
C16   C     C_R   0.514068 0.129207 0.503309 -0.119050
C17   C     C_R   0.501671 0.063065 0.378733 -0.211665
C18   C     C_R   0.494538 0.935896 0.380089 -0.214062
C19   C     C_R   0.491954 0.872262 0.506850 -0.111329
C20   C     C_R   0.611300 0.665048 0.145082 -0.149843
C21   C     C_R   0.664989 0.746472 0.073202 -0.220657
C22   C     C_R   0.665001 0.746315 0.929472 -0.175908
C23   C     C_R   0.495358 0.737590 0.501492 0.781018
C24   C     C_R   0.611335 0.664759 0.856740 -0.128867
C25   C     C_R   0.554624 0.581175 0.925620 0.186559
C26   C     C_R   0.554595 0.581225 0.075306 0.206450
C27   C     C_R   0.448367 0.422319 0.073429 -0.067634
C28   C     C_R   0.448384 0.422354 0.925432 -0.065209
C29   C     C_R   0.659710 0.500464 0.499964 0.806506
C30   C     C_3   0.045944 0.406580 0.605804 -0.365339
C31   C     C_3   0.047587 0.471381 0.353696 -0.374094
C32   C     C_3   0.949997 0.471373 0.354167 -0.399891
C33   C     C_1   0.749368 0.501372 0.500103 -0.149501
C34   C     C_3   0.082922 0.502734 0.501108 0.297278
Cu1   Cu    Cu3+1 0.499990 0.499990 0.640660 0.924181
Cu2   Cu    Cu3+1 0.500010 0.500010 0.359340 0.932480
H1    H     H_    0.923730 0.311810 0.569680 0.162348
H2    H     H_    0.068903 0.429067 0.713099 0.181188
H3    H     H_    0.923876 0.419117 0.710716 0.204252
H4    H     H_    0.938553 0.698781 0.458347 0.127985
H5    H     H_    0.497472 0.109545 0.279409 0.161507
H6    H     H_    0.587603 0.210040 0.755251 0.164227
H7    H     H_    0.564783 0.109578 0.978745 0.136949
H8    H     H_    0.488251 0.906822 0.990801 0.137755
H9    H     H_    0.442286 0.801162 0.779837 0.168918
H10   H     H_    0.489631 0.887472 0.281059 0.163933
H11   H     H_    0.406087 0.358641 0.128340 0.136914
H12   H     H_    0.067543 0.313331 0.578750 0.161067
H13   H     H_    0.617484 0.672069 0.255040 0.203010
H14   H     H_    0.707173 0.809891 0.129774 0.156519
H15   H     H_    0.706850 0.810011 0.873566 0.157231
H16   H     H_    0.616999 0.672106 0.746829 0.204869
H17   H     H_    0.406143 0.358656 0.869636 0.144548
H18   H     H_    0.072903 0.539934 0.276841 0.173197
H19   H     H_    0.068102 0.379268 0.319701 0.168511
H20   H     H_    0.923833 0.379114 0.320813 0.177794
H21   H     H_    0.928499 0.539209 0.276716 0.178225
H22   H     H_    0.079408 0.655345 0.650680 0.184881
H23   H     H_    0.080816 0.702640 0.472534 0.154014
N1    N     N_R   0.500800 0.501210 0.147910 -0.197141
N2    N     N_R   0.500820 0.501290 0.852040 -0.203409
O1    O     O_R   0.499990 0.319640 0.618810 -0.589441
O2    O     O_R   0.500000 0.319660 0.381240 -0.581255
O3    O     O_R   0.379430 0.499990 0.618840 -0.574868
O4    O     O_R   0.379440 0.500020 0.381260 -0.571892
O5    O     O_R   0.500000 0.680340 0.618760 -0.614543
O6    O     O_R   0.500010 0.680360 0.381190 -0.600474
O7    O     O_R   0.620560 0.499980 0.618740 -0.594229
O8    O     O_R   0.620570 0.500010 0.381160 -0.591332
C35   C     C_2   0.921353 0.685176 0.677107 0.839211
O9    O     O_2   0.937055 0.637984 0.789158 -0.612819
O10   O     O_R   0.871873 0.788305 0.672579 -0.780998
H24   H     H_    0.853054 0.815251 0.768675 0.325207

loop_
_geom_bond_atom_site_label_1
_geom_bond_atom_site_label_2
_ccdc_geom_bond_type
C24   H16   S    
C19   C23   S    
C28   H17   S    
C24   C25   A    
C35   O9    D    
C29   C33   S    
C29   O7    A    
C9    C10   A    
C10   H7    S    
Cu1   Cu2   S    
C6    C33   T    
C2    C30   S    
C8    C12   S    
C3    C6    S    
C5    C34   S    
Cu2   O4    S    
C22   C24   A    
C4    C35   S    
C17   C18   A    
C9    C15   A    
Cu2   O6    S    
C32   H21   S    
C7    C8    T    
Cu1   N2    S    
C1    C16   S    
C25   N2    A    
C13   C14   A    
C28   N2    A    
C13   H9    S    
C11   C13   A    
C2    H1    S    
C9    H6    S    
Cu1   O3    S    
C20   C26   A    
C5    H22   S    
C20   H13   S    
C1    O2    A    
C23   O5    A    
C30   H12   S    
C21   H14   S    
C2    C3    S    
Cu1   O1    S    
C29   O8    A    
C27   N1    A    
C31   H18   S    
C22   H15   S    
C3    C32   S    
C12   O3    A    
C7    C34   S    
C17   H5    S    
C31   C34   S    
C16   C17   A    
C10   C11   A    
C30   C34   S    
C27   H11   S    
C15   C16   A    
Cu2   O2    S    
C18   H10   S    
C11   H8    S    
Cu1   O7    S    
C20   C21   A    
C30   H2    S    
C1    O1    A    
C18   C19   A    
C12   O4    A    
C23   O6    A    
C27   C28   A    
Cu2   O8    S    
C5    H23   S    
C14   C15   A    
O10   H24   S    
C35   O10   S    
C14   C19   A    
Cu1   O5    S    
C31   H19   S    
C25   C26   A    
C21   C22   A    
C26   N1    A    
C2    H3    S    
C32   H20   S    
C31   C32   S    
C3    C4    S    
C4    H4    S    
C4    C5    S    
Cu2   N1    S    
