data_mof_unit_20902.cif
_audit_creation_date              2012-12-11T15:53:35-0500
_audit_creation_method            fapswitch 2.2
_symmetry_space_group_name_H-M    P1
_symmetry_Int_Tables_number       1
_space_group_crystal_system       triclinic
_cell_length_a                    6.927529
_cell_length_b                    14.495394
_cell_length_c                    15.979228
_cell_angle_alpha                 90.426181
_cell_angle_beta                  90.37134
_cell_angle_gamma                 89.824829
_cell_volume                      1604.50497645

loop_
_atom_site_label
_atom_site_type_symbol
_atom_type_description
_atom_site_fract_x
_atom_site_fract_y
_atom_site_fract_z
_atom_type_partial_charge
O1    O     O_R   0.361600 0.167310 0.164620 -0.543436
O2    O     O_R   0.638400 0.832690 0.835380 -0.543053
O3    O     O_R   0.691080 0.157570 0.338750 -0.544866
O4    O     O_R   0.308920 0.842430 0.661250 -0.540048
O5    O     O_R   0.861410 0.336420 0.339360 -0.542835
O6    O     O_R   0.138590 0.663580 0.660640 -0.542386
C1    C     C_R   0.522892 0.133487 0.365951 0.700688
C2    C     C_R   0.477224 0.866490 0.634098 0.690560
O7    O     O_R   0.691320 0.156280 0.165240 -0.534459
O8    O     O_R   0.308680 0.843720 0.834760 -0.537535
O9    O     O_R   0.861640 0.335130 0.164600 -0.518207
O10   O     O_R   0.138360 0.664870 0.835400 -0.518149
C3    C     C_R   0.522125 0.133803 0.136078 0.692208
C4    C     C_R   0.477869 0.866168 0.863952 0.690786
O11   O     O_R   0.361370 0.168600 0.339370 -0.539868
O12   O     O_R   0.638630 0.831400 0.660630 -0.540518
O13   O     O_3   0.527990 0.310540 0.251980 -0.369378
O14   O     O_3   0.472010 0.689460 0.748020 -0.368705
V1    V     V_3+5 0.802830 0.240980 0.251990 1.405822
V2    V     V_3+5 0.197170 0.759020 0.748010 1.404746
O15   O     O_R   0.191360 0.346160 0.165220 -0.552527
O16   O     O_R   0.808640 0.653840 0.834780 -0.552335
C5    C     C_R   0.021652 0.367278 0.135455 0.741024
C6    C     C_R   0.978344 0.632746 0.864563 0.741491
O17   O     O_R   0.191130 0.347440 0.338740 -0.541259
O18   O     O_R   0.808870 0.652560 0.661260 -0.540880
C7    C     C_R   0.022510 0.369343 0.367770 0.684370
C8    C     C_R   0.977488 0.630711 0.632191 0.684277
V3    V     V_3+5 0.302840 0.262750 0.251990 1.381670
V4    V     V_3+5 0.697160 0.737250 0.748010 1.379206
O19   O     O_3   0.027820 0.193180 0.251990 -0.370993
O20   O     O_3   0.972180 0.806820 0.748010 -0.369365
C9    C     C_3   0.896564 0.426297 0.518925 0.196604
C10   C     C_3   0.103476 0.573820 0.480995 0.194904
C11   C     C_3   0.069496 0.462525 0.571117 -0.183677
C12   C     C_3   0.930542 0.537590 0.428797 -0.183477
H1    H     H_    0.125398 0.431705 0.629904 0.109325
H2    H     H_    0.874642 0.568413 0.370012 0.110750
C13   C     C_3   0.988019 0.561290 0.561987 -0.079874
C14   C     C_3   0.012008 0.438818 0.437934 -0.080351
C15   C     C_3   0.813860 0.524977 0.510687 -0.155683
C16   C     C_3   0.186176 0.475137 0.489229 -0.156478
H3    H     H_    0.660759 0.545320 0.519855 0.119037
H4    H     H_    0.339279 0.454799 0.480058 0.118874
C17   C     C_R   0.862728 0.490658 0.936111 -0.299230
C18   C     C_R   0.137228 0.509402 0.063936 -0.298751
H5    H     H_    0.757325 0.481976 0.886278 0.134219
H6    H     H_    0.242611 0.518090 0.113776 0.134377
C19   C     C_R   0.869433 0.425831 0.001178 0.294035
C20   C     C_R   0.130509 0.574238 0.998873 0.293811
C21   C     C_R   0.008671 0.434808 0.065898 -0.116691
C22   C     C_R   0.991306 0.565242 0.934139 -0.116685
C23   C     C_R   0.636605 0.984430 0.435440 0.143986
C24   C     C_R   0.363846 0.014832 0.564170 0.145489
C25   C     C_R   0.620530 0.922587 0.502387 -0.219396
C26   C     C_R   0.378410 0.076298 0.496981 -0.213250
H7    H     H_    0.711868 0.861721 0.503767 0.117554
H8    H     H_    0.285720 0.136736 0.495823 0.122597
C27   C     C_R   0.486128 0.936215 0.566668 -0.098608
C28   C     C_R   0.514018 0.063229 0.433034 -0.091124
C29   C     C_R   0.679265 0.023953 0.034403 -0.150826
C30   C     C_R   0.320658 0.975452 0.966124 -0.153388
H9    H     H_    0.819881 0.041490 0.059747 0.118747
H10   H     H_    0.180012 0.957845 0.940851 0.117802
C31   C     C_R   0.668424 0.959834 0.968625 -0.161391
C32   C     C_R   0.331509 0.039598 0.031875 -0.160112
H11   H     H_    0.801164 0.929778 0.945419 0.119947
H12   H     H_    0.198763 0.069630 0.055100 0.120034
C33   C     C_R   0.488989 0.934815 0.933492 -0.047780
C34   C     C_R   0.510970 0.064788 0.066861 -0.046650
C35   C     C_3   0.777268 0.340886 0.539355 -0.358151
C36   C     C_3   0.676279 0.351146 0.623452 -0.777657
H13   H     H_    0.783968 0.361171 0.674484 0.223881
H14   H     H_    0.575542 0.410910 0.622417 0.223418
H15   H     H_    0.592156 0.287783 0.636329 0.215608
H16   H     H_    0.666787 0.330193 0.489551 0.178851
H17   H     H_    0.873750 0.279543 0.540790 0.166933
C37   C     C_3   0.222784 0.659248 0.460614 -0.355202
C38   C     C_3   0.323724 0.649096 0.376492 -0.774226
H18   H     H_    0.424390 0.589304 0.377439 0.222885
H19   H     H_    0.215997 0.639185 0.325458 0.223551
H20   H     H_    0.407922 0.712455 0.363688 0.217797
H21   H     H_    0.126306 0.720592 0.459255 0.165408
H22   H     H_    0.333300 0.669887 0.510413 0.180104
N1    N     N_2   0.743198 0.348675 0.998430 -0.527939
H23   H     H_    0.748101 0.313616 0.942063 0.243140
C39   C     C_3   0.546976 0.369401 0.022731 -0.478235
H24   H     H_    0.476811 0.414945 0.975821 0.172176
H25   H     H_    0.544459 0.403598 0.085168 0.211406
H26   H     H_    0.463332 0.304371 0.026315 0.184236
N2    N     N_2   0.256644 0.651432 0.001650 -0.527609
H27   H     H_    0.251576 0.686506 0.058007 0.244170
C40   C     C_3   0.452947 0.630764 0.977430 -0.477135
H28   H     H_    0.523068 0.585235 0.024365 0.172249
H29   H     H_    0.536521 0.695819 0.973889 0.184919
H30   H     H_    0.455639 0.596577 0.914992 0.211064
C41   C     C_3   0.780813 0.961499 0.367186 -0.356671
C42   C     C_3   0.679923 0.931556 0.286179 -0.729332
H31   H     H_    0.590495 0.869427 0.297398 0.217559
H32   H     H_    0.586185 0.987254 0.261424 0.209316
H33   H     H_    0.789706 0.914361 0.238150 0.210664
H34   H     H_    0.878683 0.020354 0.355892 0.198181
H35   H     H_    0.876941 0.903897 0.386849 0.167304
C43   C     C_3   0.223212 0.038861 0.633231 -0.370759
C44   C     C_3   0.017812 0.011385 0.608753 -0.681482
H36   H     H_    0.010137 0.936274 0.595044 0.233543
H37   H     H_    0.918083 0.027650 0.660980 0.204640
H38   H     H_    0.969802 0.050129 0.552576 0.208806
H39   H     H_    0.263943 0.006185 0.693372 0.175136
H40   H     H_    0.226914 0.114439 0.645622 0.162743

loop_
_geom_bond_atom_site_label_1
_geom_bond_atom_site_label_2
_ccdc_geom_bond_type
C29   C34   A    
C6    C22   S    
C32   H12   S    
C39   H24   S    
C40   H28   S    
C25   C27   A    
O13   V3    S    
C10   C16   S    
O4    C2    A    
V1    O19   S    
C19   C21   A    
C41   C42   S    
C13   C15   S    
C32   C34   A    
N1    H23   S    
C44   H37   S    
O9    V1    S    
C24   C43   S    
C11   H1    S    
O3    C1    A    
C2    C27   S    
C43   H39   S    
C3    C34   S    
O12   V4    S    
C29   H9    S    
C11   C16   S    
O7    C3    A    
C30   H10   S    
C9    C11   S    
O5    C7    A    
C37   H21   S    
O7    V1    S    
O6    C8    A    
O8    V2    S    
C31   H11   S    
C20   C22   A    
O3    V1    S    
O14   V4    S    
C14   C16   S    
C10   C12   S    
C41   H34   S    
C17   H5    S    
C40   H29   S    
C15   H3    S    
C12   C15   S    
C16   H4    S    
C36   H15   S    
C43   C44   S    
C23   C28   A    
O11   V3    S    
C18   H6    S    
C24   C27   A    
C23   C25   A    
O17   V3    S    
C44   H38   S    
C24   C26   A    
C9    C14   S    
C30   C32   A    
N1    C39   S    
C10   C13   S    
V4    O20   S    
C19   N1    S    
C12   C14   S    
C36   H14   S    
O8    C4    A    
N2    H27   S    
C38   H19   S    
C37   C38   S    
C1    O11   A    
C8    C13   S    
C23   C41   S    
O15   V3    S    
C18   C21   A    
C26   C28   A    
C30   C33   A    
C11   C13   S    
C37   H22   S    
N2    C40   S    
C5    C21   S    
C17   C19   A    
C7    C14   S    
O10   V2    S    
O1    V3    S    
C41   H35   S    
O18   V4    S    
C40   H30   S    
C42   H32   S    
O15   C5    A    
C4    C33   S    
O16   C6    A    
O1    C3    A    
C12   H2    S    
C1    C28   S    
C35   H17   S    
V2    O20   S    
C18   C20   A    
O16   V4    S    
C36   H13   S    
C38   H20   S    
O5    V1    S    
O17   C7    A    
C42   H33   S    
O6    V2    S    
C44   H36   S    
O10   C6    A    
O18   C8    A    
C17   C22   A    
O2    V4    S    
C9    C15   S    
C25   H7    S    
C35   C36   S    
V3    O19   S    
C10   C37   S    
C43   H40   S    
C35   H16   S    
C31   C33   A    
O9    C5    A    
O13   V1    S    
C26   H8    S    
O14   V2    S    
O2    C4    A    
C9    C35   S    
C38   H18   S    
O4    V2    S    
C29   C31   A    
C20   N2    S    
C2    O12   A    
C42   H31   S    
C39   H26   S    
C39   H25   S    
