data_mof_unit_16550.cif
_audit_creation_date              2012-12-11T15:52:40-0500
_audit_creation_method            fapswitch 2.2
_symmetry_space_group_name_H-M    P1
_symmetry_Int_Tables_number       1
_space_group_crystal_system       triclinic
_cell_length_a                    6.926993
_cell_length_b                    14.551863
_cell_length_c                    16.020129
_cell_angle_alpha                 90.26519
_cell_angle_beta                  90.08264
_cell_angle_gamma                 90.053281
_cell_volume                      1614.81978169

loop_
_atom_site_label
_atom_site_type_symbol
_atom_type_description
_atom_site_fract_x
_atom_site_fract_y
_atom_site_fract_z
_atom_type_partial_charge
O1    O     O_R   0.494400 0.415640 0.412830 -0.511143
O2    O     O_R   0.823920 0.405510 0.586560 -0.545491
O3    O     O_R   0.994250 0.584360 0.587170 -0.542790
C1    C     C_R   0.654896 0.383194 0.615383 0.677951
O4    O     O_R   0.824110 0.404610 0.413450 -0.547497
O5    O     O_R   0.994440 0.583460 0.412820 -0.541497
C2    C     C_R   0.654717 0.383299 0.383412 0.723248
O6    O     O_R   0.494210 0.416540 0.587180 -0.542914
O7    O     O_3   0.660810 0.558680 0.500000 -0.374274
V1    V     V_3+5 0.935650 0.489110 0.500000 1.406348
O8    O     O_R   0.324150 0.594490 0.413440 -0.540073
C3    C     C_R   0.155079 0.616569 0.384284 0.703868
O9    O     O_R   0.323970 0.595390 0.586550 -0.545392
C4    C     C_R   0.154814 0.617801 0.615529 0.670769
V2    V     V_3+5 0.435660 0.510890 0.500000 1.421127
O10   O     O_3   0.160630 0.441320 0.500000 -0.362276
C5    C     C_3   0.928686 0.706929 0.710783 -0.333748
H1    H     H_    0.847294 0.732254 0.655507 0.177569
H2    H     H_    0.858173 0.641935 0.730960 0.089698
C6    C     C_3   0.915260 0.778263 0.782342 0.516411
H3    H     H_    0.839091 0.746429 0.836101 0.035412
H4    H     H_    0.159537 0.808466 0.604735 0.136449
H5    H     H_    0.146201 0.914232 0.711732 0.168771
C7    C     C_3   0.235176 0.780752 0.660523 -0.323964
C8    C     C_3   0.249200 0.652687 0.765108 -0.338676
C9    C     C_3   0.142614 0.687908 0.686195 0.042052
H6    H     H_    0.403878 0.639817 0.750417 0.158415
H7    H     H_    0.185511 0.586148 0.785219 0.129500
C10   C     C_3   0.120283 0.810238 0.810321 0.016156
C11   C     C_3   0.224020 0.851786 0.733162 -0.287459
C12   C     C_3   0.235034 0.723690 0.837651 -0.432924
H8    H     H_    0.163161 0.691364 0.892221 0.123600
H9    H     H_    0.383151 0.743659 0.857771 0.184478
H10   H     H_    0.388946 0.770082 0.642933 0.164897
H11   H     H_    0.372770 0.873621 0.750599 0.186635
C13   C     C_R   0.953228 0.773829 0.215924 -0.158899
H12   H     H_    0.812351 0.792303 0.191965 0.115152
C14   C     C_R   0.964245 0.710646 0.281483 -0.152557
H13   H     H_    0.831320 0.682250 0.305814 0.118474
C15   C     C_R   0.143962 0.684459 0.315018 -0.050660
C16   C     C_R   0.312358 0.723182 0.281002 -0.155237
H14   H     H_    0.453233 0.704694 0.304955 0.116479
C17   C     C_R   0.301342 0.786369 0.215445 -0.152927
H15   H     H_    0.434269 0.814754 0.191107 0.117510
C18   C     C_R   0.121614 0.812620 0.181958 -0.045270
C19   C     C_R   0.812253 0.274236 0.716262 -0.160173
H16   H     H_    0.953018 0.292775 0.692310 0.116360
C20   C     C_R   0.801279 0.209536 0.780450 -0.140018
H17   H     H_    0.934122 0.180136 0.803921 0.118869
C21   C     C_R   0.621629 0.183176 0.813729 -0.045357
C22   C     C_R   0.453245 0.223220 0.781000 -0.160258
H18   H     H_    0.312480 0.204671 0.804945 0.115831
C23   C     C_R   0.464220 0.287924 0.716815 -0.153179
H19   H     H_    0.331377 0.317323 0.693341 0.117371
C24   C     C_R   0.643870 0.314285 0.683535 -0.044795
C25   C     C_R   0.795383 0.254735 0.297850 -0.225591
H20   H     H_    0.922316 0.255755 0.337335 0.132123
C26   C     C_R   0.786143 0.190506 0.232550 -0.153366
H21   H     H_    0.907017 0.144477 0.223070 0.126213
C27   C     C_R   0.621587 0.184355 0.181335 -0.067925
C28   C     C_R   0.467975 0.245077 0.196013 -0.212159
H22   H     H_    0.340865 0.242646 0.156554 0.124215
C29   C     C_R   0.477598 0.311221 0.260206 0.207570
C30   C     C_R   0.641927 0.315776 0.313041 -0.044975
O11   O     O_R   0.771300 0.080930 0.910090 -0.534507
O12   O     O_R   0.441270 0.092800 0.083770 -0.544654
O13   O     O_R   0.271080 0.913920 0.084380 -0.542420
C31   C     C_R   0.610449 0.115195 0.112804 0.687460
O14   O     O_R   0.441580 0.091910 0.910670 -0.546965
O15   O     O_R   0.271390 0.913020 0.910040 -0.540590
C32   C     C_R   0.610607 0.114252 0.881868 0.711330
O16   O     O_R   0.770990 0.081830 0.084440 -0.543499
O17   O     O_3   0.604750 0.938760 0.997250 -0.366190
V3    V     V_3+5 0.329850 0.008280 0.997210 1.408333
O18   O     O_R   0.941680 0.901940 0.910610 -0.516851
C33   C     C_R   0.110299 0.879982 0.881326 0.696846
O19   O     O_R   0.941370 0.902830 0.083720 -0.548449
C34   C     C_R   0.110464 0.880666 0.112809 0.671327
V4    V     V_3+5 0.829860 0.986420 0.997150 1.443314
O20   O     O_3   0.104830 0.056030 0.997180 -0.373964
N1    N     N_3   0.322103 0.375288 0.269597 -0.657399
H23   H     H_    0.195021 0.338104 0.279039 0.224369
H24   H     H_    0.307483 0.411426 0.213683 0.214360
F1    F     F_    0.806267 0.852739 0.756110 -0.707909

loop_
_geom_bond_atom_site_label_1
_geom_bond_atom_site_label_2
_ccdc_geom_bond_type
C8    C12   S    
O12   C31   A    
O11   V4    S    
C16   H14   S    
C23   C24   A    
C1    O6    A    
N1    H23   S    
C10   C33   S    
O19   C34   A    
C8    H7    S    
C11   H11   S    
C29   N1    S    
C5    C9    S    
C13   H12   S    
C7    C9    S    
O16   V4    S    
O5    C3    A    
C14   H13   S    
C26   C27   A    
V2    O10   S    
O12   V3    S    
C5    C6    S    
C25   H20   S    
O14   C32   A    
O17   V3    S    
C28   C29   A    
O8    V2    S    
C19   C24   A    
O15   V3    S    
C12   H9    S    
C18   C34   S    
O1    V2    S    
O7    V1    S    
C8    C9    S    
C20   C21   A    
V3    O20   S    
O9    C4    A    
C16   C17   A    
O13   C34   A    
N1    H24   S    
C21   C22   A    
C6    C10   S    
O19   V4    S    
C19   C20   A    
C22   H18   S    
H5    C11   S    
C13   C18   A    
O4    C2    A    
C26   H21   S    
O11   C32   A    
C21   C32   S    
C7    H10   S    
V4    O20   S    
C27   C28   A    
C22   C23   A    
C3    C15   S    
O2    C1    A    
O18   C33   A    
C10   C11   S    
C12   H8    S    
C31   O16   A    
C25   C30   A    
C5    H1    S    
O17   V4    S    
O14   V3    S    
O13   V3    S    
C4    C9    S    
C17   C18   A    
O3    C4    A    
C20   H17   S    
O6    V2    S    
O9    V2    S    
C1    C24   S    
O15   C33   A    
H4    C7    S    
O2    V1    S    
C19   H16   S    
C15   C16   A    
O1    C2    A    
O5    V1    S    
O8    C3    A    
C23   H19   S    
C8    H6    S    
C6    F1    S    
O7    V2    S    
O4    V1    S    
C10   C12   S    
O3    V1    S    
V1    O10   S    
C14   C15   A    
C17   H15   S    
C13   C14   A    
C5    H2    S    
C25   C26   A    
C28   H22   S    
C7    C11   S    
C2    C30   S    
C29   C30   A    
C6    H3    S    
C27   C31   S    
O18   V4    S    
