data_mof_unit_31137.cif
_audit_creation_date              2012-12-10T17:51:26-0500
_audit_creation_method            fapswitch 2.2
_symmetry_space_group_name_H-M    P1
_symmetry_Int_Tables_number       1
_space_group_crystal_system       triclinic
_cell_length_a                    14.717966
_cell_length_b                    14.75093
_cell_length_c                    17.203604
_cell_angle_alpha                 106.93129
_cell_angle_beta                  72.695879
_cell_angle_gamma                 115.306113
_cell_volume                      3164.93564561

loop_
_atom_site_label
_atom_site_type_symbol
_atom_type_description
_atom_site_fract_x
_atom_site_fract_y
_atom_site_fract_z
_atom_type_partial_charge
C1    C     C_R   0.118740 0.688350 0.514404 0.751548
C2    C     C_R   0.881350 0.311785 0.484886 0.791880
C3    C     C_R   0.184862 0.797110 0.525612 -0.085531
C4    C     C_R   0.813988 0.204171 0.481632 -0.082523
C5    C     C_R   0.209073 0.975347 0.551701 -0.186787
C6    C     C_R   0.780606 0.033497 0.493627 -0.174573
C7    C     C_R   0.144340 0.872858 0.543181 -0.207121
C8    C     C_R   0.849749 0.131492 0.484239 -0.186433
C9    C     C_R   0.289951 0.825259 0.519084 -0.222542
C10   C     C_R   0.709962 0.176531 0.484241 -0.209824
C11   C     C_R   0.355372 0.928318 0.533844 0.078313
C12   C     C_R   0.637144 0.083166 0.505004 0.089818
C13   C     C_R   0.314441 0.003342 0.545579 0.093590
C14   C     C_R   0.674835 0.009515 0.505732 0.078780
C15   C     C_R   0.461424 0.957962 0.531914 -0.124521
C16   C     C_R   0.528989 0.060196 0.524125 -0.112260
C17   C     C_R   0.484516 0.135111 0.540138 0.456163
C18   C     C_R   0.502008 0.889791 0.540206 0.462322
C19   C     C_R   0.378903 0.105369 0.550212 -0.285261
C20   C     C_R   0.607159 0.914231 0.522561 -0.293017
C21   C     C_R   0.303074 0.339982 0.351279 -0.313022
C22   C     C_R   0.689690 0.648739 0.654470 -0.323533
C23   C     C_R   0.991852 0.508476 0.653342 0.812430
C24   C     C_R   0.012387 0.498769 0.347352 0.800180
C25   C     C_R   0.217116 0.366406 0.376732 0.096581
C26   C     C_R   0.779896 0.629694 0.625399 0.071028
C27   C     C_R   0.282112 0.484688 0.492884 0.019363
C28   C     C_R   0.716641 0.512366 0.508320 0.029012
C29   C     C_R   0.370962 0.459613 0.471198 -0.020644
C30   C     C_R   0.623014 0.529497 0.533913 -0.018454
C31   C     C_R   0.380590 0.386827 0.397739 0.156362
C32   C     C_R   0.610812 0.598497 0.609444 0.149127
C33   C     C_R   0.450505 0.504540 0.518566 0.064054
C34   C     C_R   0.541282 0.480512 0.488493 0.071413
C35   C     C_R   0.546785 0.407994 0.414473 -0.189083
C36   C     C_R   0.441340 0.570844 0.595782 -0.183536
C37   C     C_R   0.467526 0.361488 0.370800 -0.195034
C38   C     C_R   0.519548 0.615900 0.640352 -0.205959
C39   C     C_R   0.993858 0.528591 0.741387 -0.141440
C40   C     C_R   0.027272 0.510450 0.262703 -0.117571
C41   C     C_R   0.026808 0.470859 0.770484 -0.284296
C42   C     C_R   0.941629 0.477156 0.227478 -0.275625
C43   C     C_R   0.024815 0.487411 0.854771 -0.128102
C44   C     C_R   0.953254 0.494680 0.149405 -0.163779
C45   C     C_R   0.989353 0.561590 0.910963 0.077357
C46   C     C_R   0.050473 0.550710 0.106737 0.010670
C47   C     C_R   0.956253 0.619058 0.882013 -0.238036
C48   C     C_R   0.136903 0.576079 0.139456 -0.225806
C49   C     C_R   0.962907 0.606740 0.797379 0.457471
C50   C     C_R   0.126117 0.559495 0.217988 0.443071
C51   C     C_2   0.984660 0.577688 0.000440 0.300277
C52   C     C_2   0.064063 0.579610 0.026610 0.306898
Cu1   Cu    Cu3+1 0.916740 0.524770 0.521640 0.936932
Cu2   Cu    Cu3+1 0.083260 0.475230 0.478360 0.944434
H1    H     H_    0.052153 0.411780 0.728314 0.167993
H2    H     H_    0.865573 0.437124 0.260385 0.155567
H3    H     H_    0.474984 0.305707 0.314561 0.139646
H4    H     H_    0.508210 0.664729 0.700123 0.146744
H5    H     H_    0.731373 0.459107 0.453028 0.123918
H6    H     H_    0.270510 0.542042 0.545919 0.131471
H7    H     H_    0.839919 0.667397 0.660772 0.163195
H8    H     H_    0.157364 0.330238 0.340815 0.129148
H9    H     H_    0.611320 0.384540 0.388754 0.131969
H10   H     H_    0.373256 0.587874 0.624480 0.137598
H11   H     H_    0.928913 0.676517 0.924607 0.152204
H12   H     H_    0.213608 0.611373 0.105555 0.166344
H13   H     H_    0.885455 0.463459 0.123213 0.194754
H14   H     H_    0.048911 0.440811 0.876422 0.160425
H15   H     H_    0.347449 0.163216 0.560272 0.157327
H16   H     H_    0.635861 0.859860 0.527340 0.164528
H17   H     H_    0.688713 0.229608 0.469185 0.201244
H18   H     H_    0.320501 0.765695 0.498734 0.204138
H19   H     H_    0.930402 0.150896 0.480924 0.151499
H20   H     H_    0.063163 0.852939 0.548505 0.151462
N1    N     N_R   0.208390 0.438070 0.445820 -0.181579
N2    N     N_R   0.791610 0.561930 0.554180 -0.187631
O1    O     O_R   0.020090 0.662480 0.528530 -0.590743
O2    O     O_R   0.979910 0.337520 0.471470 -0.586855
O3    O     O_R   0.160710 0.620650 0.491980 -0.588208
O4    O     O_R   0.839290 0.379350 0.508020 -0.589944
O5    O     O_R   0.921540 0.523360 0.633990 -0.548519
O6    O     O_R   0.078460 0.476640 0.366010 -0.549033
O7    O     O_R   0.062170 0.481520 0.597440 -0.594706
O8    O     O_R   0.937830 0.518480 0.402560 -0.593038
O9    O     O_3   0.541381 0.238685 0.546832 -0.636839
C53   C     C_3   0.560368 0.282430 0.628136 0.052856
H21   H     H_    0.639078 0.341910 0.622565 0.193329
H22   H     H_    0.559197 0.227335 0.661666 0.124919
C54   C     C_3   0.484057 0.333473 0.678714 -0.356202
H23   H     H_    0.479108 0.381026 0.641711 0.243234
H24   H     H_    0.406801 0.273896 0.693509 0.206265
C55   C     C_3   0.516338 0.401040 0.759391 -0.884031
H25   H     H_    0.520712 0.354922 0.797990 0.254517
H26   H     H_    0.459126 0.436209 0.794720 0.258010
H27   H     H_    0.592281 0.463069 0.746077 0.266740
O10   O     O_3   0.441784 0.802454 0.573223 -0.630912
C56   C     C_3   0.408803 0.829344 0.660005 0.053644
H28   H     H_    0.351638 0.758453 0.682029 0.161747
H29   H     H_    0.368386 0.882992 0.675505 0.133368
C57   C     C_3   0.497950 0.874718 0.706470 -0.369490
H30   H     H_    0.547054 0.828815 0.682437 0.228524
H31   H     H_    0.546053 0.953912 0.696267 0.210991
C58   C     C_3   0.458820 0.878332 0.799322 -0.937903
H32   H     H_    0.410757 0.925382 0.823798 0.268364
H33   H     H_    0.524741 0.913324 0.831229 0.257798
H34   H     H_    0.413122 0.799990 0.812247 0.259275
H35   H     H_    0.309120 0.283486 0.295310 0.138400
H36   H     H_    0.681305 0.701905 0.712275 0.145738
O11   O     O_3   0.213341 0.588755 0.248930 -0.604454
C59   C     C_3   0.232420 0.686222 0.301200 0.099759
H37   H     H_    0.274242 0.690063 0.346909 0.186269
H38   H     H_    0.160986 0.699255 0.337642 0.102222
C60   C     C_3   0.300253 0.771543 0.251715 -0.405556
H39   H     H_    0.368333 0.754936 0.212051 0.235628
H40   H     H_    0.256368 0.775533 0.211114 0.197869
C61   C     C_3   0.336308 0.875042 0.309217 -0.879759
H41   H     H_    0.269495 0.892483 0.350703 0.263893
H42   H     H_    0.381993 0.935719 0.271741 0.251789
H43   H     H_    0.385383 0.875156 0.347387 0.262445
O12   O     O_3   0.936233 0.670255 0.770694 -0.623482
C62   C     C_3   0.026035 0.749163 0.739873 0.064991
H44   H     H_    0.007415 0.773993 0.693502 0.169304
H45   H     H_    0.091315 0.723747 0.706669 0.106953
C63   C     C_3   0.058952 0.841166 0.809503 -0.384269
H46   H     H_    0.992386 0.863356 0.844117 0.229941
H47   H     H_    0.085868 0.820436 0.853216 0.207914
C64   C     C_3   0.145514 0.932214 0.775118 -0.898847
H48   H     H_    0.212146 0.911168 0.738888 0.251987
H49   H     H_    0.170321 0.996255 0.827094 0.252046
H50   H     H_    0.118903 0.958176 0.734562 0.262025
O13   O     O_3   0.160825 0.606668 0.975517 -0.624515
C65   C     C_3   0.216106 0.713094 0.998423 0.039184
H51   H     H_    0.298896 0.725664 0.983931 0.168799
H52   H     H_    0.196985 0.743328 0.066213 0.114308
C66   C     C_3   0.200408 0.775188 0.949449 -0.356563
H53   H     H_    0.226350 0.750538 0.881972 0.226835
H54   H     H_    0.118124 0.762632 0.961550 0.194952
C67   C     C_3   0.258893 0.889325 0.975596 -0.942160
H55   H     H_    0.227035 0.916122 0.041221 0.255459
H56   H     H_    0.251058 0.932039 0.935991 0.259570
H57   H     H_    0.341466 0.905701 0.969206 0.264782
O14   O     O_3   0.895099 0.583715 0.054304 -0.632415
C68   C     C_3   0.916231 0.682174 0.104885 0.026331
H58   H     H_    0.946235 0.741607 0.066216 0.130062
H59   H     H_    0.973267 0.699234 0.142660 0.143386
C69   C     C_3   0.817054 0.686980 0.164001 -0.292882
H60   H     H_    0.759534 0.672021 0.127486 0.225170
H61   H     H_    0.785816 0.626994 0.202168 0.223692
C70   C     C_3   0.835104 0.791150 0.221392 -0.925922
H62   H     H_    0.890874 0.806737 0.259748 0.254338
H63   H     H_    0.761624 0.792067 0.263361 0.262180
H64   H     H_    0.864967 0.852266 0.184612 0.255205
H65   H     H_    0.176859 0.032734 0.562563 0.131704
H66   H     H_    0.809428 0.977849 0.495438 0.131810

loop_
_geom_bond_atom_site_label_1
_geom_bond_atom_site_label_2
_ccdc_geom_bond_type
C15   C18   A    
C29   C33   A    
C66   C67   S    
C1    O1    A    
C2    C4    S    
C9    H18   S    
C4    C8    A    
C56   H28   S    
C66   H53   S    
C39   C41   A    
O9    C53   S    
C21   C31   A    
C22   C32   A    
Cu1   O8    S    
C17   O9    S    
Cu1   O5    S    
C35   C37   A    
C26   H7    S    
C69   H60   S    
C3    C7    A    
C27   H6    S    
C70   H63   S    
C53   H22   S    
C28   H5    S    
C49   O12   S    
C27   C29   A    
C45   C51   S    
C15   C16   A    
C46   C52   S    
C33   C36   A    
C18   O10   S    
C61   H41   S    
C68   H59   S    
C34   C35   A    
C24   O6    A    
C59   H37   S    
C57   H30   S    
C62   C63   S    
C42   H2    S    
C38   H4    S    
C11   C15   A    
C41   H1    S    
C12   C16   A    
C16   C17   A    
C26   N2    A    
C32   C38   A    
C54   H24   S    
C5    C13   A    
C60   C61   S    
C10   H17   S    
C40   C42   A    
C47   H11   S    
C8    H19   S    
C41   C43   A    
C20   H16   S    
C42   C44   A    
C27   N1    A    
C10   C12   A    
C55   H26   S    
Cu2   O7    S    
C56   H29   S    
C44   C46   A    
C7    H20   S    
C69   H61   S    
C45   C47   A    
C46   C48   A    
C30   C34   A    
C51   C52   D    
C14   C20   A    
Cu1   O4    S    
C47   C49   A    
C70   H64   S    
C5    C7    A    
C13   C19   A    
C53   H21   S    
C43   H14   S    
C6    C8    A    
Cu1   Cu2   S    
C53   C54   S    
C50   O11   S    
C31   C37   A    
C25   N1    A    
Cu1   O1    S    
C64   H49   S    
C2    O2    A    
C6    C14   A    
C69   C70   S    
C43   C45   A    
O10   C56   S    
C57   H31   S    
C33   C34   A    
C58   H33   S    
C6    H66   S    
C54   C55   S    
C3    C9    A    
C9    C11   A    
C59   C60   S    
C62   H44   S    
C21   H35   S    
C23   O7    A    
C63   C64   S    
C39   C49   A    
C12   C14   A    
C1    O3    A    
C19   H15   S    
Cu1   N2    S    
C68   C69   S    
C55   H27   S    
C4    C10   A    
C64   H48   S    
C28   N2    A    
Cu2   O6    S    
C56   C57   S    
O12   C62   S    
C63   H47   S    
C60   H39   S    
C51   O14   S    
C66   H54   S    
C21   C25   A    
C24   C40   S    
C23   O5    A    
C52   O13   S    
C67   H57   S    
C67   H56   S    
C61   H43   S    
C48   H12   S    
C28   C30   A    
C24   O8    A    
C64   H50   S    
C29   C31   A    
C36   H10   S    
C70   H62   S    
C36   C38   A    
C30   C32   A    
C11   C13   A    
C65   C66   S    
C22   H36   S    
C48   C50   A    
C55   H25   S    
C17   C19   A    
Cu2   O2    S    
C61   H42   S    
C65   H51   S    
C58   H34   S    
C18   C20   A    
C25   H8    S    
C57   C58   S    
O13   C65   S    
C59   H38   S    
C62   H45   S    
C2    O4    A    
C67   H55   S    
Cu2   O3    S    
Cu2   N1    S    
C5    H65   S    
C40   C50   A    
C65   H52   S    
C22   C26   A    
C58   H32   S    
O14   C68   S    
C44   H13   S    
C35   H9    S    
C1    C3    S    
C54   H23   S    
O11   C59   S    
C23   C39   S    
C37   H3    S    
C68   H58   S    
C63   H46   S    
C60   H40   S    
