data_mof_unit_12692.cif
_audit_creation_date              2012-10-26T21:23:29-0400
_audit_creation_method            fapswitch 2.2
_symmetry_space_group_name_H-M    P1
_symmetry_Int_Tables_number       1
_space_group_crystal_system       triclinic
_cell_length_a                    27.810482
_cell_length_b                    10.960282
_cell_length_c                    9.712336
_cell_angle_alpha                 89.560453
_cell_angle_beta                  89.540296
_cell_angle_gamma                 90.881123
_cell_volume                      2959.88889207

loop_
_atom_site_label
_atom_site_type_symbol
_atom_type_description
_atom_site_fract_x
_atom_site_fract_y
_atom_site_fract_z
_atom_type_partial_charge
C1    C     C_R   0.500171 0.265202 0.500045 0.569204
C2    C     C_R   0.974894 0.397497 0.506190 0.032165
C3    C     C_R   0.974919 0.618972 0.540189 -0.000060
C4    C     C_R   0.407485 0.501892 0.500645 0.552806
C5    C     C_R   0.949463 0.507649 0.520594 -0.071754
C6    C     C_R   0.949976 0.291196 0.461799 0.238289
C7    C     C_R   0.899417 0.292731 0.447695 0.277089
C8    C     C_R   0.873439 0.397436 0.485476 0.006940
C9    C     C_R   0.898648 0.506253 0.517788 -0.144562
C10   C     C_R   0.873084 0.613846 0.546592 -0.011823
C11   C     C_R   0.822390 0.609314 0.543171 0.446731
C12   C     C_R   0.279440 0.481307 0.634939 0.287585
C13   C     C_R   0.822745 0.397643 0.487985 0.464163
C14   C     C_R   0.720536 0.460209 0.625537 0.266582
C15   C     C_R   0.670177 0.452847 0.619080 0.194960
C16   C     C_R   0.499702 0.734715 0.499417 0.577038
C17   C     C_R   0.673355 0.529707 0.382021 0.188658
C18   C     C_R   0.724102 0.537780 0.389941 0.245785
C19   C     C_R   0.747161 0.500696 0.510529 0.204176
C20   C     C_R   0.025039 0.399333 0.532532 0.011057
C21   C     C_R   0.050678 0.511529 0.525400 -0.045839
C22   C     C_R   0.025450 0.621878 0.515966 0.012145
C23   C     C_R   0.253348 0.511946 0.516666 0.223799
C24   C     C_R   0.050081 0.293882 0.570074 -0.061929
C25   C     C_R   0.101825 0.731113 0.475101 0.266077
C26   C     C_R   0.949053 0.721716 0.587002 0.289820
C27   C     C_R   0.898690 0.721557 0.581416 0.313890
C28   C     C_R   0.592642 0.497948 0.499533 0.576812
C29   C     C_R   0.050887 0.729404 0.475966 0.232485
C30   C     C_2   0.505128 0.934772 0.385884 0.186314
C31   C     C_2   0.495022 0.866497 0.498269 -0.072749
C32   C     C_2   0.494489 0.066622 0.386690 0.189425
C33   C     C_2   0.504513 0.133193 0.499233 -0.074534
C34   C     C_R   0.101544 0.512630 0.525488 -0.133500
C35   C     C_2   0.479459 0.414573 0.924619 0.352734
C36   C     C_2   0.472223 0.428979 0.078634 0.516349
C37   C     C_R   0.176996 0.405410 0.544758 0.464110
C38   C     C_R   0.178167 0.619611 0.498759 0.419231
C39   C     C_R   0.277711 0.542417 0.394082 -0.091734
C40   C     C_R   0.327961 0.543934 0.387967 0.224187
C41   C     C_R   0.329838 0.477391 0.627215 -0.186411
C42   C     C_3   0.130625 0.907368 0.564984 -0.050762
C43   C     C_3   0.651566 0.460999 0.171466 -0.088452
C44   C     C_3   0.874626 0.910702 0.518802 -0.003069
C45   C     C_R   0.126432 0.403381 0.550780 0.032776
C46   C     C_3   0.392450 0.367441 0.086626 -0.071906
C47   C     C_3   0.121679 0.184138 0.769048 -0.105360
C48   C     C_3   0.638133 0.281197 0.716520 -0.062441
C49   C     C_3   0.744519 0.511358 0.840726 -0.081197
C50   C     C_3   0.872695 0.202010 0.253023 -0.094722
C51   C     C_3   0.357186 0.706449 0.266858 -0.091731
C52   C     C_R   0.099978 0.295953 0.583452 0.275841
C53   C     C_R   0.127362 0.622495 0.500424 0.003958
C54   C     C_R   0.354444 0.506790 0.504019 -0.015819
C55   C     C_R   0.646012 0.493655 0.499736 -0.056014
Cu1   Cu    Cu3+1 0.500010 0.500020 0.638630 0.984742
Cu2   Cu    Cu3+1 0.499990 0.499980 0.361370 1.111054
H1    H     H_    0.349792 0.451108 0.717817 0.112022
H2    H     H_    0.001475 0.791329 0.692903 0.323565
H3    H     H_    0.630779 0.382030 0.215183 0.145281
H4    H     H_    0.688928 0.433005 0.146772 0.120778
H5    H     H_    0.634543 0.487387 0.072989 0.193721
H6    H     H_    0.852985 0.989426 0.552309 0.204206
H7    H     H_    0.857809 0.873417 0.423982 0.133093
H8    H     H_    0.911615 0.945071 0.495488 0.165950
H9    H     H_    0.731903 0.618173 0.210819 0.355784
H10   H     H_    0.047259 0.891268 0.389316 0.370490
H11   H     H_    0.534643 0.947672 0.204294 0.338232
H12   H     H_    0.257495 0.566669 0.303278 0.155032
H13   H     H_    0.464751 0.056566 0.206620 0.337366
H14   H     H_    0.278349 0.436434 0.829166 0.316813
H15   H     H_    0.440966 0.332226 0.792044 0.339457
H16   H     H_    0.387249 0.296906 0.006634 0.137701
H17   H     H_    0.385864 0.460055 0.042991 0.105406
H18   H     H_    0.364668 0.349557 0.167142 0.180096
H19   H     H_    0.553967 0.599125 0.163350 0.400974
H20   H     H_    0.084215 0.174623 0.809270 0.107310
H21   H     H_    0.139974 0.264943 0.815291 0.159183
H22   H     H_    0.141477 0.101990 0.802083 0.146258
H23   H     H_    0.480530 0.907488 0.590923 0.054196
H24   H     H_    0.673160 0.233443 0.713784 0.158966
H25   H     H_    0.616992 0.259686 0.622660 0.099478
H26   H     H_    0.617430 0.245395 0.806596 0.154370
H27   H     H_    0.707485 0.533692 0.875329 0.153673
H28   H     H_    0.763493 0.594998 0.801998 0.158165
H29   H     H_    0.764276 0.478396 0.932194 0.149216
H30   H     H_    0.909013 0.205996 0.204077 0.129991
H31   H     H_    0.851772 0.283477 0.222357 0.151821
H32   H     H_    0.853631 0.120283 0.212774 0.158399
H33   H     H_    0.954445 0.120811 0.402920 0.359440
H34   H     H_    0.518956 0.090863 0.591218 0.058195
H35   H     H_    0.379760 0.736606 0.354871 0.123582
H36   H     H_    0.322040 0.753697 0.268560 0.138894
H37   H     H_    0.376331 0.734192 0.170714 0.146612
H38   H     H_    0.503714 0.584027 0.888496 0.239144
H39   H     H_    0.031244 0.209867 0.596676 0.187690
H40   H     H_    0.146026 0.853564 0.651435 0.122874
H41   H     H_    0.095261 0.944772 0.596226 0.145064
H42   H     H_    0.155751 0.984848 0.543982 0.225090
N1    N     N_R   0.201603 0.512438 0.520598 -0.388263
N2    N     N_R   0.798729 0.502477 0.515148 -0.355105
N3    N     N_2   0.499480 0.498660 0.846910 -0.326267
N4    N     N_2   0.499460 0.498630 0.153040 -0.093786
O1    O     O_R   0.500010 0.321960 0.617040 -0.498304
O2    O     O_R   0.569740 0.500000 0.617090 -0.443524
O3    O     O_R   0.569730 0.499960 0.382940 -0.487447
O4    O     O_2   0.201610 0.301071 0.559894 -0.411772
O5    O     O_3   0.126466 0.838350 0.443599 -0.533404
O6    O     O_3   0.971100 0.819383 0.651445 -0.636462
O7    O     O_3   0.650609 0.561868 0.261154 -0.556111
O8    O     O_3   0.874562 0.823489 0.626312 -0.501155
O9    O     O_3   0.752433 0.580718 0.281847 -0.681582
O10   O     O_3   0.025184 0.828371 0.428896 -0.669498
O11   O     O_3   0.524699 0.881907 0.269620 -0.671011
O12   O     O_2   0.797321 0.294140 0.464464 -0.434045
O13   O     O_3   0.474766 0.121226 0.271673 -0.632045
O14   O     O_3   0.254873 0.456003 0.756221 -0.661062
O15   O     O_3   0.462436 0.308037 0.867941 -0.678565
O16   O     O_3   0.438169 0.356783 0.147540 -0.494222
O17   O     O_3   0.539009 0.546809 0.092670 -0.674983
O18   O     O_3   0.122581 0.190514 0.623961 -0.554243
O19   O     O_3   0.644813 0.408112 0.732211 -0.534728
O20   O     O_3   0.744241 0.418525 0.740972 -0.535568
O21   O     O_3   0.875634 0.190737 0.397575 -0.571941
O22   O     O_3   0.976062 0.191595 0.419104 -0.711590
O23   O     O_2   0.204239 0.722662 0.475807 -0.452416
O24   O     O_3   0.350713 0.578629 0.266663 -0.573754
O25   O     O_2   0.796610 0.710239 0.567621 -0.449062
O26   O     O_R   0.499990 0.321920 0.382900 -0.411475
O27   O     O_R   0.430270 0.500040 0.617060 -0.556080
O28   O     O_R   0.430260 0.500000 0.382910 -0.430783
O29   O     O_R   0.500010 0.678080 0.617100 -0.526179
O30   O     O_R   0.499990 0.678040 0.382960 -0.449752

loop_
_geom_bond_atom_site_label_1
_geom_bond_atom_site_label_2
_ccdc_geom_bond_type
C10   C27   A    
C24   C52   A    
C8    C13   A    
C15   O19   S    
C35   C36   S    
C47   H22   S    
C7    O21   S    
C35   N3    D    
C17   O7    S    
C1    C33   S    
C7    C8    A    
C44   H7    S    
C16   C31   S    
C12   C23   A    
C26   C27   A    
H19   O17   S    
C36   N4    D    
C49   H27   S    
Cu2   O26   S    
C22   C29   A    
C25   C53   A    
C41   H1    S    
C37   O4    S    
C1    O26   A    
C24   H39   S    
C48   O19   S    
C30   C31   D    
C47   O18   S    
C49   O20   S    
Cu1   Cu2   S    
C18   C19   A    
C36   O16   S    
H33   O22   S    
C20   C24   A    
C28   O3    A    
C8    C9    A    
C43   O7    S    
C9    C10   A    
C17   C55   A    
H38   N3    S    
C50   H31   S    
C23   N1    S    
C27   O8    S    
C21   C22   A    
Cu2   O30   S    
C44   H8    S    
C2    C6    A    
C16   O30   A    
C14   C19   A    
C46   H18   S    
C38   O23   S    
C28   C55   S    
C4    O28   A    
C44   H6    S    
C25   C29   A    
Cu2   N4    S    
H14   O14   S    
C2    C20   A    
C49   H28   S    
C31   H23   S    
C50   O21   S    
Cu1   O1    S    
C38   N1    A    
C42   H40   S    
C39   C40   A    
C4    O27   A    
C21   C34   A    
C45   C52   A    
H13   O13   S    
C40   O24   S    
C15   C55   A    
C5    C9    A    
C12   C41   A    
C51   H35   S    
C52   O18   S    
C50   H32   S    
C1    O1    A    
C28   O2    A    
C17   C18   A    
C39   H12   S    
C11   N2    A    
C34   C45   A    
C13   O12   S    
C32   O13   S    
C26   O6    S    
Cu1   O29   S    
C50   H30   S    
C51   H36   S    
C43   H3    S    
C40   C54   A    
C2    C5    A    
C47   H20   S    
C37   C45   A    
C46   H17   S    
Cu1   O2    S    
C43   H4    S    
C30   O11   S    
C29   O10   S    
C14   O20   S    
C4    C54   S    
C49   H29   S    
Cu2   O28   S    
C3    C26   A    
C6    O22   S    
C18   O9    S    
C3    C5    A    
C42   H41   S    
C6    C7    A    
C48   H26   S    
C51   O24   S    
C32   C33   D    
C33   H34   S    
C48   H24   S    
H10   O10   S    
Cu1   N3    S    
C35   O15   S    
C42   H42   S    
C30   C32   S    
C19   N2    S    
C38   C53   A    
C42   O5    S    
C23   C39   A    
H2    O6    S    
N4    O17   S    
C48   H25   S    
C46   O16   S    
Cu2   O3    S    
C11   O25   S    
C37   N1    A    
C16   O29   A    
C41   C54   A    
C10   C11   A    
C51   H37   S    
C12   O14   S    
C44   O8    S    
C20   C21   A    
C25   O5    S    
C34   C53   A    
H15   O15   S    
C14   C15   A    
C3    C22   A    
C47   H21   S    
H9    O9    S    
C13   N2    A    
C46   H16   S    
Cu1   O27   S    
C43   H5    S    
H11   O11   S    
