data_mof_unit_27178.cif
_audit_creation_date              2013-03-05T16:06:02-0500
_audit_creation_method            fapswitch 2.2
_symmetry_space_group_name_H-M    P1
_symmetry_Int_Tables_number       1
_space_group_crystal_system       triclinic
_cell_length_a                    10.882292
_cell_length_b                    9.628015
_cell_length_c                    23.611548
_cell_angle_alpha                 89.494474
_cell_angle_beta                  92.135738
_cell_angle_gamma                 89.090924
_cell_volume                      2471.75748748

loop_
_atom_site_label
_atom_site_type_symbol
_atom_site_description
_atom_site_fract_x
_atom_site_fract_y
_atom_site_fract_z
_atom_type_partial_charge
O1    O     O_R   0.319640 0.618740 0.500000 -0.597213
O2    O     O_R   0.680360 0.381260 0.500000 -0.597222
O3    O     O_R   0.680360 0.618740 0.500000 -0.593301
O4    O     O_R   0.319640 0.381260 0.500000 -0.592560
C1    C     C_R   0.262387 0.500994 0.501225 0.848040
C2    C     C_R   0.737165 0.498570 0.497845 0.837572
O5    O     O_R   0.499960 0.618810 0.417880 -0.561519
O6    O     O_R   0.500040 0.381190 0.582120 -0.575004
O7    O     O_R   0.500040 0.618810 0.582120 -0.551150
O8    O     O_R   0.499960 0.381190 0.417880 -0.570896
C3    C     C_R   0.501677 0.500071 0.391114 0.830882
C4    C     C_R   0.502112 0.499163 0.608872 0.835626
Cu1   Cu    Cu3+1 0.500000 0.640660 0.500000 0.981759
Cu2   Cu    Cu3+1 0.500000 0.359340 0.500000 0.955827
C5    C     C_R   0.633460 0.474844 0.882430 0.573521
C6    C     C_R   0.414496 0.505179 0.117509 0.579344
N1    N     N_R   0.527776 0.510503 0.852351 -0.467516
N2    N     N_R   0.523635 0.508809 0.147990 -0.466484
C7    C     C_R   0.422858 0.546369 0.878863 0.576114
C8    C     C_R   0.633108 0.511117 0.121648 0.567933
C9    C     C_R   0.416420 0.530906 0.938000 -0.139764
C10   C     C_R   0.636521 0.493718 0.062474 -0.141138
C11   C     C_R   0.526910 0.506389 0.970226 -0.090582
C12   C     C_R   0.524970 0.505897 0.030073 -0.088195
C13   C     C_R   0.639044 0.483022 0.942485 -0.078731
C14   C     C_R   0.411708 0.518752 0.057722 -0.078991
C15   C     C_R   0.303180 0.542809 0.965462 0.425879
C16   C     C_R   0.748256 0.467946 0.035160 0.423328
C17   C     C_R   0.300731 0.542712 0.024952 0.072537
C18   C     C_R   0.750883 0.466179 0.975547 0.085114
O9    O     O_2   0.731241 0.430676 0.853777 -0.504487
O10   O     O_2   0.310111 0.486803 0.145447 -0.500288
O11   O     O_2   0.325752 0.597616 0.847670 -0.462104
O12   O     O_2   0.737578 0.531337 0.152864 -0.462372
C19   C     C_R   0.578306 0.396441 0.240834 0.448402
C20   C     C_R   0.446546 0.408741 0.762953 0.448627
C21   C     C_R   0.578815 0.398125 0.300506 0.044869
C22   C     C_R   0.433751 0.412223 0.703444 0.056447
C23   C     C_R   0.507040 0.499486 0.328382 -0.319718
C24   C     C_R   0.511861 0.496779 0.671655 -0.306320
C25   C     C_R   0.443124 0.603477 0.295722 0.362308
C26   C     C_R   0.599064 0.581175 0.700442 0.374805
C27   C     C_R   0.460495 0.615330 0.237672 0.439219
C28   C     C_R   0.598232 0.593599 0.759333 0.444797
C29   C     C_R   0.522670 0.508039 0.209178 -0.006469
C30   C     C_R   0.524598 0.504351 0.791234 -0.008119
C31   C     C_R   0.065668 0.384733 0.522569 0.361343
C32   C     C_R   0.932563 0.609107 0.471737 0.368539
C33   C     C_R   0.938803 0.379826 0.517073 0.366567
C34   C     C_R   0.059521 0.616099 0.478533 0.364112
C35   C     C_R   0.870778 0.494526 0.494307 -0.405465
C36   C     C_R   0.127945 0.502522 0.502483 -0.395736
C37   C     C_R   0.440662 0.075401 0.457354 0.424179
C38   C     C_R   0.559253 0.924916 0.542618 0.439171
C39   C     C_R   0.559087 0.071541 0.542721 0.405012
C40   C     C_R   0.440271 0.928865 0.457550 0.422368
N3    N     N_R   0.500000 0.852070 0.500000 -0.347898
N4    N     N_R   0.500000 0.147930 0.500000 -0.345825
O13   O     O_3   0.192426 0.547981 0.935056 -0.694927
H1    H     H_    0.194106 0.471723 0.907116 0.359087
O14   O     O_3   0.855702 0.437223 0.065916 -0.695690
H2    H     H_    0.836243 0.366005 0.094682 0.361378
C41   C     C_3   0.179049 0.573042 0.052122 -0.586698
H3    H     H_    0.190723 0.655602 0.084331 0.247548
H4    H     H_    0.106824 0.613022 0.021586 0.249390
H5    H     H_    0.143788 0.476981 0.071647 0.266553
C42   C     C_3   0.874555 0.447751 0.948588 -0.607345
H6    H     H_    0.889278 0.534371 0.918356 0.259309
H7    H     H_    0.953712 0.448964 0.979444 0.251785
H8    H     H_    0.878975 0.346179 0.926835 0.250875
O15   O     O_3   0.631985 0.283787 0.214796 -0.684011
H9    H     H_    0.598166 0.276366 0.175487 0.337173
O16   O     O_3   0.380078 0.312399 0.792400 -0.688091
H10   H     H_    0.418256 0.297774 0.830726 0.335812
C43   C     C_3   0.655978 0.290835 0.333742 -0.596139
H11   H     H_    0.710890 0.341950 0.368001 0.185584
H12   H     H_    0.595796 0.211606 0.352160 0.261393
H13   H     H_    0.722850 0.235841 0.307194 0.265086
C44   C     C_3   0.333124 0.330137 0.674267 -0.619820
H14   H     H_    0.274822 0.402869 0.647934 0.177146
H15   H     H_    0.373009 0.247643 0.647718 0.247852
H16   H     H_    0.271628 0.279062 0.704219 0.278555
O17   O     O_3   0.360746 0.694729 0.318957 -0.580509
H17   H     H_    0.317941 0.644133 0.348957 0.330308
O18   O     O_3   0.687317 0.653423 0.672479 -0.601211
H18   H     H_    0.707704 0.601628 0.637919 0.311028
O19   O     O_3   0.409315 0.730122 0.209632 -0.617225
H19   H     H_    0.448788 0.741913 0.172836 0.329330
O20   O     O_3   0.673713 0.691744 0.784194 -0.611111
H20   H     H_    0.647868 0.709669 0.823223 0.334717
O21   O     O_3   0.124856 0.270570 0.547345 -0.641247
H21   H     H_    0.194941 0.303411 0.570942 0.327695
O22   O     O_3   0.872234 0.716225 0.442390 -0.633712
H22   H     H_    0.801511 0.676968 0.420639 0.332527
O23   O     O_3   0.882965 0.263334 0.537313 -0.639101
H23   H     H_    0.848543 0.215291 0.503420 0.343290
O24   O     O_3   0.115201 0.732007 0.457753 -0.642567
H24   H     H_    0.149159 0.781289 0.491417 0.345740
O25   O     O_3   0.377037 0.141104 0.413147 -0.640398
H25   H     H_    0.337218 0.224602 0.428082 0.372273
O26   O     O_3   0.623495 0.859188 0.586413 -0.600418
H26   H     H_    0.666022 0.778904 0.570333 0.367741
O27   O     O_3   0.622992 0.133322 0.586755 -0.626927
H27   H     H_    0.658422 0.218950 0.572097 0.386326
O28   O     O_3   0.374105 0.867603 0.414325 -0.596499
H28   H     H_    0.340253 0.781925 0.429558 0.378971

loop_
_geom_bond_atom_site_label_1
_geom_bond_atom_site_label_2
_geom_bond_distance
_ccdc_geom_bond_type
O19   H19   0.989880 S    
C17   C41   1.518091 S    
O22   H22   0.991038 S    
C15   C17   1.405896 A    
O16   H10   0.989556 S    
C38   O26   1.370780 S    
O23   H23   0.992169 S    
O3    C2    1.305396 A    
C41   H4    1.108619 S    
O24   H24   0.991872 S    
C23   C25   1.416060 A    
O18   H18   0.990435 S    
C37   O25   1.374647 S    
O5    C3    1.311352 A    
O26   H26   0.981194 S    
O1    C1    1.302839 A    
C7    C9    1.407371 A    
C12   C14   1.420294 A    
C5    C13   1.419971 A    
Cu1   N3    2.035459 S    
C22   C44   1.509697 S    
C25   O17   1.377194 S    
C39   O27   1.374268 S    
C40   N3    1.377291 A    
O7    Cu1   1.948496 S    
C32   C35   1.411725 A    
O17   H17   0.990832 S    
C33   C35   1.410820 A    
C34   C36   1.414879 A    
C11   C12   1.413985 A    
C1    C36   1.464294 S    
C20   C30   1.417087 A    
C2    C35   1.459440 S    
C18   C42   1.518624 S    
O3    Cu1   1.970711 S    
C8    O12   1.349338 S    
C16   O14   1.379845 S    
C32   C34   1.387704 A    
C9    C15   1.417236 A    
C41   H5    1.110000 S    
C19   O15   1.383493 S    
O13   H1    0.991781 S    
C10   C16   1.416942 A    
Cu1   Cu2   2.708553 S    
O4    Cu2   1.970712 S    
C25   C27   1.394514 A    
O2    C2    1.297652 A    
C26   C28   1.397057 A    
C43   H13   1.109271 S    
C28   C30   1.415360 A    
C6    C14   1.415721 A    
Cu2   N4    2.035460 S    
C32   O22   1.380862 S    
C42   H6    1.110393 S    
N1    C30   1.443955 S    
C31   C33   1.383441 A    
C7    O11   1.349674 S    
O21   H21   0.985497 S    
C44   H15   1.109196 S    
C44   H14   1.108297 S    
C42   H7    1.107552 S    
C4    C24   1.482214 S    
C43   H11   1.110839 S    
C27   C29   1.414759 A    
O25   H25   0.981699 S    
O6    C4    1.304628 A    
C26   O18   1.379300 S    
C33   O23   1.374555 S    
C3    C23   1.484592 S    
C43   H12   1.109571 S    
C8    C10   1.410452 A    
C9    C11   1.414242 A    
O8    Cu2   1.948496 S    
C10   C12   1.413277 A    
O1    Cu1   1.977371 S    
C20   C22   1.406858 A    
C19   C29   1.418158 A    
N2    C29   1.445143 S    
C37   C40   1.410892 A    
C13   C18   1.427463 A    
C5    N1    1.366475 A    
C38   C39   1.411706 A    
C34   O24   1.373752 S    
O6    Cu2   1.952188 S    
C19   C21   1.408995 A    
C31   O21   1.379610 S    
O4    C1    1.302727 A    
C44   H16   1.108789 S    
C37   N4    1.377236 A    
C5    O9    1.347282 S    
C31   C36   1.417461 A    
C6    O10   1.347949 S    
O28   H28   0.979712 S    
C42   H8    1.109813 S    
C27   O19   1.382072 S    
C16   C18   1.409150 A    
O15   H9    0.989218 S    
C21   C23   1.421665 A    
C15   O13   1.379676 S    
C22   C24   1.416827 A    
C24   C26   1.417365 A    
N1    C7    1.363549 A    
N2    C8    1.364696 A    
C11   C13   1.422031 A    
C21   C43   1.515602 S    
O14   H2    0.991684 S    
O2    Cu2   1.977369 S    
O7    C4    1.308345 A    
C40   O28   1.370147 S    
O8    C3    1.303317 A    
C41   H3    1.110420 S    
O5    Cu1   1.952188 S    
C14   C17   1.424348 A    
C6    N2    1.366676 A    
C39   N4    1.376738 A    
O27   H27   0.981390 S    
O20   H20   0.989282 S    
C20   O16   1.383635 S    
C28   O20   1.382272 S    
C38   N3    1.377944 A    
