data_mof_unit_40559.cif
_audit_creation_date              2012-12-10T20:42:40-0500
_audit_creation_method            fapswitch 2.2
_symmetry_space_group_name_H-M    P1
_symmetry_Int_Tables_number       1
_space_group_crystal_system       triclinic
_cell_length_a                    8.906663
_cell_length_b                    10.694442
_cell_length_c                    9.881967
_cell_angle_alpha                 90.051042
_cell_angle_beta                  90.054735
_cell_angle_gamma                 90.128116
_cell_volume                      941.271896092

loop_
_atom_site_label
_atom_site_type_symbol
_atom_type_description
_atom_site_fract_x
_atom_site_fract_y
_atom_site_fract_z
_atom_type_partial_charge
C1    C     C_R   0.501658 0.260289 0.499977 0.937552
C2    C     C_R   0.569072 0.935304 0.387482 -0.202697
C3    C     C_R   0.516578 0.871293 0.501922 -0.094563
C4    C     C_R   0.483766 0.936465 0.620160 0.012918
C5    C     C_3   0.359515 0.926073 0.722321 -0.256455
C6    C     C_3   0.353117 0.069842 0.719702 -0.292810
C7    C     C_R   0.413318 0.416608 0.071037 0.213488
C8    C     C_R   0.595054 0.574761 0.072065 -0.122066
C9    C     C_R   0.595036 0.574795 0.928198 -0.110020
C10   C     C_R   0.413223 0.416686 0.928600 0.201464
C11   C     C_3   0.246355 0.406568 0.923131 -0.489056
C12   C     C_R   0.218768 0.499978 0.499957 0.982781
C13   C     C_3   0.246557 0.406149 0.076694 -0.493047
C14   C     C_R   0.502563 0.739710 0.500141 0.867109
C15   C     C_R   0.781263 0.500054 0.500067 0.922045
C16   C     C_1   0.065447 0.499974 0.499988 -0.156964
C17   C     C_1   0.934627 0.500004 0.500112 -0.176548
C18   C     C_R   0.479245 0.063348 0.618557 0.106534
C19   C     C_R   0.513300 0.128616 0.500919 -0.032985
C20   C     C_R   0.568029 0.064803 0.387213 -0.224398
H1    H     H_    0.603806 0.114180 0.297103 0.166444
H2    H     H_    0.208638 0.316422 0.878786 0.186885
H3    H     H_    0.192625 0.490288 0.121280 0.228065
H4    H     H_    0.209468 0.315601 0.120681 0.209404
H5    H     H_    0.604707 0.885973 0.297281 0.165009
H6    H     H_    0.401010 0.889033 0.820669 0.180790
H7    H     H_    0.391128 0.112802 0.816384 0.133025
H8    H     H_    0.669610 0.637092 0.126375 0.146840
H9    H     H_    0.669565 0.637149 0.874141 0.154483
H10   H     H_    0.192515 0.491011 0.879181 0.249527
N1    N     N_R   0.499010 0.499140 0.142800 -0.107812
N2    N     N_R   0.499010 0.499180 0.857150 -0.103560
O1    O     O_R   0.500020 0.316790 0.614690 -0.625323
O2    O     O_R   0.500000 0.316760 0.385350 -0.625147
O3    O     O_R   0.285350 0.500020 0.614650 -0.593520
O4    O     O_R   0.285340 0.499980 0.385310 -0.625255
O5    O     O_R   0.500000 0.683240 0.614650 -0.607304
O6    O     O_R   0.499980 0.683210 0.385310 -0.629390
O7    O     O_R   0.714660 0.500020 0.614690 -0.617686
O8    O     O_R   0.714650 0.499980 0.385350 -0.624173
Zn1   Zn    Zn3+2 0.500010 0.500020 0.653130 0.976857
Zn2   Zn    Zn3+2 0.499990 0.499980 0.346870 0.951534
C21   C     C_2   0.223192 0.857449 0.669321 0.446318
H11   H     H_    0.178036 0.878893 0.569931 0.078661
O9    O     O_2   0.163614 0.776352 0.737610 -0.583132
C22   C     C_2   0.206143 0.124674 0.670413 0.402330
H12   H     H_    0.111208 0.126969 0.739028 0.066155
O10   O     O_2   0.190974 0.164897 0.555649 -0.592305

loop_
_geom_bond_atom_site_label_1
_geom_bond_atom_site_label_2
_ccdc_geom_bond_type
C7    C10   A    
N2    Zn1   S    
N1    Zn2   S    
C12   O4    A    
C11   C13   S    
C11   H2    S    
O4    Zn2   S    
C6    H7    S    
O2    Zn2   S    
C9    H9    S    
C21   H11   S    
O1    Zn1   S    
C19   C20   A    
O8    Zn2   S    
C2    C3    A    
C5    C21   S    
C1    O1    A    
O7    Zn1   S    
C12   O3    A    
C21   O9    D    
C15   O7    A    
C16   C17   T    
C3    C14   S    
O3    Zn1   S    
C13   H4    S    
C1    O2    A    
O6    Zn2   S    
C2    H5    S    
O5    Zn1   S    
C5    C6    S    
C8    H8    S    
C6    C18   S    
C22   O10   D    
C15   O8    A    
C1    C19   S    
C14   O6    A    
C10   C11   S    
C2    C20   A    
C5    H6    S    
C10   N2    A    
C7    C13   S    
C7    N1    A    
C20   H1    S    
C13   H3    S    
C18   C19   A    
C15   C17   S    
C22   H12   S    
C8    C9    A    
C6    C22   S    
C9    N2    A    
C8    N1    A    
C4    C18   A    
C3    C4    A    
C12   C16   S    
C11   H10   S    
C4    C5    S    
C14   O5    A    
