data_mof_unit_35364.cif
_audit_creation_date              2012-12-10T17:07:53-0500
_audit_creation_method            fapswitch 2.2
_symmetry_space_group_name_H-M    P1
_symmetry_Int_Tables_number       1
_space_group_crystal_system       triclinic
_cell_length_a                    10.633589
_cell_length_b                    10.648581
_cell_length_c                    9.998356
_cell_angle_alpha                 91.830054
_cell_angle_beta                  90.223646
_cell_angle_gamma                 90.110557
_cell_volume                      1131.55172115

loop_
_atom_site_label
_atom_site_type_symbol
_atom_type_description
_atom_site_fract_x
_atom_site_fract_y
_atom_site_fract_z
_atom_type_partial_charge
C1    C     C_R   0.497812 0.262320 0.497604 0.904098
C2    C     C_2   0.563069 0.580716 0.078011 -0.141073
C3    C     C_R   0.258296 0.490691 0.498924 0.822340
C4    C     C_R   0.510392 0.737844 0.502494 0.885611
C5    C     C_R   0.742239 0.495955 0.499849 0.849255
C6    C     C_3   0.070205 0.386588 0.598397 0.080174
C7    C     C_3   0.924380 0.391077 0.599022 -0.396320
C8    C     C_3   0.075134 0.615510 0.543396 -0.487049
C9    C     C_3   0.068871 0.458237 0.348906 -0.120250
C10   C     C_3   0.122030 0.482707 0.495742 0.088118
C11   C     C_R   0.592270 0.922940 0.641794 0.161890
C12   C     C_3   0.878546 0.489561 0.498983 0.120737
C13   C     C_R   0.513640 0.921546 0.754757 -0.148725
C14   C     C_R   0.554488 0.973920 0.877391 -0.163185
C15   C     C_R   0.673972 0.028016 0.888628 -0.103669
C16   C     C_R   0.752883 0.029770 0.777288 -0.151512
C17   C     C_R   0.712544 0.977413 0.654323 -0.140963
C18   C     C_3   0.055718 0.153354 0.530191 -0.828914
C19   C     C_R   0.120664 0.354825 0.252788 0.135901
C20   C     C_R   0.076844 0.352873 0.119091 -0.191915
C21   C     C_R   0.121564 0.264778 0.024261 -0.146133
C22   C     C_R   0.211691 0.177177 0.060500 -0.140529
C23   C     C_3   0.931286 0.620562 0.539410 -0.436189
C24   C     C_R   0.257369 0.177973 0.191416 -0.171744
C25   C     C_R   0.212945 0.266089 0.286545 -0.042429
C26   C     C_3   0.925456 0.449330 0.356854 -0.425661
C27   C     C_2   0.552746 0.930862 0.395196 -0.237783
C28   C     C_2   0.548266 0.867956 0.509685 -0.166234
C29   C     C_2   0.555666 0.066383 0.396663 -0.195691
C30   C     C_2   0.490638 0.129871 0.490195 -0.305741
C31   C     C_2   0.567649 0.576941 0.927601 -0.135775
H1    H     H_    0.099605 0.422115 0.700038 0.114353
H2    H     H_    0.616440 0.653973 0.130588 0.155226
H3    H     H_    0.455277 0.428245 0.099594 0.170670
H4    H     H_    0.877904 0.299985 0.575007 0.172248
H5    H     H_    0.892739 0.418257 0.702005 0.159495
H6    H     H_    0.107917 0.638560 0.647294 0.185929
H7    H     H_    0.895294 0.651807 0.639484 0.181165
H8    H     H_    0.089656 0.546313 0.295428 0.145604
H9    H     H_    0.892447 0.351859 0.332474 0.172271
H10   H     H_    0.419958 0.881813 0.747276 0.129728
H11   H     H_    0.493264 0.973032 0.963623 0.123517
H12   H     H_    0.885366 0.511126 0.279620 0.171791
H13   H     H_    0.705376 0.068700 0.983612 0.121368
H14   H     H_    0.845363 0.071716 0.786552 0.122384
H15   H     H_    0.774881 0.979173 0.568983 0.128205
H16   H     H_    0.195182 0.240750 0.649731 0.215093
H17   H     H_    0.122338 0.076671 0.502832 0.235149
H18   H     H_    0.002319 0.176485 0.438735 0.257341
H19   H     H_    0.991615 0.118841 0.608182 0.232215
H20   H     H_    0.007970 0.420761 0.087622 0.122551
H21   H     H_    0.086617 0.264925 0.922395 0.128855
H22   H     H_    0.246732 0.109226 0.986979 0.126107
H23   H     H_    0.113858 0.689696 0.478962 0.173622
H24   H     H_    0.328296 0.110731 0.219131 0.142896
H25   H     H_    0.253994 0.264738 0.384509 0.144197
H26   H     H_    0.900307 0.690861 0.466079 0.171200
H27   H     H_    0.539391 0.884131 0.297972 0.170087
H28   H     H_    0.607012 0.113441 0.318829 0.164606
H29   H     H_    0.432703 0.084431 0.563556 0.149985
H30   H     H_    0.629433 0.643195 0.880074 0.164323
H31   H     H_    0.438132 0.442453 0.895570 0.165847
N1    N     N_2   0.501360 0.501330 0.852150 -0.191315
N2    N     N_2   0.501390 0.501360 0.147810 -0.190097
N3    N     N_2   0.125763 0.261449 0.581510 -0.326489
O1    O     O_R   0.499980 0.319060 0.613040 -0.607655
O2    O     O_R   0.500020 0.319100 0.386900 -0.620791
O3    O     O_R   0.314770 0.499960 0.613070 -0.628473
O4    O     O_R   0.314820 0.500000 0.386930 -0.616957
O5    O     O_R   0.499980 0.680900 0.613100 -0.610393
O6    O     O_R   0.500020 0.680940 0.386960 -0.612398
O7    O     O_R   0.685180 0.500000 0.613070 -0.619585
O8    O     O_R   0.685230 0.500040 0.386930 -0.625163
Zn1   Zn    Zn3+2 0.499970 0.499970 0.650990 0.931480
Zn2   Zn    Zn3+2 0.500030 0.500030 0.349010 0.929169

loop_
_geom_bond_atom_site_label_1
_geom_bond_atom_site_label_2
_ccdc_geom_bond_type
C16   H14   S    
C6    C10   S    
C6    H1    S    
C8    C10   S    
O5    Zn1   S    
C6    C7    S    
C1    O2    A    
N1    Zn1   S    
C9    C26   S    
C27   C29   S    
C23   H7    S    
C11   C13   A    
C9    C10   S    
C31   H30   S    
C3    O3    A    
C25   H25   S    
C14   H11   S    
C20   C21   A    
H3    N2    S    
C1    O1    A    
C20   H20   S    
C3    C10   S    
C21   C22   A    
C24   C25   A    
C24   H24   S    
O6    Zn2   S    
O8    Zn2   S    
C12   C23   S    
C26   H9    S    
H31   N1    S    
C7    H4    S    
C11   C28   S    
C22   H22   S    
C2    H2    S    
C4    O5    A    
C1    C30   S    
C3    O4    A    
N2    Zn2   S    
C2    N2    D    
C26   H12   S    
O4    Zn2   S    
C5    O7    A    
C4    O6    A    
C5    O8    A    
C15   H13   S    
C19   C25   A    
C22   C24   A    
C7    C12   S    
O2    Zn2   S    
C8    H6    S    
C29   C30   D    
C15   C16   A    
O1    Zn1   S    
C16   C17   A    
C31   N1    D    
C6    N3    S    
C9    H8    S    
C8    C23   S    
C17   H15   S    
C18   H19   S    
C5    C12   S    
O7    Zn1   S    
C9    C19   S    
C7    H5    S    
C8    H23   S    
C27   C28   D    
C23   H26   S    
C29   H28   S    
C14   C15   A    
C11   C17   A    
C13   H10   S    
C4    C28   S    
C13   C14   A    
O3    Zn1   S    
C18   H17   S    
H16   N3    S    
C21   H21   S    
C19   C20   A    
C18   H18   S    
C12   C26   S    
C2    C31   S    
C18   N3    S    
C27   H27   S    
C30   H29   S    
