data_mof_unit_7304.cif
_audit_creation_date              2012-10-26T20:51:38-0400
_audit_creation_method            fapswitch 2.2
_symmetry_space_group_name_H-M    P1
_symmetry_Int_Tables_number       1
_space_group_crystal_system       triclinic
_cell_length_a                    9.569634
_cell_length_b                    10.833024
_cell_length_c                    13.869324
_cell_angle_alpha                 90.323497
_cell_angle_beta                  85.001786
_cell_angle_gamma                 90.061074
_cell_volume                      1432.31566891

loop_
_atom_site_label
_atom_site_type_symbol
_atom_type_description
_atom_site_fract_x
_atom_site_fract_y
_atom_site_fract_z
_atom_type_partial_charge
C1    C     C_R   0.499829 0.737419 0.502029 0.563416
C2    C     C_3   0.264321 0.929533 0.435752 0.159503
C3    C     C_R   0.937571 0.508892 0.415331 0.189663
C4    C     C_R   0.477622 0.498914 0.682928 0.532290
C5    C     C_R   0.915318 0.498959 0.584309 0.001610
C6    C     C_R   0.063455 0.498722 0.584301 -0.004880
C7    C     C_R   0.084392 0.510182 0.415603 0.125262
C8    C     C_3   0.101843 0.425449 0.330505 0.237156
C9    C     C_3   0.940741 0.424800 0.328756 0.512773
C10   C     C_R   0.500024 0.262309 0.501609 0.568745
C11   C     C_R   0.522347 0.501841 0.317133 0.565575
C12   C     C_1   0.466020 0.492363 0.785992 -0.000062
C13   C     C_1   0.533994 0.514402 0.214532 -0.021749
C14   C     C_2   0.545003 0.546662 0.024861 0.280572
C15   C     C_2   0.459501 0.476752 0.975939 -0.078901
C16   C     C_1   0.460827 0.485307 0.872610 0.003684
C17   C     C_1   0.540431 0.528503 0.128470 -0.078772
C18   C     C_3   0.907208 0.426480 0.163238 -0.128106
C19   C     C_3   0.916120 0.207257 0.307732 -0.037682
C20   C     C_3   0.685497 0.721579 0.034634 -0.113164
C21   C     C_3   0.413459 0.918969 0.287452 -0.111136
C22   C     C_R   0.374790 0.936140 0.505981 0.003736
C23   C     C_R   0.498657 0.870196 0.511783 -0.041403
C24   C     C_R   0.620829 0.934883 0.530412 -0.135342
C25   C     C_R   0.621753 0.063714 0.530111 0.345312
C26   C     C_R   0.499539 0.129053 0.510920 0.003244
C27   C     C_R   0.375008 0.063209 0.505577 -0.092330
C28   C     C_3   0.265443 0.071012 0.435054 -0.210281
Cu1   Cu    Cu3+1 0.359330 0.500020 0.500000 1.021261
Cu2   Cu    Cu3+1 0.640670 0.499980 0.500000 1.059094
F1    F     F_    0.160055 0.314820 0.355677 -0.671721
F2    F     F_    0.743587 0.122843 0.544111 -0.614211
H1    H     H_    0.388001 0.411238 0.013344 0.070599
H2    H     H_    0.016856 0.394186 0.146467 0.085305
H3    H     H_    0.883943 0.489734 0.104199 0.149335
H4    H     H_    0.961867 0.147198 0.361356 0.190114
H5    H     H_    0.996254 0.222546 0.246164 0.107643
H6    H     H_    0.827385 0.156286 0.279738 0.098341
H7    H     H_    0.755877 0.682788 0.086436 0.135211
H8    H     H_    0.596420 0.772281 0.073687 0.108671
H9    H     H_    0.747432 0.789237 0.988858 0.141206
H10   H     H_    0.496866 0.961426 0.327563 0.108761
H11   H     H_    0.369374 0.987883 0.239534 0.120125
H12   H     H_    0.108760 0.495924 0.652840 0.124786
H13   H     H_    0.464227 0.845996 0.240181 0.130997
H14   H     H_    0.159460 0.469865 0.266842 0.099736
H15   H     H_    0.717206 0.886406 0.540978 0.159070
H16   H     H_    0.166465 0.111313 0.469460 0.179029
H17   H     H_    0.304712 0.116331 0.366524 0.183497
H18   H     H_    0.164638 0.892085 0.471232 0.139624
H19   H     H_    0.852810 0.496469 0.652891 0.136780
H20   H     H_    0.831336 0.348949 0.162469 0.139903
N1    N     N_R   0.852140 0.499070 0.499400 -0.225781
N2    N     N_R   0.148050 0.499110 0.499400 -0.209177
O1    O     O_R   0.381190 0.680360 0.500000 -0.477780
O2    O     O_3   0.863260 0.315715 0.354911 -0.486166
O3    O     O_3   0.637241 0.628420 0.974166 -0.553852
O4    O     O_3   0.304338 0.864002 0.347993 -0.547362
O5    O     O_R   0.618770 0.680320 0.499990 -0.527354
O6    O     O_R   0.364410 0.500000 0.637850 -0.526613
O7    O     O_R   0.602000 0.499960 0.637840 -0.510773
O8    O     O_R   0.381230 0.319680 0.500010 -0.467108
O9    O     O_R   0.618810 0.319640 0.500000 -0.397029
O10   O     O_R   0.398000 0.500040 0.362160 -0.480786
O11   O     O_R   0.635590 0.500000 0.362150 -0.440928
O12   O     O_3   0.889120 0.491736 0.251596 -0.591183

loop_
_geom_bond_atom_site_label_1
_geom_bond_atom_site_label_2
_ccdc_geom_bond_type
C19   O2    S    
C2    C22   S    
C23   C24   A    
C2    O4    S    
Cu1   Cu2   S    
C3    C9    S    
C19   H6    S    
C11   O11   A    
C18   O12   S    
C2    H18   S    
C28   H17   S    
C21   H13   S    
C10   O9    A    
Cu1   O6    S    
C13   C17   T    
C22   C27   A    
Cu2   O5    S    
C4    O6    A    
C25   F2    S    
C20   H9    S    
C1    O1    A    
Cu1   O10   S    
C18   H20   S    
C21   O4    S    
C9    O2    S    
C6    H12   S    
Cu2   O9    S    
C3    N1    A    
C18   H2    S    
C14   C17   S    
C10   C26   S    
C26   C27   A    
C10   O8    A    
C6    N2    A    
C5    N1    A    
C8    F1    S    
C1    C23   S    
C3    C7    A    
C19   H4    S    
C1    O5    A    
C5    C6    A    
C20   H8    S    
Cu2   N1    S    
C8    H14   S    
Cu2   O11   S    
C4    C12   S    
Cu1   N2    S    
C15   C16   S    
C12   C16   T    
C11   C13   S    
C24   C25   A    
Cu1   O8    S    
C8    C9    S    
C7    C8    S    
C18   H3    S    
Cu2   O7    S    
C5    H19   S    
C27   C28   S    
C14   O3    S    
C20   H7    S    
C14   C15   D    
C28   H16   S    
C2    C28   S    
C19   H5    S    
C7    N2    A    
C25   C26   A    
C9    O12   S    
C24   H15   S    
C20   O3    S    
C4    O7    A    
C15   H1    S    
C22   C23   A    
C21   H11   S    
C21   H10   S    
Cu1   O1    S    
C11   O10   A    
