data_mof_unit_10670.cif
_audit_creation_date              2012-12-10T16:48:45-0500
_audit_creation_method            fapswitch 2.2
_symmetry_space_group_name_H-M    P1
_symmetry_Int_Tables_number       1
_space_group_crystal_system       triclinic
_cell_length_a                    17.295975
_cell_length_b                    8.694401
_cell_length_c                    7.490098
_cell_angle_alpha                 103.316208
_cell_angle_beta                  90.176593
_cell_angle_gamma                 93.800578
_cell_volume                      1093.45802137

loop_
_atom_site_label
_atom_site_type_symbol
_atom_type_description
_atom_site_fract_x
_atom_site_fract_y
_atom_site_fract_z
_atom_type_partial_charge
C1    C     C_R   0.497147 0.199745 0.453530 0.857341
C2    C     C_R   0.502856 0.800254 0.546469 0.857356
C3    C     C_2   0.494366 0.031416 0.428344 -0.370529
C4    C     C_2   0.505641 0.968584 0.571652 -0.370541
C5    C     C_R   0.351429 0.504928 0.526347 0.766688
C6    C     C_R   0.648569 0.495057 0.473651 0.766688
C7    C     C_R   0.267910 0.516814 0.543642 -0.027220
C8    C     C_R   0.732083 0.483087 0.456346 -0.027216
C9    C     C_R   0.225007 0.541830 0.394856 -0.208554
C10   C     C_R   0.774971 0.457980 0.605107 -0.208538
C11   C     C_R   0.145506 0.550040 0.405819 -0.153009
C12   C     C_R   0.854466 0.449649 0.594121 -0.153033
C13   C     C_R   0.107358 0.530660 0.564848 0.197493
C14   C     C_R   0.892624 0.469009 0.435094 0.197489
C15   C     C_R   0.150266 0.512238 0.716673 -0.179581
C16   C     C_R   0.849729 0.487523 0.283293 -0.179566
C17   C     C_R   0.230404 0.504948 0.706178 -0.194063
C18   C     C_R   0.769596 0.494929 0.293810 -0.194068
C19   C     C_2   0.022804 0.528130 0.574528 -0.229534
C20   C     C_2   0.977176 0.471473 0.425417 -0.229546
Cu1   Cu    Cu3+1 0.508700 0.517250 0.683000 1.018673
Cu2   Cu    Cu3+1 0.491300 0.482750 0.317000 1.018680
H1    H     H_    0.252799 0.555566 0.269484 0.162810
H2    H     H_    0.747173 0.444259 0.730480 0.162807
H3    H     H_    0.737403 0.512622 0.176732 0.175709
H4    H     H_    0.262609 0.487322 0.823274 0.175726
H5    H     H_    0.002010 0.429339 0.291535 0.142600
H6    H     H_    0.997968 0.570265 0.708407 0.142605
H7    H     H_    0.121536 0.499516 0.841346 0.119442
H8    H     H_    0.878466 0.500236 0.158623 0.119441
H9    H     H_    0.885661 0.427543 0.710159 0.121151
H10   H     H_    0.114300 0.572081 0.289760 0.121142
H11   H     H_    0.482354 0.958903 0.291138 0.165100
H12   H     H_    0.517655 0.041097 0.708857 0.165093
N1    N     N_2   0.478180 0.456750 0.041980 0.155630
N2    N     N_2   0.521820 0.543250 0.958020 0.155629
O1    O     O_R   0.505650 0.286040 0.618880 -0.556134
O2    O     O_R   0.494350 0.713960 0.381120 -0.556117
O3    O     O_R   0.490960 0.256910 0.309800 -0.624810
O4    O     O_R   0.509040 0.743090 0.690200 -0.624810
O5    O     O_R   0.394600 0.516230 0.672450 -0.540471
O6    O     O_R   0.605400 0.483770 0.327550 -0.540471
O7    O     O_R   0.379910 0.487100 0.363380 -0.597333
O8    O     O_R   0.620090 0.512900 0.636620 -0.597336
O9    O     O_3   0.412174 0.395697 0.949609 -0.485337
C21   C     C_3   0.395504 0.243482 0.979578 -0.142634
H13   H     H_    0.366968 0.249343 0.112828 0.166912
H14   H     H_    0.447921 0.174570 0.969288 0.136479
H15   H     H_    0.354007 0.177774 0.871036 0.123162
O10   O     O_3   0.587820 0.604323 0.050405 -0.485332
C22   C     C_3   0.604488 0.756533 0.020416 -0.142634
H16   H     H_    0.552065 0.825417 0.030606 0.136506
H17   H     H_    0.633059 0.750657 0.887205 0.166893
H18   H     H_    0.645954 0.822280 0.129011 0.123168

loop_
_geom_bond_atom_site_label_1
_geom_bond_atom_site_label_2
_ccdc_geom_bond_type
C7    C17   A    
C2    C4    S    
C15   C17   A    
C19   H6    S    
C20   H5    S    
C2    O4    A    
Cu1   O8    S    
C11   C13   A    
C2    O2    A    
Cu2   O7    S    
C1    O1    A    
C22   H18   S    
C19   C20   D    
O10   C22   S    
C5    O7    A    
N2    O10   S    
Cu1   N2    S    
C6    O8    A    
Cu1   Cu2   S    
Cu2   N1    S    
C9    C11   A    
C21   H15   S    
Cu2   O6    S    
Cu1   O4    S    
C10   C12   A    
Cu1   O5    S    
C17   H4    S    
C6    C8    S    
C16   C18   A    
C12   C14   A    
C11   H10   S    
C15   H7    S    
C14   C16   A    
C13   C15   A    
C12   H9    S    
C18   H3    S    
C4    H12   S    
C1    O3    A    
C22   H17   S    
C16   H8    S    
C22   H16   S    
Cu2   O2    S    
C21   H14   S    
C14   C20   S    
Cu1   O1    S    
C7    C9    A    
C6    O6    A    
C5    C7    S    
C3    H11   S    
C21   H13   S    
C9    H1    S    
C13   C19   S    
C5    O5    A    
C10   H2    S    
O9    C21   S    
Cu2   O3    S    
C8    C10   A    
C8    C18   A    
C3    C4    D    
C1    C3    S    
N1    N2    D    
N1    O9    S    
