data_mof_unit_67912.cif
_audit_creation_date              2012-12-10T18:48:40-0500
_audit_creation_method            fapswitch 2.2
_symmetry_space_group_name_H-M    P1
_symmetry_Int_Tables_number       1
_space_group_crystal_system       triclinic
_cell_length_a                    15.316027
_cell_length_b                    15.5306
_cell_length_c                    9.93604
_cell_angle_alpha                 90.542666
_cell_angle_beta                  90.43371
_cell_angle_gamma                 89.916186
_cell_volume                      2363.28090664

loop_
_atom_site_label
_atom_site_type_symbol
_atom_type_description
_atom_site_fract_x
_atom_site_fract_y
_atom_site_fract_z
_atom_type_partial_charge
C1    C     C_R   0.118365 0.378740 0.500924 0.920393
C2    C     C_R   0.036955 0.434030 0.928114 -0.057389
C3    C     C_R   0.036090 0.433500 0.071070 -0.099752
C4    C     C_R   0.966067 0.567581 0.929175 -0.139814
C5    C     C_R   0.465711 0.067336 0.072098 -0.095790
C6    C     C_R   0.536686 0.933983 0.927766 -0.048395
C7    C     C_R   0.537587 0.934589 0.070809 -0.121671
C8    C     C_R   0.465175 0.067093 0.929252 -0.139416
C9    C     C_R   0.785605 0.275809 0.376940 0.379199
C10   C     C_R   0.229570 0.711478 0.621324 0.339965
C11   C     C_R   0.211696 0.723477 0.377410 0.349347
C12   C     C_R   0.876366 0.616488 0.500009 0.939469
C13   C     C_R   0.798895 0.267352 0.621386 0.360120
C14   C     C_R   0.223580 0.287118 0.624751 0.349225
C15   C     C_R   0.769059 0.708921 0.378661 0.390918
C16   C     C_R   0.765442 0.702472 0.623483 0.330306
C17   C     C_R   0.192315 0.256409 0.389549 0.385568
C18   C     C_R   0.270516 0.790753 0.378095 0.323964
C19   C     C_R   0.731241 0.208614 0.624457 0.353690
C20   C     C_R   0.728335 0.207289 0.377406 0.345844
C21   C     C_R   0.303649 0.762190 0.612793 0.391430
C22   C     C_R   0.713920 0.775834 0.624309 0.369739
C23   C     C_R   0.882492 0.377765 0.499393 0.913285
C24   C     C_R   0.272605 0.215256 0.381186 0.367304
C25   C     C_R   0.278506 0.216398 0.625391 0.368295
C26   C     C_R   0.694784 0.760018 0.381767 0.330917
C27   C     C_R   0.186246 0.687037 0.500758 -0.429546
C28   C     C_R   0.821602 0.306199 0.498890 -0.450379
C29   C     C_R   0.801721 0.675057 0.500363 -0.433430
C30   C     C_R   0.177893 0.306549 0.505447 -0.456322
C31   C     C_R   0.694332 0.178769 0.501486 -0.443583
C32   C     C_R   0.317385 0.810377 0.496285 -0.437685
C33   C     C_R   0.311181 0.185463 0.501639 -0.457741
C34   C     C_R   0.119712 0.620446 0.500631 0.950251
C35   C     C_R   0.675176 0.803480 0.502504 -0.449588
C36   C     C_3   0.755995 0.386302 0.223824 0.189859
C37   C     C_3   0.687995 0.417975 0.328585 -0.439071
C38   C     C_3   0.644406 0.499851 0.282324 -1.018254
C39   C     C_3   0.137942 0.713488 0.803445 0.168116
C40   C     C_3   0.155777 0.804246 0.857143 -0.414202
C41   C     C_3   0.093760 0.823762 0.972766 -1.007253
C42   C     C_3   0.219762 0.629482 0.198531 0.140118
C43   C     C_3   0.289806 0.661615 0.103233 -0.331580
C44   C     C_3   0.316925 0.591919 0.003771 -0.949971
C45   C     C_R   0.616811 0.877130 0.500394 0.910563
C46   C     C_3   0.927466 0.245869 0.733910 0.201103
C47   C     C_3   0.934361 0.175074 0.837570 -0.396749
C48   C     C_3   0.971782 0.208356 0.970816 -0.885293
C49   C     C_3   0.281098 0.397569 0.748875 0.141999
C50   C     C_3   0.342213 0.378008 0.867366 -0.315581
C51   C     C_3   0.429184 0.424114 0.852721 -1.039593
C52   C     C_3   0.855707 0.777216 0.225049 0.133757
C53   C     C_3   0.915584 0.814641 0.338435 -0.407188
C54   C     C_3   0.001416 0.848710 0.286048 -0.984844
C55   C     C_3   0.752301 0.589677 0.768253 0.152604
C56   C     C_R   0.380337 0.120833 0.500052 0.924037
C57   C     C_3   0.679731 0.601644 0.870039 -0.336270
C58   C     C_3   0.642661 0.514983 0.911237 -1.050491
C59   C     C_3   0.052387 0.218723 0.326082 0.132445
C60   C     C_3   0.053882 0.120054 0.339519 -0.396245
C61   C     C_3   0.981645 0.087775 0.431427 -0.998211
C62   C     C_3   0.234587 0.904676 0.249130 0.131613
C63   C     C_3   0.271226 0.961062 0.139423 -0.354013
C64   C     C_3   0.227305 0.048416 0.138253 -0.895355
C65   C     C_3   0.636936 0.208878 0.803989 0.155381
C66   C     C_3   0.659170 0.268712 0.921714 -0.327746
C67   C     C_R   0.380861 0.879354 0.498872 0.915400
C68   C     C_3   0.580868 0.276740 0.016078 -0.985250
C69   C     C_3   0.737460 0.092012 0.231317 0.168226
C70   C     C_3   0.817544 0.098363 0.142951 -0.367374
C71   C     C_3   0.858701 0.010025 0.122667 -1.027070
C72   C     C_3   0.441753 0.714284 0.665472 0.142350
C73   C     C_3   0.423256 0.623047 0.609411 -0.418704
C74   C     C_3   0.505918 0.568724 0.604808 -1.021636
C75   C     C_3   0.759852 0.891685 0.749150 0.168037
C76   C     C_3   0.853945 0.866075 0.784547 -0.357178
C77   C     C_3   0.914595 0.942557 0.771030 -1.056718
C78   C     C_R   0.622315 0.117796 0.500773 0.936041
C79   C     C_3   0.383377 0.274889 0.259417 0.113511
C80   C     C_3   0.351748 0.368633 0.279268 -0.371730
C81   C     C_3   0.427470 0.431751 0.273215 -1.019122
C82   C     C_3   0.256273 0.103607 0.764280 0.141785
C83   C     C_3   0.164731 0.119056 0.818304 -0.349396
C84   C     C_3   0.119900 0.032698 0.834867 -1.058010
C85   C     C_3   0.562870 0.731111 0.280378 0.131867
C86   C     C_3   0.544106 0.670518 0.162315 -0.395719
C87   C     C_3   0.517478 0.717354 0.035298 -0.862487
C88   C     C_R   0.966013 0.567456 0.072152 -0.070910
H1    H     H_    0.939469 0.621788 0.125958 0.183660
H2    H     H_    0.801647 0.439898 0.202481 0.181652
H3    H     H_    0.415892 0.270832 0.160210 0.160129
H4    H     H_    0.433905 0.258809 0.336305 0.138347
H5    H     H_    0.302253 0.384802 0.201276 0.236100
H6    H     H_    0.321751 0.377140 0.379709 0.198972
H7    H     H_    0.476940 0.415487 0.351071 0.277356
H8    H     H_    0.403498 0.498195 0.292633 0.265264
H9    H     H_    0.458227 0.429238 0.172934 0.272442
H10   H     H_    0.293422 0.064206 0.837521 0.164611
H11   H     H_    0.251843 0.063741 0.670328 0.125388
H12   H     H_    0.168514 0.153944 0.916082 0.256732
H13   H     H_    0.637128 0.368037 0.343333 0.223446
H14   H     H_    0.126159 0.158815 0.747027 0.217326
H15   H     H_    0.095756 0.009469 0.735352 0.273952
H16   H     H_    0.065453 0.037880 0.907253 0.283168
H17   H     H_    0.166857 0.985138 0.874690 0.284725
H18   H     H_    0.511320 0.781260 0.285293 0.183577
H19   H     H_    0.556383 0.692468 0.373672 0.067698
H20   H     H_    0.603770 0.633738 0.139425 0.263306
H21   H     H_    0.491706 0.624723 0.189995 0.192169
H22   H     H_    0.461984 0.761873 0.053672 0.272097
H23   H     H_    0.497309 0.668412 0.960025 0.248753
H24   H     H_    0.719687 0.433175 0.426578 0.214324
H25   H     H_    0.574152 0.752887 0.995156 0.273745
H26   H     H_    0.599319 0.523843 0.360665 0.278214
H27   H     H_    0.606300 0.486566 0.189525 0.274585
H28   H     H_    0.694603 0.549793 0.264005 0.297981
H29   H     H_    0.118179 0.670956 0.887167 0.176222
H30   H     H_    0.080632 0.718231 0.734548 0.133917
H31   H     H_    0.224411 0.811107 0.891546 0.258132
H32   H     H_    0.144648 0.850699 0.774494 0.202429
H33   H     H_    0.068400 0.381890 0.874980 0.164252
H34   H     H_    0.024955 0.811853 0.942143 0.268120
H35   H     H_    0.099989 0.891138 0.007998 0.275591
H36   H     H_    0.110043 0.780656 0.056995 0.308832
H37   H     H_    0.171294 0.590676 0.140521 0.177354
H38   H     H_    0.249403 0.585259 0.274333 0.106571
H39   H     H_    0.264569 0.717286 0.046714 0.278570
H40   H     H_    0.347429 0.682968 0.162753 0.227769
H41   H     H_    0.354247 0.541129 0.056796 0.268632
H42   H     H_    0.358153 0.620733 0.925085 0.300065
H43   H     H_    0.258918 0.563033 0.953366 0.278028
H44   H     H_    0.065141 0.379967 0.123737 0.181344
H45   H     H_    0.977903 0.295371 0.753331 0.178629
H46   H     H_    0.944619 0.218317 0.633565 0.044057
H47   H     H_    0.869551 0.145605 0.853015 0.266006
H48   H     H_    0.976819 0.124287 0.796248 0.204514
H49   H     H_    0.035782 0.239912 0.955592 0.252970
H50   H     H_    0.983013 0.153643 0.039096 0.250041
H51   H     H_    0.925902 0.254906 0.018079 0.293340
H52   H     H_    0.250355 0.461476 0.766229 0.162824
H53   H     H_    0.319707 0.404265 0.654177 0.109476
H54   H     H_    0.310395 0.398444 0.962387 0.211065
H55   H     H_    0.939890 0.622618 0.876734 0.169818
H56   H     H_    0.355454 0.308056 0.874052 0.272393
H57   H     H_    0.466330 0.396468 0.766930 0.279859
H58   H     H_    0.468310 0.417202 0.945684 0.275504
H59   H     H_    0.418509 0.493432 0.836262 0.288384
H60   H     H_    0.806216 0.826038 0.195146 0.151096
H61   H     H_    0.894689 0.764910 0.133082 0.154784
H62   H     H_    0.880396 0.866763 0.393163 0.185073
H63   H     H_    0.933609 0.765061 0.412681 0.237034
H64   H     H_    0.040478 0.793355 0.250718 0.314158
H65   H     H_    0.038005 0.881139 0.368972 0.254692
H66   H     H_    0.437786 0.121138 0.125709 0.173219
H67   H     H_    0.991549 0.894266 0.202307 0.274867
H68   H     H_    0.801716 0.545158 0.811136 0.186082
H69   H     H_    0.726105 0.557314 0.675330 0.106527
H70   H     H_    0.705852 0.635751 0.960538 0.260825
H71   H     H_    0.627698 0.641883 0.824572 0.225399
H72   H     H_    0.628375 0.473909 0.821788 0.276629
H73   H     H_    0.581215 0.524995 0.967280 0.279273
H74   H     H_    0.690664 0.481355 0.976015 0.271878
H75   H     H_    0.001764 0.236235 0.250846 0.166867
H76   H     H_    0.029420 0.248375 0.421586 0.119442
H77   H     H_    0.565926 0.880891 0.873735 0.174447
H78   H     H_    0.045480 0.090139 0.238531 0.221797
H79   H     H_    0.116973 0.098367 0.383061 0.211616
H80   H     H_    0.001271 0.097483 0.538138 0.257820
H81   H     H_    0.971513 0.017872 0.414923 0.277686
H82   H     H_    0.919043 0.121664 0.412047 0.262410
H83   H     H_    0.233431 0.942412 0.345484 0.109393
H84   H     H_    0.167159 0.885982 0.221996 0.161599
H85   H     H_    0.341116 0.970271 0.160622 0.276420
H86   H     H_    0.264519 0.928991 0.039720 0.213500
H87   H     H_    0.229586 0.076624 0.240300 0.290664
H88   H     H_    0.569308 0.883135 0.123560 0.198525
H89   H     H_    0.158341 0.041918 0.106111 0.254795
H90   H     H_    0.262737 0.091832 0.069911 0.291800
H91   H     H_    0.598327 0.154933 0.843874 0.195963
H92   H     H_    0.594054 0.243505 0.730653 0.099475
H93   H     H_    0.716091 0.243664 0.978905 0.270824
H94   H     H_    0.676801 0.332687 0.881769 0.216331
H95   H     H_    0.518832 0.278433 0.957917 0.255256
H96   H     H_    0.585004 0.336098 0.078300 0.270664
H97   H     H_    0.578460 0.220381 0.083635 0.302670
H98   H     H_    0.688066 0.052125 0.177072 0.180627
H99   H     H_    0.438589 0.121907 0.876940 0.172693
H100  H     H_    0.754365 0.056889 0.325703 0.109220
H101  H     H_    0.797811 0.124642 0.044295 0.245117
H102  H     H_    0.865585 0.142350 0.191174 0.245289
H103  H     H_    0.871044 0.980431 0.221864 0.282158
H104  H     H_    0.921803 0.015942 0.069731 0.273732
H105  H     H_    0.814354 0.967760 0.062882 0.270605
H106  H     H_    0.488987 0.710318 0.749587 0.164518
H107  H     H_    0.475560 0.752539 0.587870 0.108973
H108  H     H_    0.374162 0.590399 0.672622 0.250648
H109  H     H_    0.396217 0.627701 0.505541 0.195732
H110  H     H_    0.722227 0.373418 0.127625 0.153003
H111  H     H_    0.559385 0.603271 0.553915 0.258469
H112  H     H_    0.492582 0.506906 0.551853 0.277830
H113  H     H_    0.527244 0.554576 0.708278 0.291308
H114  H     H_    0.735815 0.936686 0.828234 0.159546
H115  H     H_    0.758545 0.928513 0.653299 0.125858
H116  H     H_    0.856817 0.841379 0.889130 0.227278
H117  H     H_    0.878274 0.815279 0.715287 0.238443
H118  H     H_    0.914567 0.966097 0.665791 0.275186
H119  H     H_    0.981476 0.922115 0.797830 0.296074
H120  H     H_    0.893808 0.995127 0.839282 0.287246
N1    N     N_R   1.000000 0.500000 0.857200 -0.091051
N2    N     N_R   0.000000 0.500000 0.142800 -0.100101
N3    N     N_R   0.500000 1.000000 0.857200 -0.091458
N4    N     N_R   0.500000 1.000000 0.142800 -0.104335
O1    O     O_R   0.091610 0.408380 0.614620 -0.606835
O2    O     O_R   0.408390 0.091620 0.385380 -0.605268
O3    O     O_R   0.408390 0.091620 0.614620 -0.610308
O4    O     O_R   0.591610 0.908380 0.385380 -0.617039
O5    O     O_R   0.408390 0.908380 0.385380 -0.601273
O6    O     O_R   0.591610 0.091620 0.614620 -0.615817
O7    O     O_R   0.591610 0.091620 0.385380 -0.602762
O8    O     O_R   0.408390 0.908380 0.614620 -0.595835
O9    O     O_3   0.806748 0.311745 0.254590 -0.622542
O10   O     O_3   0.211952 0.674150 0.743856 -0.611017
O11   O     O_3   0.173768 0.699763 0.255939 -0.632220
O12   O     O_R   0.908390 0.591620 0.385380 -0.581984
O13   O     O_3   0.843729 0.284730 0.740067 -0.583240
O14   O     O_3   0.213823 0.335054 0.741606 -0.614186
O15   O     O_3   0.814282 0.698434 0.259517 -0.616257
O16   O     O_3   0.793101 0.669880 0.745665 -0.620121
O17   O     O_3   0.133977 0.252144 0.281974 -0.609841
O18   O     O_3   0.287855 0.831071 0.258445 -0.609366
O19   O     O_3   0.712580 0.171397 0.747049 -0.622788
O20   O     O_3   0.700691 0.174719 0.253854 -0.607204
O21   O     O_3   0.365748 0.756808 0.714631 -0.600137
O22   O     O_3   0.703338 0.819385 0.745389 -0.620903
O23   O     O_R   0.908390 0.591620 0.614620 -0.617585
O24   O     O_3   0.314554 0.213400 0.258364 -0.614369
O25   O     O_3   0.301953 0.181790 0.747776 -0.631146
O26   O     O_3   0.646176 0.770170 0.264798 -0.600395
O27   O     O_R   0.091610 0.408380 0.385380 -0.615303
O28   O     O_R   0.908390 0.408380 0.385380 -0.597605
O29   O     O_R   0.091610 0.591620 0.614620 -0.616126
O30   O     O_R   0.091610 0.591620 0.385380 -0.594383
O31   O     O_R   0.908390 0.408380 0.614620 -0.607845
O32   O     O_R   0.591610 0.908380 0.614620 -0.606379
Zn1   Zn    Zn3+2 1.000000 0.500000 0.653120 0.943564
Zn2   Zn    Zn3+2 0.000000 0.500000 0.346880 0.959320
Zn3   Zn    Zn3+2 0.500000 1.000000 0.653120 0.948405
Zn4   Zn    Zn3+2 0.500000 1.000000 0.346880 0.939926

loop_
_geom_bond_atom_site_label_1
_geom_bond_atom_site_label_2
_ccdc_geom_bond_type
C10   C27   A    
C41   H34   S    
C12   O23   A    
C66   C68   S    
C57   H70   S    
C11   C18   A    
O3    Zn3   S    
C20   O20   S    
C83   H14   S    
C47   H48   S    
C34   O30   A    
C82   H11   S    
O5    Zn4   S    
N4    Zn4   S    
C19   C31   A    
C72   H107  S    
C7    N4    A    
C68   H95   S    
C87   H22   S    
C53   C54   S    
C1    O27   A    
C44   H43   S    
C22   C35   A    
C59   O17   S    
O30   Zn2   S    
C48   H49   S    
C63   H86   S    
O27   Zn2   S    
O29   Zn1   S    
C41   H36   S    
C64   H89   S    
C67   O8    A    
C36   H110  S    
C79   O24   S    
C14   O14   S    
C77   H119  S    
C13   O13   S    
C38   H26   S    
C23   O31   A    
C71   H105  S    
C87   H23   S    
C51   H57   S    
C44   H42   S    
C5    H66   S    
C82   O25   S    
C45   O4    A    
C64   H90   S    
C72   O21   S    
C75   O22   S    
C85   O26   S    
C73   C74   S    
N3    Zn3   S    
C49   C50   S    
C12   O12   A    
C37   H24   S    
C59   H76   S    
C9    C20   A    
C42   H37   S    
C22   O22   S    
C80   H5    S    
C21   O21   S    
C47   C48   S    
C52   H61   S    
C62   O18   S    
C73   H109  S    
C25   O25   S    
C39   O10   S    
C63   H85   S    
C70   C71   S    
C11   C27   A    
C71   H104  S    
C8    N3    A    
C56   O2    A    
C3    N2    A    
C57   H71   S    
C6    H77   S    
C59   C60   S    
C52   H60   S    
C88   N2    A    
C34   O29   A    
O28   Zn2   S    
C17   C30   A    
C82   H10   S    
C27   C34   S    
C54   H65   S    
C4    H55   S    
C75   H114  S    
C50   H56   S    
C15   C29   A    
C8    H99   S    
C55   H68   S    
C21   C32   A    
C17   C24   A    
C65   O19   S    
C3    H44   S    
C60   H79   S    
C20   C31   A    
C67   O5    A    
C86   H21   S    
C76   C77   S    
C49   H52   S    
C18   O18   S    
C77   H120  S    
C11   O11   S    
C39   C40   S    
C81   H8    S    
C75   H115  S    
C86   C87   S    
C72   C73   S    
C15   C26   A    
C54   H64   S    
C6    N3    A    
C65   H91   S    
C51   H58   S    
O31   Zn1   S    
C16   C29   A    
C85   C86   S    
C60   H78   S    
C4    N1    A    
C63   C64   S    
C49   H53   S    
C60   C61   S    
C55   O16   S    
C43   H40   S    
C75   C76   S    
C58   H72   S    
C37   C38   S    
C62   H83   S    
C78   O7    A    
C46   H46   S    
C38   H28   S    
C26   O26   S    
C52   O15   S    
C83   C84   S    
C45   O32   A    
C51   H59   S    
C7    H88   S    
C40   H31   S    
C62   C63   S    
C68   H96   S    
C50   C51   S    
C13   C28   A    
C23   C28   S    
C74   H111  S    
C64   H87   S    
O1    Zn1   S    
C69   H100  S    
C79   H4    S    
C56   O3    A    
C32   C67   S    
O12   Zn2   S    
C40   C41   S    
C40   H32   S    
C66   H93   S    
C74   H112  S    
C68   H97   S    
C65   C66   S    
C83   H12   S    
C55   C57   S    
C43   C44   S    
C1    O1    A    
C53   H62   S    
C84   H16   S    
C69   O20   S    
C61   H81   S    
C42   C43   S    
N2    Zn2   S    
C42   H38   S    
C43   H39   S    
C85   H18   S    
C58   H74   S    
N1    Zn1   S    
C54   H67   S    
C76   H117  S    
C70   H102  S    
C31   C78   S    
C2    H33   S    
C36   H2    S    
C5    N4    A    
C46   C47   S    
C16   O16   S    
C2    N1    A    
C16   C22   A    
C24   O24   S    
C48   H51   S    
C47   H47   S    
C79   H3    S    
O8    Zn3   S    
C86   H20   S    
C80   C81   S    
C12   C29   S    
C17   O17   S    
C10   C21   A    
C5    C8    A    
C76   H116  S    
C6    C7    A    
C4    C88   A    
C74   H113  S    
C38   H27   S    
O4    Zn4   S    
C39   H30   S    
C62   H84   S    
C24   C33   A    
O32   Zn3   S    
C48   H50   S    
C42   O11   S    
C25   C33   A    
C61   H80   S    
O6    Zn3   S    
C41   H35   S    
C2    C3    A    
C44   H41   S    
C14   C30   A    
C39   H29   S    
C77   H118  S    
C78   O6    A    
C46   H45   S    
C37   H13   S    
C23   O28   A    
C57   C58   S    
C81   H9    S    
C33   C56   S    
C81   H7    S    
C84   H17   S    
C69   H98   S    
C1    C30   S    
C46   O13   S    
C14   C25   A    
C66   H94   S    
C69   C70   S    
C13   C19   A    
C87   H25   S    
C59   H75   S    
C10   O10   S    
C79   C80   S    
C9    O9    S    
C26   C35   A    
C55   H69   S    
C72   H106  S    
C18   C32   A    
C88   H1    S    
C70   H101  S    
C36   C37   S    
C82   C83   S    
C73   H108  S    
C15   O15   S    
C53   H63   S    
C84   H15   S    
O7    Zn4   S    
C80   H6    S    
O2    Zn4   S    
C61   H82   S    
C71   H103  S    
C49   O14   S    
C85   H19   S    
C58   H73   S    
C19   O19   S    
C36   O9    S    
O23   Zn1   S    
C50   H54   S    
C9    C28   A    
C52   C53   S    
C65   H92   S    
C35   C45   S    
