data_mof_unit_22111.cif
_audit_creation_date              2012-12-10T19:15:15-0500
_audit_creation_method            fapswitch 2.2
_symmetry_space_group_name_H-M    P1
_symmetry_Int_Tables_number       1
_space_group_crystal_system       triclinic
_cell_length_a                    11.016516
_cell_length_b                    9.744394
_cell_length_c                    23.104353
_cell_angle_alpha                 92.038128
_cell_angle_beta                  91.359583
_cell_angle_gamma                 89.793027
_cell_volume                      2477.95912284

loop_
_atom_site_label
_atom_site_type_symbol
_atom_type_description
_atom_site_fract_x
_atom_site_fract_y
_atom_site_fract_z
_atom_type_partial_charge
C1    C     C_R   0.258172 0.500067 0.498037 0.855214
C2    C     C_R   0.455828 0.380166 0.115001 0.550145
C3    C     C_R   0.489861 0.597941 0.233250 0.121384
C4    C     C_R   0.494712 0.497286 0.388838 0.870257
C5    C     C_R   0.514130 0.597342 0.292848 -0.317612
C6    C     C_R   0.471043 0.490955 0.326013 -0.118839
C7    C     C_R   0.398611 0.385431 0.299003 0.021268
C8    C     C_R   0.369194 0.390518 0.239900 0.119051
C9    C     C_R   0.417423 0.494169 0.206855 0.286421
C10   C     C_R   0.325791 0.426573 0.743295 -0.125829
C11   C     C_R   0.362541 0.431019 0.686671 -0.290417
C12   C     C_R   0.238277 0.670642 0.968698 -0.166459
C13   C     C_R   0.467976 0.501191 0.672789 -0.084900
C14   C     C_R   0.543391 0.559988 0.717424 0.122860
C15   C     C_R   0.504183 0.559088 0.775580 0.180184
C16   C     C_R   0.743557 0.499700 0.501160 0.862480
C17   C     C_R   0.394871 0.490324 0.787543 0.257013
C18   C     C_3   0.080863 0.591694 0.553942 0.226756
C19   C     C_3   0.074821 0.345924 0.504943 0.168411
C20   C     C_3   0.939051 0.571534 0.559514 -0.114509
C21   C     C_3   0.933258 0.347377 0.498970 -0.002401
C22   C     C_3   0.066161 0.567052 0.441740 0.176018
C23   C     C_R   0.246684 0.674139 0.028990 -0.161101
C24   C     C_3   0.122645 0.500713 0.499268 0.051182
C25   C     C_3   0.881782 0.499431 0.501641 -0.070553
C26   C     C_3   0.926026 0.579108 0.449120 -0.386795
C27   C     C_3   0.375730 0.080644 0.487389 -0.316506
C28   C     C_3   0.379030 0.917851 0.480291 -0.306501
C29   C     C_3   0.571106 0.073407 0.451057 -0.256124
C30   C     C_3   0.590121 0.915802 0.458773 -0.244487
C31   C     C_3   0.539070 0.087356 0.556142 0.063856
C32   C     C_3   0.523597 0.925040 0.557976 0.049146
C33   C     C_R   0.497981 0.501440 0.611156 0.876137
C34   C     C_R   0.314163 0.573883 0.057996 -0.014409
C35   C     C_R   0.413685 0.358674 0.872720 0.505326
C36   C     C_R   0.299645 0.567773 0.875835 0.507844
C37   C     C_R   0.296041 0.565933 0.936363 -0.012471
C38   C     C_R   0.358424 0.460600 0.965178 -0.021778
C39   C     C_R   0.414021 0.353470 0.933037 -0.039139
C40   C     C_3   0.671674 0.599943 0.703660 -0.447336
C41   C     C_3   0.750373 0.471013 0.696056 -0.863706
C42   C     C_3   0.579180 0.626281 0.825097 -0.434014
C43   C     C_3   0.564629 0.782351 0.826137 -0.818500
C44   C     C_3   0.869628 0.700720 0.581474 -0.380847
C45   C     C_R   0.369174 0.465341 0.026068 -0.061973
C46   C     C_3   0.914412 0.770450 0.638689 -0.915227
C47   C     C_3   0.880247 0.237362 0.454415 -0.359814
C48   C     C_3   0.836975 0.281611 0.394453 -0.829197
C49   C     C_R   0.438043 0.364275 0.054694 -0.029768
C50   C     C_R   0.488120 0.252921 0.021989 0.120163
C51   C     C_R   0.475008 0.248444 0.961661 -0.219710
C52   C     C_R   0.329703 0.580499 0.118278 0.541212
H1    H     H_    0.189018 0.751960 0.947540 0.188503
H2    H     H_    0.314927 0.110941 0.523330 0.144417
H3    H     H_    0.306004 0.874756 0.506338 0.183088
H4    H     H_    0.523382 0.086242 0.408705 0.133778
H5    H     H_    0.581145 0.861486 0.415806 0.159197
H6    H     H_    0.476734 0.131760 0.589204 0.126308
H7    H     H_    0.442080 0.906352 0.584465 0.109996
H8    H     H_    0.653466 0.126783 0.443859 0.164119
H9    H     H_    0.684159 0.895559 0.474610 0.133300
H10   H     H_    0.516345 0.164162 0.937314 0.187411
H11   H     H_    0.569129 0.678646 0.312995 0.157605
H12   H     H_    0.308990 0.376982 0.653361 0.167727
H13   H     H_    0.244830 0.370045 0.753169 0.155853
H14   H     H_    0.740838 0.404180 0.733649 0.273336
H15   H     H_    0.723678 0.412151 0.655759 0.254779
H16   H     H_    0.847321 0.498697 0.693597 0.247868
H17   H     H_    0.669239 0.659442 0.664255 0.216970
H18   H     H_    0.714971 0.669295 0.736848 0.225511
H19   H     H_    0.590424 0.825458 0.784376 0.250713
H20   H     H_    0.468840 0.810789 0.834690 0.291753
H21   H     H_    0.623344 0.828959 0.861223 0.250619
H22   H     H_    0.552418 0.591199 0.868024 0.206333
H23   H     H_    0.925926 0.497623 0.594472 0.163083
H24   H     H_    0.676174 0.596422 0.822345 0.216938
H25   H     H_    0.151587 0.784707 0.584148 0.171537
H26   H     H_    0.049584 0.797736 0.527791 0.200522
H27   H     H_    0.126708 0.150022 0.473728 0.153178
H28   H     H_    0.096226 0.256790 0.419712 0.222923
H29   H     H_    0.107915 0.594644 0.643540 0.203209
H30   H     H_    0.234071 0.572485 0.606592 0.184190
H31   H     H_    0.199265 0.283497 0.569501 0.211568
H32   H     H_    0.070214 0.195750 0.567101 0.153654
H33   H     H_    0.937352 0.694950 0.671790 0.268186
H34   H     H_    0.899992 0.307411 0.540462 0.113384
H35   H     H_    0.992314 0.838873 0.632698 0.255536
H36   H     H_    0.841298 0.837063 0.656424 0.243486
H37   H     H_    0.863156 0.776904 0.547218 0.199798
H38   H     H_    0.777598 0.665913 0.590152 0.244767
H39   H     H_    0.761313 0.356414 0.397041 0.259869
H40   H     H_    0.912519 0.323255 0.369956 0.264527
H41   H     H_    0.802226 0.190190 0.369296 0.226872
H42   H     H_    0.937317 0.144756 0.448745 0.167743
H43   H     H_    0.807574 0.190361 0.476633 0.196124
H44   H     H_    0.063580 0.752189 0.399730 0.168944
H45   H     H_    0.899841 0.688692 0.455761 0.157476
H46   H     H_    0.202876 0.698599 0.416372 0.197158
H47   H     H_    0.184324 0.479623 0.383226 0.162967
H48   H     H_    0.051851 0.526325 0.353335 0.186079
H49   H     H_    0.726417 0.091714 0.547666 0.148698
H50   H     H_    0.678918 0.121027 0.616089 0.160223
H51   H     H_    0.704126 0.887342 0.571399 0.170602
H52   H     H_    0.622931 0.889955 0.631712 0.147873
H53   H     H_    0.509004 0.051452 0.037852 0.186949
H54   H     H_    0.640283 0.139236 0.032827 0.189180
H55   H     H_    0.635087 0.698485 0.204418 0.185286
H56   H     H_    0.876575 0.547479 0.408615 0.165730
H57   H     H_    0.511035 0.797570 0.215552 0.207267
H58   H     H_    0.310133 0.304561 0.366679 0.200364
H59   H     H_    0.429682 0.210524 0.341292 0.201129
H60   H     H_    0.208849 0.289889 0.233108 0.196161
H61   H     H_    0.332061 0.191873 0.217602 0.227657
H62   H     H_    0.335795 0.123878 0.447362 0.183546
H63   H     H_    0.358371 0.885928 0.434400 0.164050
H64   H     H_    0.202952 0.757714 0.052695 0.188828
N1    N     N_R   0.362913 0.468568 0.845985 -0.350794
N2    N     N_3   0.090953 0.481362 0.389810 -0.483731
N3    N     N_3   0.660166 0.139913 0.572518 -0.416138
N4    N     N_3   0.622812 0.857010 0.588124 -0.422953
N5    N     N_3   0.552725 0.143893 0.049316 -0.376355
N6    N     N_3   0.540632 0.702191 0.199093 -0.431727
N7    N     N_3   0.355216 0.270666 0.329662 -0.479840
N8    N     N_3   0.292068 0.288212 0.212249 -0.439335
N9    N     N_R   0.401031 0.485857 0.145160 -0.337654
N10   N     N_3   0.499750 0.138610 0.498760 -0.038357
N11   N     N_3   0.499750 0.861390 0.498760 -0.033974
N12   N     N_3   0.116530 0.736457 0.546290 -0.436274
N13   N     N_3   0.132331 0.252088 0.461549 -0.456598
N14   N     N_3   0.142725 0.544337 0.606973 -0.476805
N15   N     N_3   0.105925 0.294305 0.563090 -0.476971
N16   N     N_3   0.114981 0.705438 0.432268 -0.471837
O1    O     O_R   0.314910 0.616040 0.499990 -0.621653
O2    O     O_2   0.245142 0.670274 0.847185 -0.570094
O3    O     O_2   0.274678 0.680791 0.149872 -0.567203
O4    O     O_2   0.528405 0.292293 0.143665 -0.538331
O5    O     O_R   0.314910 0.383960 0.499990 -0.624925
O6    O     O_R   0.500080 0.616070 0.416130 -0.626138
O7    O     O_R   0.500080 0.383930 0.416130 -0.628062
O8    O     O_R   0.685320 0.616040 0.499970 -0.627707
O9    O     O_R   0.685320 0.383960 0.499970 -0.597193
O10   O     O_R   0.500150 0.616010 0.583820 -0.602827
O11   O     O_R   0.500150 0.383990 0.583820 -0.611446
O12   O     O_2   0.469098 0.258756 0.841021 -0.566129
Zn1   Zn    Zn3+2 0.500150 0.654960 0.499970 0.921714
Zn2   Zn    Zn3+2 0.500150 0.345040 0.499970 0.921487

loop_
_geom_bond_atom_site_label_1
_geom_bond_atom_site_label_2
_ccdc_geom_bond_type
C19   C21   S    
C43   H21   S    
O11   Zn2   S    
C39   C51   A    
O7    Zn2   S    
C19   N13   S    
C43   H20   S    
H51   N4    S    
H26   N12   S    
N10   Zn2   S    
C27   H2    S    
C1    O5    A    
C7    C8    A    
C41   H15   S    
C33   O11   A    
C13   C33   S    
C51   H10   S    
C12   C23   A    
C37   C38   A    
C40   H18   S    
C18   C24   S    
C32   N11   S    
C36   C37   A    
C28   H63   S    
H60   N8    S    
C38   C39   A    
C27   N10   S    
H57   N6    S    
C20   C25   S    
C10   C17   A    
H27   N13   S    
C30   H5    S    
C5    H11   S    
C15   C17   A    
C12   C37   A    
C38   C45   A    
C18   N12   S    
C23   H64   S    
C21   H34   S    
C31   C32   S    
C8    C9    A    
C48   H39   S    
H30   N14   S    
C12   H1    S    
C3    N6    S    
C17   N1    S    
C35   O12   S    
H44   N16   S    
C46   H33   S    
C13   C14   A    
O10   Zn1   S    
C16   O8    A    
C50   N5    S    
C32   N4    S    
C1    O1    A    
C20   C44   S    
C28   H3    S    
C44   C46   S    
C41   H16   S    
C46   H36   S    
C19   N15   S    
C42   H22   S    
C48   H41   S    
H59   N7    S    
H49   N3    S    
O5    Zn2   S    
C4    C6    S    
C11   H12   S    
C40   H17   S    
C26   H56   S    
C8    N8    S    
C25   C26   S    
C4    O6    A    
C9    N9    S    
C20   H23   S    
C35   C39   A    
C27   H62   S    
H31   N15   S    
C29   C30   S    
C3    C9    A    
C2    C49   A    
H58   N7    S    
C47   C48   S    
C29   H8    S    
C45   C49   A    
C23   C34   A    
C50   C51   A    
H53   N5    S    
C34   C45   A    
C36   N1    A    
C31   N3    S    
C6    C7    A    
H25   N12   S    
O9    Zn2   S    
N11   Zn1   S    
C40   C41   S    
C48   H40   S    
C22   C24   S    
C18   N14   S    
H48   N2    S    
C42   C43   S    
C44   H38   S    
C31   H6    S    
C46   H35   S    
C10   H13   S    
C16   C25   S    
C22   N2    S    
C21   C25   S    
C30   N11   S    
C43   H19   S    
H28   N13   S    
C22   N16   S    
C42   H24   S    
H47   N2    S    
C15   C42   S    
C7    N7    S    
C3    C5    A    
C36   O2    S    
O8    Zn1   S    
C52   N9    A    
C28   N11   S    
C41   H14   S    
C29   H4    S    
C33   O10   A    
H32   N15   S    
C34   C52   A    
H55   N6    S    
C16   O9    A    
C4    O7    A    
C11   C13   A    
H29   N14   S    
C5    C6    A    
H61   N8    S    
C32   H7    S    
H54   N5    S    
C47   H42   S    
C19   C24   S    
C18   C20   S    
C2    O4    S    
C35   N1    A    
C10   C11   A    
H50   N3    S    
C26   H45   S    
C14   C40   S    
C2    N9    A    
O1    Zn1   S    
C1    C24   S    
C49   C50   A    
C22   C26   S    
C30   H9    S    
H46   N16   S    
C27   C28   S    
C52   O3    S    
C47   H43   S    
C14   C15   A    
O6    Zn1   S    
C31   N10   S    
C21   C47   S    
C29   N10   S    
C44   H37   S    
H52   N4    S    
