data_mof_unit_56864.cif
_audit_creation_date              2012-12-10T20:28:40-0500
_audit_creation_method            fapswitch 2.2
_symmetry_space_group_name_H-M    P1
_symmetry_Int_Tables_number       1
_space_group_crystal_system       triclinic
_cell_length_a                    10.660719
_cell_length_b                    10.712788
_cell_length_c                    9.948756
_cell_angle_alpha                 90.950935
_cell_angle_beta                  89.600361
_cell_angle_gamma                 93.442345
_cell_volume                      1133.98127214

loop_
_atom_site_label
_atom_site_type_symbol
_atom_type_description
_atom_site_fract_x
_atom_site_fract_y
_atom_site_fract_z
_atom_type_partial_charge
C1    C     C_R   0.514665 0.262497 0.499343 0.917719
C2    C     C_R   0.054761 0.376028 0.442317 -0.006572
C3    C     C_R   0.126527 0.476600 0.505346 -0.052479
C4    C     C_R   0.070043 0.575511 0.569466 -0.174851
C5    C     C_R   0.942317 0.580295 0.567636 -0.231613
C6    C     C_R   0.871092 0.490057 0.495386 -0.088136
C7    C     C_R   0.517066 0.069419 0.620478 0.013577
C8    C     C_R   0.534866 0.132180 0.499962 -0.160961
C9    C     C_R   0.546825 0.065401 0.379274 -0.147537
C10   C     C_R   0.532805 0.936517 0.379247 -0.191679
C11   C     C_R   0.512348 0.873621 0.500976 -0.125316
C12   C     C_R   0.260308 0.488594 0.500655 0.905651
C13   C     C_R   0.503143 0.941612 0.621216 -0.045230
C14   C     C_3   0.571753 0.931546 0.751108 0.900473
C15   C     C_3   0.600298 0.073940 0.741053 0.224308
C16   C     C_R   0.390383 0.482849 0.069900 0.019152
C17   C     C_R   0.607173 0.530197 0.072557 0.391975
C18   C     C_R   0.608719 0.524442 0.928269 0.403660
C19   C     C_R   0.390116 0.486925 0.928709 0.077083
C20   C     C_3   0.292535 0.382568 0.914548 0.332223
C21   C     C_3   0.292220 0.374864 0.067969 -0.462145
C22   C     C_R   0.503507 0.740182 0.500722 0.916683
C23   C     C_R   0.739372 0.499347 0.498948 0.832576
C24   C     C_R   0.103243 0.260052 0.399849 -0.047096
C25   C     C_R   0.031288 0.179636 0.313283 -0.179098
C26   C     C_R   0.908175 0.202351 0.284533 -0.225887
C27   C     C_R   0.853192 0.302125 0.346410 -0.155614
C28   C     C_R   0.925333 0.390413 0.426027 0.092585
H1    H     H_    0.125495 0.650392 0.619760 0.167510
H2    H     H_    0.696936 0.106463 0.708448 0.025029
H3    H     H_    0.330522 0.302515 0.857127 0.156518
H4    H     H_    0.202953 0.400359 0.116859 0.181987
H5    H     H_    0.065514 0.091924 0.277451 0.212310
H6    H     H_    0.852089 0.136620 0.222582 0.135125
H7    H     H_    0.753843 0.306875 0.330630 0.169062
H8    H     H_    0.898916 0.656676 0.619355 0.187772
H9    H     H_    0.564986 0.112068 0.285349 0.204501
H10   H     H_    0.539760 0.886890 0.284254 0.152850
N1    N     N_R   0.499160 0.499140 0.142800 -0.142516
N2    N     N_R   0.499160 0.499180 0.857150 -0.182995
O1    O     O_R   0.500020 0.316790 0.614690 -0.578585
O2    O     O_R   0.500000 0.316760 0.385350 -0.591269
O3    O     O_R   0.316770 0.500020 0.614690 -0.558816
O4    O     O_R   0.316760 0.499980 0.385350 -0.631315
O5    O     O_R   0.500000 0.683240 0.614650 -0.554865
O6    O     O_R   0.499980 0.683210 0.385310 -0.640659
O7    O     O_R   0.683240 0.500020 0.614650 -0.570504
O8    O     O_R   0.683230 0.499980 0.385310 -0.576943
Zn1   Zn    Zn3+2 0.500010 0.500020 0.653130 1.057333
Zn2   Zn    Zn3+2 0.499990 0.499980 0.346870 0.996106
O9    O     O_3   0.672188 0.850057 0.734069 -0.623139
C29   C     C_3   0.785248 0.896431 0.794984 -0.426441
H11   H     H_    0.841234 0.955568 0.723160 0.174787
H12   H     H_    0.841499 0.815997 0.818975 0.232172
H13   H     H_    0.770783 0.949155 0.890201 0.136109
O10   O     O_3   0.548047 0.143735 0.846993 -0.552356
C30   C     C_3   0.641248 0.180871 0.942641 -0.233037
H14   H     H_    0.623522 0.276044 0.979359 0.183365
H15   H     H_    0.739877 0.184324 0.904768 0.080928
H16   H     H_    0.633602 0.119257 0.030703 0.176689
O11   O     O_3   0.717673 0.555768 0.141776 -0.572412
C31   C     C_3   0.744417 0.685995 0.148718 -0.256529
H17   H     H_    0.822169 0.705748 0.220956 0.189356
H18   H     H_    0.662761 0.736195 0.186325 0.133606
H19   H     H_    0.776829 0.722512 0.049840 0.170898
O12   O     O_3   0.717978 0.560446 0.860498 -0.561679
C32   C     C_3   0.805547 0.467270 0.870505 -0.262433
H20   H     H_    0.779335 0.386711 0.802724 0.160004
H21   H     H_    0.817817 0.432940 0.973950 0.174252
H22   H     H_    0.898320 0.508435 0.837886 0.208640
O13   O     O_3   0.180387 0.425353 0.862304 -0.553517
C33   C     C_3   0.089373 0.324351 0.850630 -0.301104
H23   H     H_    0.023778 0.344331 0.768907 0.189548
H24   H     H_    0.034931 0.314729 0.945849 0.142043
H25   H     H_    0.129031 0.233394 0.823467 0.186407
C34   C     C_2   0.333539 0.248947 0.109336 1.001680
O14   O     O_2   0.440882 0.237387 0.144861 -0.593615
O15   O     O_R   0.251870 0.142443 0.099208 -0.741152
H26   H     H_    0.166603 0.161101 0.063071 0.279913
C35   C     C_2   0.206367 0.201680 0.469782 0.865757
O16   O     O_2   0.237845 0.236880 0.582604 -0.650343
O17   O     O_R   0.254372 0.093560 0.414451 -0.771465
H27   H     H_    0.294846 0.041854 0.484256 0.348403
O18   O     O_3   0.479628 0.895084 0.849359 -0.578856
C36   C     C_3   0.531623 0.846390 0.965214 -0.181075
H28   H     H_    0.594595 0.916186 0.018179 0.113866
H29   H     H_    0.581339 0.761799 0.940270 0.181341
H30   H     H_    0.454059 0.818577 0.035441 0.178304

loop_
_geom_bond_atom_site_label_1
_geom_bond_atom_site_label_2
_ccdc_geom_bond_type
C7    C13   A    
C33   H24   S    
C16   C21   S    
C1    C8    S    
C19   C20   S    
C14   O18   S    
C7    C8    A    
O7    Zn1   S    
C36   H28   S    
C21   C34   S    
C26   C27   A    
C34   O15   S    
C12   O3    A    
C5    C6    A    
C35   O16   D    
C30   H15   S    
N2    Zn1   S    
C5    H8    S    
O10   C30   S    
C17   N1    A    
C18   N2    A    
C31   H18   S    
C3    C12   S    
C17   O11   S    
C26   H6    S    
C6    C28   A    
C29   H12   S    
C8    C9    A    
C20   O13   S    
C9    C10   A    
C4    H1    S    
C29   H13   S    
O8    Zn2   S    
O12   C32   S    
C13   C14   S    
C33   H25   S    
O1    Zn1   S    
C24   C35   S    
C34   O14   D    
C36   H29   S    
C21   H4    S    
C23   O7    A    
C32   H20   S    
C24   C25   A    
C35   O17   S    
C19   N2    A    
O15   H26   S    
O3    Zn1   S    
C30   H16   S    
C27   H7    S    
C25   C26   A    
O9    C29   S    
C32   H21   S    
C31   H17   S    
C14   O9    S    
O5    Zn1   S    
N1    Zn2   S    
C9    H9    S    
C17   C18   A    
O18   C36   S    
O2    Zn2   S    
C1    O1    A    
C22   O6    A    
C2    C24   A    
C3    C4    A    
C29   H11   S    
C15   H2    S    
C36   H30   S    
O4    Zn2   S    
C23   O8    A    
C31   H19   S    
C33   H23   S    
C18   O12   S    
O6    Zn2   S    
C11   C22   S    
C10   H10   S    
C32   H22   S    
C15   O10   S    
C2    C3    A    
O13   C33   S    
C12   O4    A    
C11   C13   A    
C30   H14   S    
C16   C19   A    
C6    C23   S    
C7    C15   S    
O11   C31   S    
C10   C11   A    
C16   N1    A    
C1    O2    A    
C4    C5    A    
C22   O5    A    
C20   C21   S    
O17   H27   S    
C27   C28   A    
C14   C15   S    
C2    C28   A    
C25   H5    S    
C20   H3    S    
