data_mof_unit_36231.cif
_audit_creation_date              2012-12-11T14:07:23-0500
_audit_creation_method            fapswitch 2.2
_symmetry_space_group_name_H-M    P1
_symmetry_Int_Tables_number       1
_space_group_crystal_system       triclinic
_cell_length_a                    19.809691
_cell_length_b                    17.148965
_cell_length_c                    15.474388
_cell_angle_alpha                 89.893959
_cell_angle_beta                  53.306499
_cell_angle_gamma                 89.544751
_cell_volume                      4215.04414127

loop_
_atom_site_label
_atom_site_type_symbol
_atom_type_description
_atom_site_fract_x
_atom_site_fract_y
_atom_site_fract_z
_atom_type_partial_charge
C1    C     C_R   0.370880 0.195965 0.999530 -0.076761
C2    C     C_R   0.712534 0.854057 0.972574 0.126730
C3    C     C_R   0.173076 0.672840 0.043421 0.099800
C4    C     C_R   0.214976 0.357161 0.968667 0.129747
C5    C     C_R   0.626572 0.824175 0.687486 0.071820
C6    C     C_R   0.617911 0.179976 0.692379 0.052960
C7    C     C_R   0.115326 0.317831 0.693761 0.071875
C8    C     C_R   0.187687 0.640183 0.677772 0.160435
C9    C     C_3   0.189273 0.132180 0.519340 -0.318381
C10   C     C_3   0.258904 0.827269 0.511495 -0.334066
C11   C     C_3   0.690811 0.643017 0.512208 -0.319583
C12   C     C_R   0.340482 0.827324 0.051393 -0.020973
C13   C     C_3   0.700229 0.363663 0.518950 -0.330790
C14   C     C_3   0.130417 0.183320 0.620888 -0.470421
C15   C     C_3   0.207465 0.774916 0.609484 -0.464152
C16   C     C_3   0.633847 0.694950 0.612433 -0.470297
C17   C     C_3   0.640192 0.314421 0.620297 -0.472542
C18   C     C_3   0.308751 0.228751 0.439950 -0.604276
C19   C     C_3   0.380065 0.731294 0.417727 -0.545808
C20   C     C_3   0.818055 0.728303 0.443967 -0.600148
C21   C     C_3   0.814920 0.260271 0.438536 -0.577693
C22   C     C_3   0.717354 0.763574 0.399789 0.405261
C23   C     C_R   0.868576 0.694876 0.002354 -0.064106
C24   C     C_3   0.702134 0.251648 0.409504 0.478098
C25   C     C_3   0.197869 0.247645 0.409521 0.414774
C26   C     C_3   0.259411 0.717061 0.401924 0.472341
C27   C     C_3   0.250355 0.185098 0.420364 0.089589
C28   C     C_3   0.315563 0.776145 0.409494 0.052880
C29   C     C_3   0.759893 0.693988 0.416874 0.101492
C30   C     C_3   0.758030 0.308897 0.420284 0.050117
C31   C     C_3   0.673794 0.777146 0.590498 0.128608
C32   C     C_3   0.666804 0.226915 0.594668 0.092704
C33   C     C_3   0.162359 0.268875 0.596115 0.137566
C34   C     C_R   0.865831 0.307242 0.007703 -0.049935
C35   C     C_3   0.237450 0.687901 0.578829 0.064292
C36   C     C_3   0.765727 0.766668 0.554608 0.443895
C37   C     C_3   0.762029 0.220043 0.547630 0.474179
C38   C     C_3   0.257270 0.266822 0.551107 0.430009
C39   C     C_3   0.333972 0.684875 0.524063 0.443786
C40   C     C_R   0.387669 0.804922 0.213439 -0.062358
C41   C     C_R   0.350700 0.172440 0.218235 -0.082701
C42   C     C_R   0.855814 0.323183 0.219104 -0.060468
C43   C     C_R   0.854807 0.676459 0.217212 -0.068858
C44   C     C_3   0.672680 0.815685 0.499793 -0.545655
C45   C     C_R   0.669967 0.914141 0.048753 -0.111250
C46   C     C_3   0.651737 0.200671 0.510945 -0.506413
C47   C     C_3   0.151295 0.300166 0.510288 -0.548575
C48   C     C_3   0.219556 0.661749 0.497482 -0.495822
C49   C     C_2   0.235399 0.719467 0.037496 0.162494
C50   C     C_2   0.292291 0.316696 0.936283 0.187904
C51   C     C_2   0.778211 0.191880 0.963726 0.171712
C52   C     C_2   0.788673 0.813003 0.940627 0.188935
C53   C     C_2   0.774974 0.269730 0.955358 -0.274618
C54   C     C_2   0.785266 0.734594 0.937418 -0.261380
C55   C     C_2   0.226471 0.797943 0.039105 -0.280675
C56   C     C_R   0.665219 0.087845 0.057913 -0.121521
C57   C     C_2   0.291608 0.238171 0.928273 -0.274534
C58   C     C_R   0.331908 0.909273 0.947218 -0.153393
C59   C     C_R   0.361567 0.109333 0.901808 -0.130110
C60   C     C_R   0.854087 0.394529 0.911565 -0.140632
C61   C     C_R   0.858614 0.607590 0.905412 -0.106880
C62   C     C_R   0.357633 0.079443 0.314067 -0.121118
C63   C     C_R   0.392843 0.897597 0.310630 -0.117263
C64   C     C_R   0.862499 0.585949 0.315413 -0.132700
C65   C     C_R   0.865479 0.412480 0.316185 -0.125154
C66   C     C_R   0.341803 0.184650 0.939678 0.135464
C67   C     C_R   0.172051 0.417908 0.044275 -0.106821
C68   C     C_R   0.292183 0.847866 0.019533 0.181013
C69   C     C_R   0.837522 0.682214 0.945161 0.131405
C70   C     C_R   0.830493 0.321271 0.956037 0.170593
C71   C     C_R   0.362405 0.825093 0.314706 0.113292
C72   C     C_R   0.308288 0.140158 0.320362 0.136909
C73   C     C_R   0.816714 0.352699 0.321824 0.133839
C74   C     C_R   0.815438 0.647790 0.319811 0.122252
C75   C     C_R   0.660785 0.175191 0.951216 -0.112405
C76   C     C_R   0.662368 0.826330 0.945995 -0.097273
C77   C     C_R   0.135882 0.694477 0.995450 -0.163537
C78   C     C_R   0.145892 0.599157 0.088890 -0.133739
C79   C     C_R   0.163577 0.327870 0.944234 -0.117223
C80   C     C_R   0.609577 0.804314 0.785245 -0.093817
C81   C     C_R   0.605960 0.196742 0.787983 -0.127648
C82   C     C_R   0.104414 0.302104 0.788831 -0.131163
C83   C     C_R   0.149629 0.670368 0.780674 -0.158581
C84   C     C_R   0.596054 0.103710 0.694746 0.024527
C85   C     C_R   0.602247 0.899804 0.691442 -0.052465
C86   C     C_R   0.141221 0.576650 0.686463 -0.079404
C87   C     C_R   0.093230 0.394504 0.696488 -0.062912
C88   C     C_3   0.315891 0.629201 0.067900 -0.942758
C89   C     C_R   0.707794 0.148558 0.984304 0.097927
C90   C     C_3   0.381614 0.432318 0.863877 -0.870659
C91   C     C_3   0.841902 0.105530 0.023759 -0.967333
C92   C     C_3   0.882183 0.923997 0.850432 -0.844484
H1    H     H_    0.372846 0.250412 0.032767 0.088586
H2    H     H_    0.574228 0.322242 0.647907 0.228016
H3    H     H_    0.897939 0.908741 0.770460 0.293428
H4    H     H_    0.064804 0.181072 0.646171 0.227109
H5    H     H_    0.139450 0.780266 0.645063 0.228946
H6    H     H_    0.129389 0.158789 0.688182 0.149063
H7    H     H_    0.215581 0.797743 0.669793 0.147887
H8    H     H_    0.626264 0.666373 0.682258 0.149036
H9    H     H_    0.642620 0.336641 0.685736 0.150623
H10   H     H_    0.355652 0.188814 0.434831 0.184571
H11   H     H_    0.424395 0.772585 0.415082 0.207122
H12   H     H_    0.858463 0.683259 0.444615 0.180164
H13   H     H_    0.328987 0.781151 0.105355 0.151327
H14   H     H_    0.862041 0.297310 0.435978 0.192199
H15   H     H_    0.763705 0.725928 0.612312 0.049105
H16   H     H_    0.770630 0.252200 0.602906 0.050445
H17   H     H_    0.262718 0.228878 0.605258 0.056747
H18   H     H_    0.344812 0.714335 0.578813 0.064412
H19   H     H_    0.766355 0.800744 0.332414 0.031509
H20   H     H_    0.743093 0.210981 0.341096 0.026942
H21   H     H_    0.240824 0.286652 0.340564 0.032716
H22   H     H_    0.299486 0.680315 0.328564 0.030442
H23   H     H_    0.606718 0.828187 0.530210 0.197059
H24   H     H_    0.870039 0.749654 0.035306 0.091504
H25   H     H_    0.583157 0.202970 0.548831 0.215864
H26   H     H_    0.083089 0.304804 0.546749 0.193389
H27   H     H_    0.150484 0.658588 0.539118 0.216691
H28   H     H_    0.704895 0.872865 0.476482 0.200252
H29   H     H_    0.671581 0.139296 0.485682 0.184263
H30   H     H_    0.176997 0.359868 0.484477 0.188585
H31   H     H_    0.244515 0.602076 0.466813 0.199319
H32   H     H_    0.345220 0.273198 0.375587 0.217901
H33   H     H_    0.418754 0.692220 0.346378 0.223481
H34   H     H_    0.861630 0.770891 0.380209 0.220227
H35   H     H_    0.867607 0.253588 0.041869 0.121631
H36   H     H_    0.851299 0.216956 0.371847 0.226751
H37   H     H_    0.388100 0.747948 0.183568 0.072503
H38   H     H_    0.333981 0.223874 0.195029 0.102435
H39   H     H_    0.841329 0.270590 0.196036 0.086037
H40   H     H_    0.840106 0.728146 0.192154 0.107384
H41   H     H_    0.722956 0.298945 0.962723 0.130326
H42   H     H_    0.732613 0.705146 0.947741 0.131297
H43   H     H_    0.170634 0.825497 0.054585 0.141108
H44   H     H_    0.241837 0.208458 0.932056 0.134344
H45   H     H_    0.312618 0.939029 0.903476 0.105085
H46   H     H_    0.151784 0.094709 0.504298 0.233268
H47   H     H_    0.353979 0.082485 0.844917 0.095098
H48   H     H_    0.842613 0.422274 0.858566 0.098470
H49   H     H_    0.849545 0.580130 0.850189 0.098181
H50   H     H_    0.347590 0.046232 0.379947 0.090365
H51   H     H_    0.397530 0.925310 0.369448 0.083718
H52   H     H_    0.856564 0.559456 0.382672 0.086919
H53   H     H_    0.862537 0.437530 0.382049 0.084142
H54   H     H_    0.674550 0.222305 0.896725 0.100099
H55   H     H_    0.676140 0.780040 0.890489 0.111322
H56   H     H_    0.137327 0.750581 0.962525 0.093450
H57   H     H_    0.216844 0.866185 0.505267 0.228364
H58   H     H_    0.177750 0.282270 0.887676 0.113743
H59   H     H_    0.614280 0.747294 0.811161 0.072162
H60   H     H_    0.610987 0.252621 0.815645 0.077492
H61   H     H_    0.108865 0.245876 0.816774 0.085577
H62   H     H_    0.168695 0.720138 0.803134 0.096244
H63   H     H_    0.591356 0.072877 0.637811 0.077090
H64   H     H_    0.599316 0.932384 0.633966 0.092393
H65   H     H_    0.151414 0.540072 0.623056 0.133207
H66   H     H_    0.085422 0.424176 0.641318 0.090456
H67   H     H_    0.690220 0.940501 0.092727 0.112505
H68   H     H_    0.652594 0.612761 0.491775 0.233065
H69   H     H_    0.678937 0.063772 0.110148 0.118934
H70   H     H_    0.194107 0.449110 0.083314 0.106382
H71   H     H_    0.154583 0.571968 0.144618 0.122782
H72   H     H_    0.225570 0.092476 0.534820 0.138494
H73   H     H_    0.297948 0.865599 0.523143 0.140221
H74   H     H_    0.720072 0.597079 0.531133 0.136981
H75   H     H_    0.738478 0.400139 0.533837 0.138464
H76   H     H_    0.618823 0.852715 0.345473 0.327360
H77   H     H_    0.562358 0.257709 0.328014 0.391091
H78   H     H_    0.062315 0.315152 0.398790 0.332369
H79   H     H_    0.664049 0.404445 0.504608 0.226186
H80   H     H_    0.109340 0.721311 0.336486 0.386217
H81   H     H_    0.757219 0.939134 0.681281 0.400243
H82   H     H_    0.928172 0.074000 0.459253 0.416336
H83   H     H_    0.242346 0.422825 0.697460 0.380154
H84   H     H_    0.501828 0.543202 0.443570 0.405262
H85   H     H_    0.346481 0.662892 0.919250 0.181276
H86   H     H_    0.379966 0.627904 0.047470 0.249911
H87   H     H_    0.300951 0.569522 0.056765 0.249405
H88   H     H_    0.270723 0.647267 0.153536 0.295165
H89   H     H_    0.416448 0.324716 0.884185 0.165904
H90   H     H_    0.570013 0.699895 0.632090 0.230307
H91   H     H_    0.438168 0.457461 0.851858 0.238000
H92   H     H_    0.329127 0.474530 0.912547 0.247200
H93   H     H_    0.394858 0.424475 0.783744 0.287718
H94   H     H_    0.885778 0.125030 0.865500 0.187419
H95   H     H_    0.903392 0.101000 0.010486 0.257852
H96   H     H_    0.821894 0.045810 0.021810 0.255977
H97   H     H_    0.795385 0.132108 0.104468 0.270830
H98   H     H_    0.914372 0.820137 0.883603 0.171760
H99   H     H_    0.937534 0.952435 0.838030 0.238808
H100  H     H_    0.829261 0.966538 0.891335 0.245372
N1    N     N_R   0.408680 0.130160 0.995800 -0.046119
N2    N     N_R   0.403730 0.078230 0.935950 -0.045255
N3    N     N_R   0.903730 0.421770 0.935950 -0.043391
N4    N     N_R   0.903730 0.578230 0.935950 -0.043639
N5    N     N_R   0.426630 0.075970 0.212960 -0.045996
N6    N     N_R   0.426630 0.924030 0.212960 -0.036950
N7    N     N_R   0.926630 0.575970 0.212960 -0.041603
N8    N     N_R   0.926630 0.424030 0.212960 -0.039614
N9    N     N_R   0.591320 0.134600 0.004200 -0.046886
N10   N     N_R   0.591320 0.865400 0.004200 -0.054107
N11   N     N_R   0.091320 0.634600 0.004200 -0.036789
N12   N     N_R   0.408680 0.869840 0.995800 -0.068695
N13   N     N_R   0.091320 0.365400 0.004200 -0.050325
N14   N     N_R   0.578320 0.867660 0.846880 -0.039252
N15   N     N_R   0.578320 0.132340 0.846880 -0.034045
N16   N     N_R   0.078320 0.367660 0.846880 -0.046578
N17   N     N_R   0.078320 0.632340 0.846880 -0.048678
N18   N     N_R   0.573370 0.074390 0.787040 -0.043416
N19   N     N_R   0.573370 0.925610 0.787040 -0.049674
N20   N     N_R   0.073370 0.574390 0.787040 -0.062060
N21   N     N_R   0.073370 0.425610 0.787040 -0.056626
N22   N     N_R   0.596270 0.927870 0.064040 -0.047587
N23   N     N_R   0.908680 0.630160 0.995800 -0.047499
N24   N     N_R   0.596270 0.072130 0.064040 -0.045797
N25   N     N_R   0.096270 0.427870 0.064040 -0.046407
N26   N     N_R   0.096270 0.572130 0.064040 -0.044011
N27   N     N_2   0.314610 0.683477 0.997114 -0.116351
N28   N     N_2   0.362508 0.357900 0.918091 -0.117274
N29   N     N_2   0.851756 0.152844 0.939305 -0.113135
N30   N     N_2   0.861454 0.854188 0.914450 -0.119495
N31   N     N_R   0.908680 0.369840 0.995800 -0.052500
N32   N     N_R   0.421680 0.867580 0.153120 -0.045058
N33   N     N_R   0.421680 0.132420 0.153120 -0.054559
N34   N     N_R   0.921680 0.367580 0.153120 -0.051500
N35   N     N_R   0.921680 0.632420 0.153120 -0.054286
N36   N     N_R   0.403730 0.921770 0.935950 -0.053429
Ni1   Ni    Ni4+2 0.500000 0.131190 0.000000 0.225011
Ni2   Ni    Ni4+2 0.500000 0.868810 0.000000 0.223962
Ni3   Ni    Ni4+2 0.000000 0.631190 0.000000 0.219600
Ni4   Ni    Ni4+2 0.000000 0.368810 0.000000 0.227181
Ni5   Ni    Ni4+2 0.488650 0.000000 0.862740 0.218876
Ni6   Ni    Ni4+2 0.988650 0.500000 0.862740 0.217376
Ni7   Ni    Ni4+2 0.511350 0.000000 0.137260 0.238968
Ni8   Ni    Ni4+2 0.011350 0.500000 0.137260 0.239199
O1    O     O_2   0.675759 0.661768 0.301962 -0.237157
O2    O     O_2   0.104869 0.788314 0.504951 -0.268645
O3    O     O_2   0.211710 0.828999 0.319365 -0.297637
O4    O     O_3   0.144883 0.692704 0.351607 -0.560038
O5    O     O_2   0.909137 0.831366 0.503663 -0.218978
O6    O     O_2   0.817655 0.915694 0.487368 -0.260256
O7    O     O_3   0.774440 0.884511 0.679652 -0.531587
O8    O     O_2   0.770451 0.092196 0.645201 -0.303621
O9    O     O_2   0.780871 0.069274 0.480797 -0.289786
O10   O     O_3   0.909278 0.128155 0.461749 -0.449525
O11   O     O_2   0.398135 0.352880 0.467630 -0.187627
O12   O     O_2   0.559109 0.722889 0.469202 -0.278539
O13   O     O_2   0.272680 0.423224 0.514264 -0.293940
O14   O     O_3   0.279880 0.376511 0.669624 -0.507575
O15   O     O_2   0.334139 0.543268 0.602661 -0.268125
O16   O     O_2   0.377530 0.546326 0.416759 -0.247414
O17   O     O_3   0.480949 0.597447 0.452545 -0.432871
O18   O     O_3   0.643045 0.807137 0.296229 -0.524879
O19   O     O_2   0.559058 0.335740 0.484568 -0.258680
O20   O     O_2   0.679756 0.358957 0.297294 -0.285489
O21   O     O_3   0.598612 0.229384 0.342150 -0.545942
O22   O     O_2   0.168319 0.143611 0.302285 -0.241633
O23   O     O_2   0.048748 0.176151 0.486704 -0.272554
O24   O     O_3   0.098038 0.279068 0.337213 -0.501683
S1    S     S_3+6 0.646379 0.735415 0.367869 -0.038088
S2    S     S_3+6 0.633405 0.298232 0.383704 -0.037775
S3    S     S_3+6 0.126394 0.207864 0.384785 -0.021802
S4    S     S_3+6 0.178513 0.761005 0.395311 -0.051896
S5    S     S_3+6 0.818986 0.852399 0.553460 -0.014901
S6    S     S_3+6 0.803784 0.123241 0.535657 -0.023250
S7    S     S_3+6 0.303901 0.358138 0.547254 0.012173
S8    S     S_3+6 0.379928 0.588826 0.499645 0.015604

loop_
_geom_bond_atom_site_label_1
_geom_bond_atom_site_label_2
_ccdc_geom_bond_type
C80   H59   S    
C80   N14   A    
C40   H37   S    
N15   N18   A    
C52   N30   S    
N16   N21   A    
C40   C71   A    
O20   S2    D    
N14   Ni2   S    
C8    C83   A    
N24   Ni7   S    
C36   S5    S    
C23   C69   A    
O2    S4    D    
N22   Ni7   S    
C45   H67   S    
N1    Ni1   S    
C57   C66   S    
C91   H96   S    
C8    C86   A    
C48   H31   S    
C82   N16   A    
C55   C68   S    
C75   N9    A    
C2    C76   A    
C83   H62   S    
C23   N23   A    
C34   N31   A    
C16   C31   S    
C12   C68   A    
C57   H44   S    
N13   N25   A    
C40   N32   A    
N23   Ni3   S    
C19   C39   S    
C43   H40   S    
C22   C29   S    
C62   H50   S    
O14   S7    S    
O23   S3    D    
C10   C15   S    
H98   N30   S    
C59   C66   A    
N17   Ni3   S    
C12   H13   S    
C25   S3    S    
C84   H63   S    
C84   N18   A    
C13   H75   S    
C26   S4    S    
C44   H28   S    
C22   S1    S    
C61   C69   A    
O22   S3    D    
C54   H42   S    
C85   N19   A    
N17   N20   A    
C65   C73   A    
C22   H19   S    
C18   H10   S    
N18   Ni5   S    
C14   H4    S    
C17   H9    S    
C91   H95   S    
H84   O17   S    
C82   H61   S    
C19   H11   S    
N14   N19   A    
O16   S8    D    
C39   H18   S    
C22   C44   S    
O9    S6    D    
C44   H23   S    
C52   C54   D    
C34   H35   S    
C24   H20   S    
C11   H74   S    
N16   Ni4   S    
N3    Ni6   S    
C14   H6    S    
C42   H39   S    
C61   H49   S    
C59   H47   S    
C38   H17   S    
C91   N29   S    
C54   C69   S    
C25   C47   S    
C90   N28   S    
C21   H14   S    
C92   H99   S    
C26   C48   S    
N10   Ni2   S    
C5    C85   A    
C43   C74   A    
N9    Ni1   S    
C23   H24   S    
C78   H71   S    
C59   N2    A    
C6    C81   A    
C36   H15   S    
H77   O21   S    
C7    C33   S    
H85   N27   S    
O24   S3    S    
C53   C70   S    
C77   N11   A    
N25   Ni8   S    
C15   C35   S    
C43   N35   A    
C11   H68   S    
C88   H88   S    
C48   H27   S    
C41   N33   A    
C20   C29   S    
O6    S5    D    
C2    C45   A    
N5    Ni7   S    
C14   C33   S    
C7    C87   A    
C6    C84   A    
C75   H54   S    
O1    S1    D    
O21   S2    S    
C3    C49   S    
C38   S7    S    
O7    S5    S    
C13   C30   S    
C67   N25   A    
C53   H41   S    
O18   S1    S    
C4    C79   A    
C31   C44   S    
N4    N23   A    
C75   C89   A    
C39   S8    S    
C16   H8    S    
C47   H30   S    
C29   C74   S    
C64   H52   S    
C79   N13   A    
C42   N34   A    
C56   H69   S    
C19   H33   S    
C92   H3    S    
N33   Ni1   S    
N19   Ni5   S    
C46   H25   S    
C4    C50   S    
C47   H26   S    
C8    C35   S    
C1    C66   A    
C9    H72   S    
C1    N1    A    
C9    C14   S    
C26   H22   S    
N9    N24   A    
C20   H34   S    
N32   Ni2   S    
C49   N27   S    
C65   N8    A    
C91   H97   S    
C9    H46   S    
H81   O7    S    
C21   H36   S    
C77   H56   S    
O19   S2    D    
C60   C70   A    
H76   O18   S    
C9    C27   S    
H89   N28   S    
C16   H90   S    
C45   N22   A    
C87   N21   A    
C62   C72   A    
C46   H29   S    
C88   N27   S    
N8    N34   A    
C32   C37   S    
N10   N22   A    
C5    C80   A    
C19   C28   S    
C61   N4    A    
N36   Ni5   S    
C83   N17   A    
C2    C52   S    
C37   H16   S    
C79   H58   S    
C20   H12   S    
C25   H21   S    
H80   O4    S    
C58   H45   S    
C58   C68   A    
C56   C89   A    
H94   N29   S    
C63   C71   A    
N1    N2    A    
O17   S8    S    
N11   Ni3   S    
C41   C72   A    
N6    N32   A    
C33   C47   S    
O5    S5    D    
O3    S4    D    
C28   C71   S    
N12   N36   A    
C60   H48   S    
N2    Ni5   S    
C65   H53   S    
N21   Ni6   S    
C3    C77   A    
C58   N36   A    
N31   Ni4   S    
H82   O10   S    
C88   H87   S    
N34   Ni4   S    
O12   S1    D    
C10   C28   S    
C30   C73   S    
C34   C70   A    
C42   C73   A    
C63   H51   S    
N11   N26   A    
C50   C57   D    
C32   C46   S    
N15   Ni1   S    
C18   C27   S    
N8    Ni8   S    
C62   N5    A    
C15   H7    S    
H83   O14   S    
C4    C67   A    
N20   Ni6   S    
C76   H55   S    
C88   H86   S    
C86   N20   A    
C90   H93   S    
C13   C17   S    
C25   C27   S    
C81   H60   S    
C21   C30   S    
C15   H5    S    
C26   C28   S    
C33   C38   S    
C87   H66   S    
C81   N15   A    
N6    Ni7   S    
C24   C46   S    
O13   S7    D    
C92   N30   S    
C18   C38   S    
O11   S7    D    
C10   H57   S    
C49   C55   D    
N7    Ni8   S    
C63   N6    A    
N3    N31   A    
C67   H70   S    
N35   Ni3   S    
C41   H38   S    
C90   H92   S    
N4    Ni6   S    
C51   N29   S    
C10   H73   S    
C55   H43   S    
C35   C39   S    
C50   N28   S    
C51   C89   S    
O8    S6    D    
C37   S6    S    
C12   N12   A    
N12   Ni2   S    
C86   H65   S    
C24   C30   S    
C56   N24   A    
C11   C16   S    
C35   C48   S    
O4    S4    S    
N26   Ni8   S    
C20   C36   S    
C13   H79   S    
C7    C82   A    
C21   C37   S    
C90   H91   S    
C11   C29   S    
C1    H1    S    
C6    C32   S    
C64   N7    A    
C24   S2    S    
C76   N10   A    
C17   C32   S    
C64   C74   A    
C31   C36   S    
N13   Ni4   S    
H78   O24   S    
C17   H2    S    
C51   C53   D    
O10   S6    S    
C3    C78   A    
N7    N35   A    
O15   S8    D    
C85   H64   S    
C78   N26   A    
C27   C72   S    
C92   H100  S    
C60   N3    A    
C18   H32   S    
C5    C31   S    
N5    N33   A    
