data_mof_unit_64715.cif
_audit_creation_date              2012-10-26T21:26:35-0400
_audit_creation_method            fapswitch 2.2
_symmetry_space_group_name_H-M    P1
_symmetry_Int_Tables_number       1
_space_group_crystal_system       triclinic
_cell_length_a                    15.891371
_cell_length_b                    17.960262
_cell_length_c                    29.253655
_cell_angle_alpha                 89.975981
_cell_angle_beta                  90.212428
_cell_angle_gamma                 90.021092
_cell_volume                      8349.32021606

loop_
_atom_site_label
_atom_site_type_symbol
_atom_type_description
_atom_site_fract_x
_atom_site_fract_y
_atom_site_fract_z
_atom_type_partial_charge
C1    C     C_R   0.500074 0.389826 0.058808 0.543280
C2    C     C_1   0.369139 0.999676 0.766709 0.070494
C3    C     C_1   0.480864 0.876625 0.832349 0.175189
C4    C     C_1   0.480730 0.124138 0.831735 0.169442
C5    C     C_1   0.297618 0.999031 0.752727 0.168740
C6    C     C_1   0.554572 0.999015 0.708853 0.162405
C7    C     C_R   0.624982 0.100185 0.297776 -0.052684
C8    C     C_R   0.375067 0.976540 0.282661 -0.049300
C9    C     C_R   0.416904 0.091092 0.319879 -0.048605
C10   C     C_R   0.587698 0.969616 0.300411 -0.047711
C11   C     C_R   0.686313 0.088101 0.331202 0.362565
C12   C     C_R   0.500104 0.610014 0.058931 0.543439
C13   C     C_R   0.314568 0.964886 0.316573 0.362694
C14   C     C_R   0.356733 0.079401 0.353659 0.369519
C15   C     C_R   0.649063 0.957604 0.333957 0.367646
C16   C     C_R   0.572164 0.157749 0.201922 0.201386
C17   C     C_R   0.420272 0.996942 0.179228 0.200997
C18   C     C_R   0.430061 0.184938 0.228859 0.247605
C19   C     C_R   0.564730 0.954386 0.191711 0.251812
C20   C     C_R   0.579025 0.231679 0.186359 -0.111921
C21   C     C_R   0.413631 0.947936 0.141853 -0.110138
C22   C     C_R   0.439669 0.258686 0.213252 -0.107605
C23   C     C_R   0.602919 0.997938 0.667329 -0.083068
C24   C     C_R   0.555236 0.905586 0.154306 -0.105883
C25   C     C_R   0.499814 0.610652 0.941488 0.603318
C26   C     C_R   0.499797 0.389444 0.941416 0.604306
C27   C     C_3   0.498855 0.053867 0.248340 0.053822
C28   C     C_R   0.575597 0.040823 0.280506 -0.027022
C29   C     C_R   0.425501 0.041568 0.282518 -0.028702
C30   C     C_R   0.698462 0.016937 0.349443 0.049819
C31   C     C_R   0.304965 0.016561 0.351967 0.049603
C32   C     C_R   0.499548 0.134090 0.226665 0.110638
C33   C     C_R   0.495013 0.998964 0.206527 0.110233
C34   C     C_R   0.212634 0.997932 0.735409 -0.084113
C35   C     C_R   0.514236 0.282283 0.193275 -0.030773
C36   C     C_R   0.480218 0.901967 0.129882 -0.028332
C37   C     C_1   0.241697 0.006326 0.386480 0.102141
C38   C     C_1   0.759803 0.006367 0.385157 0.107108
C39   C     C_1   0.188348 0.001388 0.415469 0.064089
C40   C     C_1   0.812051 0.001330 0.414920 0.071990
C41   C     C_1   0.524120 0.358886 0.179704 0.000438
C42   C     C_1   0.472397 0.852298 0.091425 0.008791
C43   C     C_1   0.532520 0.423194 0.168785 0.030668
C44   C     C_1   0.465894 0.810798 0.059211 0.044794
C45   C     C_R   0.690332 0.993827 0.584454 -0.018439
C46   C     C_R   0.123858 0.000118 0.449551 0.548600
C47   C     C_R   0.875833 0.000095 0.449625 0.553801
C48   C     C_R   0.560003 0.794708 0.885151 0.226703
C49   C     C_R   0.422378 0.244596 0.855955 0.226120
C50   C     C_R   0.422670 0.755892 0.856212 0.223305
C51   C     C_R   0.560309 0.206232 0.884225 0.224165
C52   C     C_R   0.893126 0.999985 0.569403 0.614235
C53   C     C_R   0.107213 0.999997 0.569387 0.600422
C54   C     C_R   0.564805 0.728762 0.911456 0.312252
C55   C     C_R   0.427708 0.310035 0.882492 0.322744
C56   C     C_R   0.048203 0.994800 0.700602 0.017921
C57   C     C_R   0.428017 0.690241 0.882574 0.321895
C58   C     C_R   0.565106 0.271968 0.910701 0.313323
C59   C     C_R   0.645209 0.932858 0.654069 0.374256
C60   C     C_R   0.182790 0.057048 0.708426 0.363087
C61   C     C_R   0.159771 0.937239 0.744882 0.362892
C62   C     C_R   0.604997 0.061075 0.639027 0.373552
C63   C     C_R   0.688872 0.931029 0.612619 0.373181
C64   C     C_R   0.100565 0.055300 0.691114 0.352979
C65   C     C_R   0.077632 0.935881 0.727430 0.392046
C66   C     C_R   0.648811 0.058818 0.597640 0.386918
C67   C     C_1   0.471534 0.933031 0.810411 0.056703
C68   C     C_3   0.456624 0.000056 0.782810 -0.053664
C69   C     C_R   0.488373 0.808131 0.858092 0.014921
C70   C     C_R   0.488358 0.192643 0.857446 0.015291
C71   C     C_R   0.498414 0.676696 0.910800 -0.019925
C72   C     C_R   0.498370 0.323663 0.910519 -0.019181
C73   C     C_1   0.471395 0.067559 0.809980 0.057017
C74   C     C_1   0.511846 0.999657 0.742833 0.072300
Cu1   Cu    Cu3+1 0.415470 0.500000 0.000080 1.137646
Cu2   Cu    Cu3+1 0.584530 0.500000 0.000080 1.146539
Cu3   Cu    Cu3+1 0.000000 0.072960 0.508900 1.168306
Cu4   Cu    Cu3+1 0.000000 0.927040 0.508900 1.126967
F1    F     F_    0.632563 0.716986 0.938993 -0.593367
F2    F     F_    0.233241 0.116011 0.698835 -0.514019
F3    F     F_    0.187805 0.879537 0.770790 -0.519215
F4    F     F_    0.564003 0.124281 0.651270 -0.513511
F5    F     F_    0.732109 0.146695 0.346869 -0.585275
F6    F     F_    0.266224 0.902587 0.315161 -0.591827
F7    F     F_    0.349290 0.129481 0.388170 -0.579170
F8    F     F_    0.658886 0.888463 0.351959 -0.584005
F9    F     F_    0.364047 0.360500 0.880806 -0.571138
F10   F     F_    0.364664 0.639470 0.880507 -0.568834
F11   F     F_    0.633231 0.283865 0.937950 -0.593856
F12   F     F_    0.729565 0.868310 0.599502 -0.521150
F13   F     F_    0.071409 0.112154 0.665020 -0.533928
F14   F     F_    0.026329 0.877413 0.736402 -0.500800
F15   F     F_    0.650797 0.119448 0.570064 -0.512364
F16   F     F_    0.643391 0.871237 0.680957 -0.519257
H1    H     H_    0.635861 0.250140 0.169385 0.132321
H2    H     H_    0.311980 0.270556 0.831073 0.408190
H3    H     H_    0.312688 0.729662 0.830871 0.415657
H4    H     H_    0.670543 0.171032 0.904386 0.399065
H5    H     H_    0.682922 0.133384 0.177471 0.342079
H6    H     H_    0.306816 0.034708 0.168018 0.341036
H7    H     H_    0.311970 0.204014 0.243547 0.339107
H8    H     H_    0.683422 0.926680 0.197538 0.339349
H9    H     H_    0.356072 0.945789 0.121887 0.130319
H10   H     H_    0.388280 0.297994 0.216515 0.128562
H11   H     H_    0.607516 0.871089 0.143553 0.127776
H12   H     H_    0.614541 0.157082 0.287315 0.155505
H13   H     H_    0.383175 0.933278 0.257432 0.154029
H14   H     H_    0.456944 0.139694 0.322569 0.156535
H15   H     H_    0.548572 0.923207 0.289997 0.154777
H16   H     H_    0.669713 0.830321 0.905900 0.400543
O1    O     O_R   0.429360 0.416280 0.044700 -0.520867
O2    O     O_R   0.906590 0.940530 0.464300 -0.496791
O3    O     O_R   0.906590 0.059470 0.464300 -0.493234
O4    O     O_R   0.093410 0.940530 0.464300 -0.503959
O5    O     O_R   0.920740 0.061400 0.553530 -0.470645
O6    O     O_R   0.079260 0.938600 0.553530 -0.500049
O7    O     O_R   0.079260 0.061400 0.553530 -0.446884
O8    O     O_R   0.920740 0.938600 0.553530 -0.460167
O9    O     O_3   0.623444 0.847412 0.885706 -0.633432
O10   O     O_3   0.353271 0.229490 0.828595 -0.623923
O11   O     O_3   0.353834 0.770908 0.828631 -0.603304
O12   O     O_R   0.570640 0.583720 0.044700 -0.501368
O13   O     O_3   0.624059 0.153856 0.884365 -0.639325
O14   O     O_3   0.637546 0.108536 0.194962 -0.644007
O15   O     O_3   0.353549 0.042768 0.190022 -0.643613
O16   O     O_3   0.352456 0.162048 0.244701 -0.640849
O17   O     O_3   0.642849 0.961101 0.212158 -0.644255
O18   O     O_R   0.570640 0.416280 0.044700 -0.503921
O19   O     O_R   0.429360 0.583720 0.044700 -0.521527
O20   O     O_R   0.427420 0.583550 0.955440 -0.447665
O21   O     O_R   0.572580 0.416450 0.955440 -0.450165
O22   O     O_R   0.572580 0.583550 0.955440 -0.449895
O23   O     O_R   0.427420 0.416450 0.955440 -0.447031
O24   O     O_R   0.093410 0.059470 0.464300 -0.498248

loop_
_geom_bond_atom_site_label_1
_geom_bond_atom_site_label_2
_ccdc_geom_bond_type
C65   F14   S    
C8    C13   A    
C40   C47   S    
C26   C72   S    
C36   C42   S    
C1    O18   A    
C14   C31   A    
Cu1   Cu2   S    
C58   C72   A    
C4    C70   S    
C23   C59   A    
C22   H10   S    
C21   C36   A    
Cu3   Cu4   S    
C27   C33   S    
C9    H14   S    
C48   C54   A    
C22   C35   A    
C13   F6    S    
C24   C36   A    
C42   C44   T    
C8    C29   A    
C3    C69   S    
C50   C69   A    
Cu3   O7    S    
C10   C15   A    
Cu2   O21   S    
C53   O7    A    
C49   O10   S    
C27   C29   S    
C68   C74   S    
C56   C65   A    
C51   O13   S    
C30   C38   S    
C10   H15   S    
H3    O11   S    
C20   C35   A    
C23   C62   A    
C54   C71   A    
C11   C30   A    
C56   C64   A    
C25   C71   S    
C59   F16   S    
C48   C69   A    
C55   C72   A    
C53   O6    A    
C9    C29   A    
C62   F4    S    
C34   C60   A    
Cu1   O1    S    
C41   C43   T    
Cu4   O4    S    
C50   O11   S    
C17   C33   A    
Cu3   O3    S    
C25   O20   A    
H2    O10   S    
C6    C74   T    
C48   O9    S    
H4    O13   S    
Cu4   O6    S    
C12   O19   A    
C46   O4    A    
C67   C68   S    
H8    O17   S    
C19   C33   A    
C62   C66   A    
C11   F5    S    
C68   C73   S    
C49   C55   A    
Cu1   O19   S    
C45   C63   A    
C34   C61   A    
C17   C21   A    
C7    C28   A    
C31   C37   S    
C7    C11   A    
C9    C14   A    
C46   O24   A    
C16   C20   A    
C5    C34   S    
Cu1   O23   S    
H7    O16   S    
C7    H12   S    
C51   C58   A    
C57   C71   A    
C4    C73   T    
C39   C46   S    
C51   C70   A    
C20   H1    S    
C49   C70   A    
C66   F15   S    
Cu2   O18   S    
C2    C5    T    
C18   C32   A    
Cu3   O24   S    
C8    H13   S    
C27   C28   S    
C15   C30   A    
C54   F1    S    
C52   O5    A    
C10   C28   A    
C47   O3    A    
C60   F2    S    
Cu4   O8    S    
C27   C32   S    
C18   C22   A    
C50   C57   A    
C59   C63   A    
C13   C31   A    
C3    C67   T    
C14   F7    S    
H16   O9    S    
C15   F8    S    
Cu1   O20   S    
C16   C32   A    
C2    C68   S    
H6    O15   S    
C57   F10   S    
C60   C64   A    
Cu2   O12   S    
C19   C24   A    
C16   O14   S    
C37   C39   T    
C26   O23   A    
C61   F3    S    
C18   O16   S    
C38   C40   T    
Cu2   O22   S    
C17   O15   S    
C6    C23   S    
C63   F12   S    
C19   O17   S    
C55   F9    S    
C35   C41   S    
C58   F11   S    
C21   H9    S    
C61   C65   A    
C12   O12   A    
C45   C66   A    
Cu4   O2    S    
C24   H11   S    
C64   F13   S    
Cu3   O5    S    
C25   O22   A    
C1    O1    A    
C26   O21   A    
C47   O2    A    
H5    O14   S    
C52   O8    A    
