data_mof_unit_26453.cif
_audit_creation_date              2012-12-10T20:27:10-0500
_audit_creation_method            fapswitch 2.2
_symmetry_space_group_name_H-M    P1
_symmetry_Int_Tables_number       1
_space_group_crystal_system       triclinic
_cell_length_a                    10.536037
_cell_length_b                    10.705554
_cell_length_c                    10.009309
_cell_angle_alpha                 89.899112
_cell_angle_beta                  102.725829
_cell_angle_gamma                 92.147174
_cell_volume                      1100.46022369

loop_
_atom_site_label
_atom_site_type_symbol
_atom_type_description
_atom_site_fract_x
_atom_site_fract_y
_atom_site_fract_z
_atom_type_partial_charge
C1    C     C_R   0.508079 0.261208 0.502236 0.876737
C2    C     C_R   0.516900 0.129274 0.506134 -0.036729
C3    C     C_R   0.579151 0.066437 0.418354 -0.234911
C4    C     C_R   0.571502 0.936877 0.413845 -0.243702
C5    C     C_R   0.503689 0.871414 0.499529 -0.085287
C6    C     C_R   0.441567 0.934920 0.586523 0.010402
C7    C     C_3   0.458599 0.922723 0.739014 -0.002427
C8    C     C_3   0.485965 0.063238 0.746388 -0.006992
C9    C     C_R   0.388408 0.474722 0.044071 0.105400
C10   C     C_R   0.608574 0.533807 0.096503 -0.144917
C11   C     C_R   0.608909 0.532902 0.953758 -0.132046
C12   C     C_R   0.258711 0.506067 0.443098 0.935661
C13   C     C_R   0.385850 0.478985 0.902544 0.072988
C14   C     C_3   0.291728 0.366462 0.876924 -0.181577
C15   C     C_3   0.290391 0.367050 0.031383 0.250877
C16   C     C_R   0.501613 0.739317 0.500200 0.869248
C17   C     C_R   0.741221 0.511367 0.556250 0.930624
C18   C     C_2   0.121255 0.529630 0.410552 -0.387493
C19   C     C_2   0.070226 0.592485 0.499389 -0.181381
C20   C     C_2   0.878241 0.548479 0.584774 -0.383954
C21   C     C_2   0.930919 0.587412 0.481568 -0.149626
C22   C     C_R   0.454483 0.063033 0.593330 0.008005
H1    H     H_    0.873065 0.593996 0.377685 0.175649
H2    H     H_    0.697348 0.559735 0.169607 0.136342
H3    H     H_    0.698059 0.557787 0.921784 0.146169
H4    H     H_    0.342647 0.288934 0.842651 0.158543
H5    H     H_    0.129790 0.629496 0.594628 0.172881
H6    H     H_    0.936126 0.542355 0.688270 0.150326
H7    H     H_    0.060774 0.493399 0.315313 0.157736
H8    H     H_    0.635548 0.116889 0.356331 0.167755
H9    H     H_    0.621699 0.888136 0.347193 0.169037
H10   H     H_    0.540378 0.864894 0.790379 0.188363
H11   H     H_    0.414235 0.115899 0.786524 0.116883
N1    N     N_R   0.499160 0.499140 0.142600 -0.110843
N2    N     N_R   0.499160 0.499180 0.856960 -0.106142
O1    O     O_R   0.500020 0.316790 0.614700 -0.598548
O2    O     O_R   0.500000 0.316760 0.385350 -0.639917
O3    O     O_R   0.317820 0.500020 0.571850 -0.627442
O4    O     O_R   0.317800 0.499980 0.342510 -0.612681
O5    O     O_R   0.500000 0.683240 0.614650 -0.626282
O6    O     O_R   0.499980 0.683210 0.385300 -0.615186
O7    O     O_R   0.682200 0.500020 0.657490 -0.615545
O8    O     O_R   0.682180 0.499980 0.428150 -0.619157
Zn1   Zn    Zn3+2 0.500010 0.500020 0.653140 0.922963
Zn2   Zn    Zn3+2 0.499990 0.499980 0.346860 0.922230
N3    N     N_2   0.620884 0.104180 0.806637 -0.273584
H12   H     H_    0.635261 0.137672 0.905112 0.234767
C23   C     C_3   0.730102 0.033461 0.786432 -0.797400
H13   H     H_    0.820150 0.093870 0.812076 0.240716
H14   H     H_    0.717304 0.001973 0.679072 0.265176
H15   H     H_    0.743912 0.951747 0.855836 0.218566
C24   C     C_3   0.157602 0.377501 0.777982 -0.361208
C25   C     C_3   0.103179 0.247274 0.723773 -0.363486
C26   C     C_3   0.966690 0.251944 0.633127 -0.883905
H16   H     H_    0.898707 0.291306 0.691048 0.268363
H17   H     H_    0.968453 0.309350 0.541063 0.275232
H18   H     H_    0.930792 0.155899 0.598816 0.247039
H19   H     H_    0.168400 0.207257 0.662679 0.214177
H20   H     H_    0.100391 0.183076 0.810292 0.218754
H21   H     H_    0.086366 0.425097 0.824229 0.225501
H22   H     H_    0.167675 0.434082 0.690542 0.238070
N4    N     N_2   0.169418 0.411048 0.061764 -0.305629
H23   H     H_    0.173005 0.496426 0.110189 0.239121
C27   C     C_3   0.069221 0.323235 0.086674 -0.852704
H24   H     H_    0.977006 0.372486 0.078866 0.237385
H25   H     H_    0.098080 0.283920 0.191207 0.237498
H26   H     H_    0.050530 0.246816 0.009732 0.252300
C28   C     C_3   0.333362 0.241162 0.100705 -0.341071
C29   C     C_3   0.470310 0.200440 0.092881 -0.379683
C30   C     C_3   0.475037 0.057944 0.093038 -0.916198
H27   H     H_    0.576977 0.028470 0.106712 0.249953
H28   H     H_    0.430699 0.017688 0.174745 0.288573
H29   H     H_    0.416893 0.019448 0.995699 0.286827
H30   H     H_    0.500253 0.236613 0.001144 0.198848
H31   H     H_    0.544452 0.240099 0.179104 0.253923
H32   H     H_    0.324229 0.242376 0.208651 0.224473
H33   H     H_    0.261126 0.168464 0.048954 0.194703
N5    N     N_2   0.335618 0.890858 0.776690 -0.328925
H34   H     H_    0.252383 0.920158 0.710894 0.228640
C31   C     C_3   0.323287 0.768254 0.833287 -0.783563
H35   H     H_    0.231067 0.759482 0.869510 0.224754
H36   H     H_    0.405506 0.753646 0.922007 0.250582
H37   H     H_    0.321505 0.696143 0.753759 0.271379

loop_
_geom_bond_atom_site_label_1
_geom_bond_atom_site_label_2
_ccdc_geom_bond_type
C25   H20   S    
C7    C8    S    
C25   C26   S    
C19   C21   S    
C13   N2    A    
C24   H22   S    
C5    C6    A    
N5    C31   S    
C11   H3    S    
C6    C22   A    
C17   C20   S    
C18   C19   D    
C9    C13   A    
C17   O7    A    
C5    C16   S    
N4    C27   S    
C24   H21   S    
N3    H12   S    
C23   H15   S    
C14   C24   S    
C28   C29   S    
C2    C22   A    
C8    C22   S    
C30   H27   S    
C19   H5    S    
C1    O2    A    
O4    Zn2   S    
C23   H14   S    
C13   C14   S    
O7    Zn1   S    
C31   H37   S    
N3    C23   S    
C26   H17   S    
C27   H26   S    
C31   H36   S    
N1    Zn2   S    
N5    H34   S    
C31   H35   S    
C20   H6    S    
C10   H2    S    
C27   H25   S    
C3    H8    S    
C17   O8    A    
O3    Zn1   S    
N4    H23   S    
C30   H29   S    
C29   H30   S    
C10   N1    A    
C18   H7    S    
C14   H4    S    
N2    Zn1   S    
O8    Zn2   S    
C16   O5    A    
C7    N5    S    
C23   H13   S    
C21   H1    S    
C9    N1    A    
O1    Zn1   S    
O2    Zn2   S    
C3    C4    A    
C24   C25   S    
C28   H33   S    
C26   H16   S    
C7    H10   S    
C4    C5    A    
C25   H19   S    
C6    C7    S    
C28   H32   S    
C27   H24   S    
C12   O4    A    
C11   N2    A    
C2    C3    A    
C9    C15   S    
C15   C28   S    
C1    C2    S    
C15   N4    S    
C29   H31   S    
C8    H11   S    
C12   O3    A    
C29   C30   S    
C8    N3    S    
C4    H9    S    
C10   C11   A    
O5    Zn1   S    
C20   C21   D    
C12   C18   S    
O6    Zn2   S    
C14   C15   S    
C30   H28   S    
C16   O6    A    
C1    O1    A    
C26   H18   S    
