data_mof_unit_46764.cif
_audit_creation_date              2012-12-10T18:21:24-0500
_audit_creation_method            fapswitch 2.2
_symmetry_space_group_name_H-M    P1
_symmetry_Int_Tables_number       1
_space_group_crystal_system       triclinic
_cell_length_a                    14.993914
_cell_length_b                    14.012582
_cell_length_c                    10.766596
_cell_angle_alpha                 89.954654
_cell_angle_beta                  92.047504
_cell_angle_gamma                 89.762043
_cell_volume                      2260.63422118

loop_
_atom_site_label
_atom_site_type_symbol
_atom_type_description
_atom_site_fract_x
_atom_site_fract_y
_atom_site_fract_z
_atom_type_partial_charge
C1    C     C_R   0.326808 0.500081 0.496389 0.844139
C2    C     C_R   0.053835 0.426087 0.700625 0.395086
C3    C     C_R   0.096990 0.462697 0.595814 0.026191
C4    C     C_R   0.496985 0.500112 0.257773 0.952095
C5    C     C_R   0.046399 0.499484 0.492604 -0.088401
C6    C     C_R   0.088667 0.535067 0.385570 0.058261
C7    C     C_R   0.035191 0.568401 0.282593 0.238283
C8    C     C_R   0.942805 0.572451 0.291039 -0.308048
C9    C     C_R   0.189089 0.461387 0.590421 -0.319121
C10   C     C_R   0.231075 0.499612 0.489466 -0.158054
C11   C     C_R   0.182502 0.535714 0.385028 0.396766
C12   C     C_3   0.588571 0.536344 0.937352 0.768804
C13   C     C_R   0.574886 0.798422 0.469367 -0.039430
C14   C     C_R   0.575312 0.200978 0.471394 -0.059620
C15   C     C_R   0.424625 0.797840 0.531175 -0.023178
C16   C     C_R   0.423906 0.202739 0.527785 -0.054953
C17   C     C_R   0.421534 0.898790 0.532144 -0.073186
C18   C     C_R   0.420791 0.101797 0.530108 -0.083444
C19   C     C_R   0.673004 0.499970 0.498437 0.887809
C20   C     C_R   0.498559 0.949463 0.501030 0.031993
C21   C     C_R   0.498445 0.050581 0.500971 0.047414
C22   C     C_R   0.576126 0.898844 0.469741 0.043606
C23   C     C_R   0.809733 0.538729 0.399319 -0.295354
C24   C     C_R   0.576290 0.100571 0.470773 0.039875
C25   C     C_R   0.343570 0.949666 0.562399 0.181909
C26   C     C_R   0.342526 0.050913 0.559426 0.140618
C27   C     C_R   0.653178 0.049402 0.440294 -0.202407
C28   C     C_R   0.653027 0.949405 0.439465 -0.204213
C29   C     C_R   0.499523 0.499497 0.742877 0.922998
C30   C     C_3   0.411845 0.557554 0.068486 0.166518
C31   C     C_3   0.492352 0.394858 0.074432 0.127210
C32   C     C_3   0.419392 0.574299 0.923323 0.276788
C33   C     C_3   0.471375 0.391844 0.931995 0.304617
C34   C     C_R   0.768374 0.500373 0.501164 -0.155820
C35   C     C_3   0.580891 0.548476 0.079260 -0.452824
C36   C     C_3   0.494965 0.500551 0.121827 -0.102713
C37   C     C_3   0.495175 0.498700 0.879838 -0.145270
C38   C     C_3   0.070912 0.514747 0.079261 -0.695927
C39   C     C_3   0.264030 0.877865 0.728704 -0.810217
C40   C     C_3   0.205942 0.127628 0.485739 -0.781769
C41   C     C_3   0.256653 0.611942 0.890290 -0.828350
C42   C     C_3   0.339295 0.314353 0.814122 -0.791606
C43   C     C_3   0.452641 0.757146 0.961448 -0.612314
C44   C     C_3   0.608749 0.294736 0.845991 -0.500589
C45   C     C_R   0.817883 0.462318 0.603141 0.390440
C46   C     C_R   0.910689 0.460828 0.599629 -0.005796
C47   C     C_R   0.953113 0.499381 0.495919 -0.005412
C48   C     C_R   0.901904 0.537853 0.395594 0.124963
C49   C     C_R   0.961551 0.423476 0.699711 -0.164811
H1    H     H_    0.230061 0.431741 0.665000 0.171571
H2    H     H_    0.438737 0.356156 0.123287 0.077003
H3    H     H_    0.581204 0.624878 0.105733 0.179439
H4    H     H_    0.640261 0.517188 0.129783 0.185632
H5    H     H_    0.769665 0.567467 0.321874 0.144239
H6    H     H_    0.929957 0.394066 0.780155 0.221350
H7    H     H_    0.334622 0.659833 0.126095 0.364751
H8    H     H_    0.561670 0.282362 0.127508 0.333388
H9    H     H_    0.150207 0.432875 0.824126 0.332594
H10   H     H_    0.287231 0.549701 0.283761 0.327757
H11   H     H_    0.044265 0.654177 0.128404 0.215675
H12   H     H_    0.902587 0.599121 0.212615 0.145358
H13   H     H_    0.002225 0.486070 0.065261 0.230607
H14   H     H_    0.116563 0.456867 0.112937 0.260429
H15   H     H_    0.092817 0.540224 0.987970 0.230307
H16   H     H_    0.206759 0.926932 0.562837 0.256685
H17   H     H_    0.205384 0.832432 0.746735 0.243990
H18   H     H_    0.258587 0.945034 0.782811 0.253526
H19   H     H_    0.325271 0.838716 0.760159 0.234789
H20   H     H_    0.272231 0.153483 0.655461 0.227911
H21   H     H_    0.143087 0.158858 0.519468 0.252936
H22   H     H_    0.188883 0.064623 0.427163 0.241205
H23   H     H_    0.633689 0.758802 0.444507 0.136259
H24   H     H_    0.239363 0.181766 0.428301 0.237613
H25   H     H_    0.335727 0.542357 0.766666 0.223151
H26   H     H_    0.236632 0.598677 0.986547 0.270209
H27   H     H_    0.199137 0.593983 0.826995 0.233249
H28   H     H_    0.271217 0.688697 0.877606 0.248710
H29   H     H_    0.334231 0.374265 0.989086 0.211077
H30   H     H_    0.265461 0.316763 0.811671 0.255459
H31   H     H_    0.358322 0.238752 0.830672 0.226451
H32   H     H_    0.362175 0.338688 0.723409 0.278263
H33   H     H_    0.420302 0.690978 0.796966 0.240927
H34   H     H_    0.634503 0.240127 0.448273 0.153026
H35   H     H_    0.479382 0.816244 0.905047 0.197592
H36   H     H_    0.500970 0.746790 0.040127 0.273317
H37   H     H_    0.386395 0.780573 0.992918 0.225070
H38   H     H_    0.494474 0.244438 0.918664 0.206925
H39   H     H_    0.616904 0.222668 0.804812 0.165549
H40   H     H_    0.655090 0.297925 0.928241 0.280482
H41   H     H_    0.627447 0.344712 0.772880 0.281801
H42   H     H_    0.666695 0.648350 0.925177 0.312392
H43   H     H_    0.714553 0.498227 0.947976 0.336094
H44   H     H_    0.718834 0.459793 0.712684 0.356653
H45   H     H_    0.366759 0.756871 0.554880 0.173631
H46   H     H_    0.365542 0.244379 0.546997 0.151172
H47   H     H_    0.713413 0.086756 0.416763 0.146774
H48   H     H_    0.713140 0.911585 0.415309 0.141385
H49   H     H_    0.353456 0.511092 0.085009 0.083739
N1    N     N_R   0.500070 0.750030 0.500050 -0.107387
N2    N     N_R   0.500070 0.249970 0.500050 -0.106200
N3    N     N_2   0.072044 0.593006 0.167042 -0.252756
N4    N     N_2   0.266236 0.898793 0.597324 -0.303426
N5    N     N_2   0.262991 0.099852 0.590954 -0.309925
N6    N     N_2   0.332818 0.552958 0.861060 -0.323099
N7    N     N_2   0.374204 0.375284 0.913207 -0.340293
N8    N     N_2   0.444293 0.672396 0.884681 -0.228115
N9    N     N_2   0.516499 0.306911 0.879338 -0.250811
O1    O     O_R   0.367860 0.580280 0.500020 -0.622749
O2    O     O_3   0.574380 0.349868 0.106427 -0.724577
O3    O     O_3   0.098672 0.391023 0.805051 -0.788022
O4    O     O_3   0.224632 0.571926 0.283132 -0.769778
O5    O     O_3   0.611368 0.624295 0.882699 -0.759530
O6    O     O_3   0.657125 0.471065 0.915937 -0.783281
O7    O     O_3   0.777833 0.428927 0.707935 -0.785974
O8    O     O_R   0.367860 0.419720 0.500020 -0.649470
O9    O     O_R   0.500000 0.580270 0.314790 -0.571261
O10   O     O_R   0.500000 0.419730 0.314790 -0.617288
O11   O     O_R   0.632160 0.580270 0.499960 -0.624778
O12   O     O_R   0.632160 0.419730 0.499960 -0.619114
O13   O     O_R   0.500030 0.580270 0.685200 -0.598188
O14   O     O_R   0.500030 0.419730 0.685200 -0.620931
O15   O     O_3   0.398425 0.641833 0.136023 -0.744788
Zn1   Zn    Zn3+2 0.500020 0.607200 0.499990 0.979859
Zn2   Zn    Zn3+2 0.500020 0.392800 0.499990 0.940212

loop_
_geom_bond_atom_site_label_1
_geom_bond_atom_site_label_2
_ccdc_geom_bond_type
C28   H48   S    
C4    C36   S    
C42   H31   S    
O9    Zn1   S    
C35   H4    S    
C18   C21   A    
C39   H19   S    
C35   C36   S    
C18   C26   A    
C24   C27   A    
C15   H45   S    
C7    C8    A    
O12   Zn2   S    
C5    C47   A    
C46   C49   A    
C40   H21   S    
C23   H5    S    
H29   N7    S    
C14   H34   S    
N1    Zn1   S    
C40   H22   S    
O10   Zn2   S    
C12   O6    S    
C38   N3    S    
C41   H28   S    
C5    C6    A    
C25   N4    S    
C17   C20   A    
C40   H24   S    
C14   C24   A    
C12   C37   S    
O14   Zn2   S    
C45   O7    S    
H8    O2    S    
C30   O15   S    
C19   O11   A    
C29   O14   A    
H10   O4    S    
C31   C33   S    
O8    Zn2   S    
H43   O6    S    
O13   Zn1   S    
C8    H12   S    
H44   O7    S    
C19   O12   A    
C42   H30   S    
C22   C28   A    
C43   H35   S    
C27   H47   S    
C42   H32   S    
H16   N4    S    
C38   H15   S    
H20   N5    S    
C29   O13   A    
C1    C10   S    
C11   O4    S    
C43   H36   S    
C33   N7    S    
C33   N9    S    
C15   N1    A    
C6    C11   A    
C16   N2    A    
C25   C26   A    
C49   H6    S    
C33   C37   S    
N2    Zn2   S    
C43   N8    S    
H7    O15   S    
H42   O5    S    
C13   N1    A    
C8    C48   A    
C3    C9    A    
C2    C49   A    
C26   N5    S    
C41   H26   S    
C47   C48   A    
C23   C34   A    
C32   N6    S    
C31   O2    S    
C34   C45   A    
C32   C37   S    
C12   C35   S    
C20   C22   A    
C39   H17   S    
C4    O10   A    
O1    Zn1   S    
H11   N3    S    
C12   O5    S    
C44   H41   S    
C39   N4    S    
H25   N6    S    
C38   H14   S    
C9    C10   A    
C44   N9    S    
C15   C17   A    
C46   C47   A    
C2    O3    S    
C16   H46   S    
C23   C48   A    
H9    O3    S    
C43   H37   S    
C39   H18   S    
C4    O9    A    
C9    H1    S    
C31   H2    S    
C3    C5    A    
C19   C34   S    
C14   N2    A    
C6    C7    A    
C13   H23   S    
C30   H49   S    
C41   N6    S    
C30   C36   S    
C17   C25   A    
C2    C3    A    
C40   N5    S    
C30   C32   S    
C41   H27   S    
C13   C22   A    
O11   Zn1   S    
H33   N8    S    
C42   N7    S    
C10   C11   A    
C1    O1    A    
C45   C46   A    
H38   N9    S    
C20   C21   A    
C16   C18   A    
C7    N3    S    
C21   C24   A    
C29   C37   S    
C35   H3    S    
C31   C36   S    
C32   N8    S    
C1    O8    A    
C38   H13   S    
C44   H39   S    
C44   H40   S    
C27   C28   A    
