data_mof_unit_46407.cif
_audit_creation_date              2012-12-11T15:09:37-0500
_audit_creation_method            fapswitch 2.2
_symmetry_space_group_name_H-M    P1
_symmetry_Int_Tables_number       1
_space_group_crystal_system       triclinic
_cell_length_a                    20.927479
_cell_length_b                    7.127244
_cell_length_c                    14.001902
_cell_angle_alpha                 89.599783
_cell_angle_beta                  98.021891
_cell_angle_gamma                 90.460182
_cell_volume                      2067.91828906

loop_
_atom_site_label
_atom_site_type_symbol
_atom_type_description
_atom_site_fract_x
_atom_site_fract_y
_atom_site_fract_z
_atom_type_partial_charge
O1    O     O_R   0.447130 0.507140 0.597350 -0.521813
O2    O     O_R   0.552870 0.007140 0.402650 -0.551350
O3    O     O_R   0.578910 0.181280 0.586990 -0.540431
O4    O     O_R   0.421090 0.681280 0.413010 -0.534429
C1    C     C_R   0.604461 0.344693 0.607485 0.730738
C2    C     C_R   0.395590 0.844311 0.392406 0.735159
O5    O     O_R   0.449230 0.177860 0.608640 -0.555762
O6    O     O_R   0.550770 0.677860 0.391360 -0.526458
O7    O     O_R   0.422260 0.000770 0.424450 -0.536195
O8    O     O_R   0.577740 0.500770 0.575550 -0.530862
C3    C     C_R   0.433423 0.345191 0.635610 0.806853
C4    C     C_R   0.566512 0.847626 0.364441 0.805404
O9    O     O_3   0.491310 0.336980 0.439550 -0.383286
O10   O     O_3   0.508690 0.836980 0.560450 -0.383480
V1    V     V_3+5 0.501610 0.064760 0.511210 1.461874
V2    V     V_3+5 0.498390 0.564760 0.488790 1.515502
C5    C     C_R   0.618033 0.960789 0.122169 0.323098
C6    C     C_R   0.382527 0.280264 0.882443 0.315558
C7    C     C_R   0.605259 0.863372 0.285244 -0.235817
C8    C     C_R   0.394894 0.347486 0.715383 -0.232058
C9    C     C_R   0.917331 0.823952 0.302817 -0.253022
C10   C     C_R   0.082428 0.375391 0.695821 -0.253406
C11   C     C_R   0.879549 0.818463 0.376611 0.680567
C12   C     C_R   0.120166 0.365858 0.622155 0.681093
C13   C     C_R   0.812883 0.836889 0.356020 -0.115118
C14   C     C_R   0.186960 0.353022 0.643567 -0.115276
C15   C     C_R   0.781687 0.855244 0.259803 -0.031323
C16   C     C_R   0.218275 0.355425 0.740149 -0.032299
C17   C     C_R   0.821117 0.875488 0.185153 -0.154303
C18   C     C_R   0.178983 0.350013 0.815497 -0.155664
C19   C     C_R   0.712957 0.865589 0.236477 -0.129332
C20   C     C_R   0.287082 0.351548 0.763825 -0.129705
C21   C     C_R   0.685433 0.926265 0.142465 -0.252052
C22   C     C_R   0.314981 0.310304 0.860465 -0.253357
C23   C     C_R   0.726065 0.953262 0.071243 0.607633
C24   C     C_R   0.274589 0.298075 0.932865 0.603781
C25   C     C_R   0.791784 0.920109 0.090904 0.496147
C26   C     C_R   0.208646 0.325999 0.911602 0.495255
C27   C     C_R   0.670551 0.817960 0.303508 0.555915
C28   C     C_R   0.329175 0.386448 0.694626 0.554400
C29   C     C_R   0.578761 0.937684 0.195247 0.121423
C30   C     C_R   0.421904 0.292751 0.808940 0.116472
C31   C     C_R   0.889124 0.855638 0.207783 -0.143817
C32   C     C_R   0.110843 0.364138 0.791991 -0.144706
H1    H     H_    0.969170 0.809034 0.320131 0.153924
H2    H     H_    0.030496 0.386084 0.677834 0.154532
H3    H     H_    0.787527 0.846224 0.417567 0.211723
H4    H     H_    0.212401 0.331358 0.582920 0.212279
C33   C     C_1   0.166770 0.857758 0.167931 -0.091737
C34   C     C_1   0.833231 0.356595 0.832072 -0.088002
C35   C     C_1   0.219238 0.855287 0.218844 0.081701
C36   C     C_1   0.780773 0.354552 0.781134 0.081973
C37   C     C_1   0.281012 0.853322 0.278812 0.061441
C38   C     C_1   0.719021 0.353612 0.721121 0.058366
C39   C     C_1   0.333313 0.850689 0.330150 -0.145284
C40   C     C_1   0.666733 0.351576 0.669744 -0.148807
O11   O     O_R   0.922300 0.202240 0.924350 -0.509965
O12   O     O_R   0.077700 0.702240 0.075650 -0.528359
O13   O     O_R   0.050780 0.535130 0.891350 -0.545494
O14   O     O_R   0.949220 0.035130 0.108650 -0.530457
C41   C     C_R   0.067945 0.369117 0.865892 0.832476
C42   C     C_R   0.932124 0.867122 0.134108 0.833509
O15   O     O_R   0.921100 0.531560 0.912990 -0.537943
O16   O     O_R   0.078900 0.031560 0.087010 -0.519090
O17   O     O_R   0.947120 0.708470 0.097370 -0.542799
O18   O     O_R   0.052880 0.208470 0.902630 -0.528088
C43   C     C_R   0.895810 0.363344 0.893569 0.710557
C44   C     C_R   0.104187 0.863807 0.106425 0.708449
O19   O     O_3   0.008710 0.375800 0.060400 -0.374661
O20   O     O_3   0.991290 0.875800 0.939600 -0.376144
V3    V     V_3+5 0.998380 0.648080 0.988790 1.565972
V4    V     V_3+5 0.001620 0.148080 0.011210 1.612100
N1    N     N_2   0.512320 0.987290 0.176614 -0.523914
H5    H     H_    0.497272 0.071427 0.228627 0.261465
C45   C     C_3   0.468650 0.831801 0.150862 -0.557339
H6    H     H_    0.468022 0.734695 0.213124 0.178492
H7    H     H_    0.483364 0.753628 0.089449 0.200538
H8    H     H_    0.419094 0.885798 0.129116 0.226235
N2    N     N_2   0.488896 0.251529 0.830698 -0.523459
H9    H     H_    0.504265 0.149712 0.787373 0.258477
C46   C     C_3   0.531219 0.413877 0.840276 -0.544634
H10   H     H_    0.534541 0.477776 0.768653 0.175195
H11   H     H_    0.580258 0.370523 0.873211 0.225865
H12   H     H_    0.513307 0.520822 0.886970 0.193560
F1    F     F_    0.703135 0.012722 0.980730 -0.641539
F2    F     F_    0.298107 0.260406 0.026297 -0.635744
N3    N     N_2   0.590024 0.028273 0.029767 -0.436874
H13   H     H_    0.556918 0.134388 0.030155 0.277701
C47   C     C_3   0.571532 0.886253 0.957329 -0.393677
H14   H     H_    0.518410 0.865750 0.946673 0.139989
H15   H     H_    0.595229 0.749693 0.977499 0.179514
H16   H     H_    0.586096 0.933333 0.887768 0.228352
N4    N     N_2   0.410111 0.222787 0.976860 -0.434373
H17   H     H_    0.442231 0.113651 0.978783 0.273012
C48   C     C_3   0.432780 0.373372 0.042003 -0.391840
H18   H     H_    0.481593 0.420326 0.029623 0.148099
H19   H     H_    0.435767 0.321983 0.117471 0.208617
H20   H     H_    0.399109 0.494143 0.032898 0.201298
F3    F     F_    0.690680 0.719953 0.385564 -0.699884
F4    F     F_    0.308252 0.465919 0.607573 -0.699114
F5    F     F_    0.907831 0.798522 0.469315 -0.649247
F6    F     F_    0.091745 0.365871 0.528966 -0.648215
F7    F     F_    0.826417 0.940860 0.016375 -0.661075
F8    F     F_    0.174213 0.321015 0.986914 -0.659202

loop_
_geom_bond_atom_site_label_1
_geom_bond_atom_site_label_2
_ccdc_geom_bond_type
N3    H13   S    
N4    H17   S    
C33   C44   S    
C15   C17   A    
N1    H5    S    
C1    C40   S    
C48   H18   S    
O1    C3    A    
C2    C39   S    
O2    C4    A    
C2    O7    A    
C46   H10   S    
C48   H20   S    
O5    C3    A    
O16   C44   A    
C23   C25   A    
C12   C14   A    
C6    C30   A    
C8    C28   A    
O12   V3    S    
O14   V4    S    
C18   C26   A    
O14   C42   A    
O19   V3    S    
C26   F8    S    
C9    C31   A    
C41   O18   A    
O18   V4    S    
C16   C18   A    
C33   C35   T    
C34   C36   T    
C19   C21   A    
O20   V3    S    
C47   H15   S    
C34   C43   S    
C13   H3    S    
C12   F6    S    
C14   H4    S    
C20   C28   A    
C30   N2    S    
N4    C48   S    
C17   C31   A    
N1    C45   S    
C18   C32   A    
C5    C21   A    
O11   C43   A    
C46   H11   S    
C36   C38   S    
C9    H1    S    
C37   C39   T    
C38   C40   T    
C3    C8    S    
O13   C41   A    
C15   C19   A    
C16   C20   A    
O4    C2    A    
N2    C46   S    
C24   F2    S    
O17   V3    S    
C35   C37   S    
C20   C22   A    
O4    V2    S    
O19   V4    S    
C45   H6    S    
O15   C43   A    
C45   H7    S    
C27   F3    S    
O6    C4    A    
O1    V2    S    
C47   H16   S    
O2    V1    S    
C6    C22   A    
C7    C27   A    
O12   C44   A    
C10   H2    S    
O15   V3    S    
C9    C11   A    
C10   C12   A    
C24   C26   A    
C46   H12   S    
O3    V1    S    
C25   F7    S    
C10   C32   A    
C42   O17   A    
C5    N3    S    
O3    C1    A    
C28   F4    S    
C8    C30   A    
C48   H19   S    
C32   C41   S    
C13   C15   A    
C14   C16   A    
N3    C47   S    
O7    V1    S    
C1    O8    A    
O8    V2    S    
C23   F1    S    
C11   F5    S    
C4    C7    S    
O5    V1    S    
C21   C23   A    
C19   C27   A    
C22   C24   A    
O16   V4    S    
O11   V4    S    
C45   H8    S    
C5    C29   A    
C29   N1    S    
N2    H9    S    
C11   C13   A    
O6    V2    S    
O9    V2    S    
C17   C25   A    
C6    N4    S    
O10   V1    S    
O20   V4    S    
C47   H14   S    
C7    C29   A    
C31   C42   S    
O13   V3    S    
