data_mof_unit_37756.cif
_audit_creation_date              2012-12-11T14:03:27-0500
_audit_creation_method            fapswitch 2.2
_symmetry_space_group_name_H-M    P1
_symmetry_Int_Tables_number       1
_space_group_crystal_system       triclinic
_cell_length_a                    6.96108
_cell_length_b                    11.403652
_cell_length_c                    18.676818
_cell_angle_alpha                 90.00002
_cell_angle_beta                  93.101349
_cell_angle_gamma                 90.0
_cell_volume                      1480.42677783

loop_
_atom_site_label
_atom_site_type_symbol
_atom_type_description
_atom_site_fract_x
_atom_site_fract_y
_atom_site_fract_z
_atom_type_partial_charge
O1    O     O_R   0.330540 0.606360 0.598870 -0.536843
O2    O     O_R   0.669460 0.106360 0.401130 -0.536843
O3    O     O_R   0.026770 0.620470 0.750430 -0.545874
O4    O     O_R   0.973230 0.120470 0.249570 -0.545874
O5    O     O_R   0.856460 0.393640 0.750930 -0.547489
O6    O     O_R   0.143540 0.893640 0.249070 -0.547488
C1    C     C_R   0.198862 0.648521 0.774274 0.735235
C2    C     C_R   0.801138 0.148521 0.225726 0.735235
O7    O     O_R   0.000920 0.620350 0.599420 -0.548078
O8    O     O_R   0.999080 0.120350 0.400580 -0.548078
O9    O     O_R   0.830430 0.393520 0.598850 -0.537081
O10   O     O_R   0.169570 0.893520 0.401150 -0.537081
C3    C     C_R   0.166553 0.647842 0.574546 0.765609
C4    C     C_R   0.833446 0.147842 0.425453 0.765609
O11   O     O_R   0.356570 0.606480 0.750960 -0.535300
O12   O     O_R   0.643430 0.106480 0.249040 -0.535301
O13   O     O_3   0.176990 0.425580 0.674890 -0.379944
O14   O     O_3   0.823010 0.925580 0.325110 -0.379944
V1    V     V_3+5 0.902170 0.513810 0.674910 1.394128
V2    V     V_3+5 0.097830 0.013810 0.325090 1.394128
O15   O     O_R   0.500800 0.379530 0.599380 -0.549172
O16   O     O_R   0.499200 0.879530 0.400620 -0.549172
C5    C     C_R   0.666451 0.352017 0.574530 0.763968
C6    C     C_R   0.333549 0.852017 0.425470 0.763969
O17   O     O_R   0.526650 0.379650 0.750390 -0.538897
O18   O     O_R   0.473350 0.879650 0.249610 -0.538897
C7    C     C_R   0.699168 0.352022 0.774500 0.698552
C8    C     C_R   0.300832 0.852022 0.225500 0.698552
V3    V     V_3+5 0.402160 0.486190 0.674900 1.403923
V4    V     V_3+5 0.597840 0.986190 0.325100 1.403923
O19   O     O_3   0.677210 0.574420 0.674910 -0.371544
O20   O     O_3   0.322790 0.074420 0.325090 -0.371544
C9    C     C_R   0.740459 0.073932 0.880963 -0.077624
C10   C     C_R   0.259541 0.573932 0.119037 -0.077624
H1    H     H_    0.700215 0.115538 0.769190 0.092434
H2    H     H_    0.299786 0.615538 0.230810 0.092434
H3    H     H_    0.790649 0.944726 0.997576 0.121946
H4    H     H_    0.209351 0.444726 0.002424 0.121946
H5    H     H_    0.745031 0.980440 0.870651 0.106518
H6    H     H_    0.254970 0.480440 0.129348 0.106518
C11   C     C_R   0.717998 0.270824 0.834932 -0.074710
C12   C     C_R   0.282001 0.770824 0.165068 -0.074710
C13   C     C_R   0.760202 0.350402 0.184026 -0.352243
C14   C     C_R   0.239798 0.850402 0.815974 -0.352243
C15   C     C_R   0.726604 0.435760 0.130684 0.436860
C16   C     C_R   0.273397 0.935760 0.869317 0.436860
C17   C     C_R   0.713700 0.401262 0.057462 0.354797
C18   C     C_R   0.286299 0.901262 0.942538 0.354797
C19   C     C_R   0.748722 0.281489 0.038070 -0.090924
C20   C     C_R   0.251277 0.781489 0.961930 -0.090923
C21   C     C_R   0.778494 0.197281 0.094278 -0.008642
C22   C     C_R   0.221506 0.697281 0.905722 -0.008642
C23   C     C_R   0.746755 0.240143 0.965077 0.082792
C24   C     C_R   0.253245 0.740143 0.034923 0.082792
C25   C     C_R   0.754458 0.117302 0.951393 0.119761
C26   C     C_R   0.245542 0.617302 0.048607 0.119760
C27   C     C_R   0.780249 0.038087 0.007777 -0.140681
C28   C     C_R   0.219751 0.538088 0.992223 -0.140680
C29   C     C_R   0.795998 0.077352 0.077803 -0.145208
C30   C     C_R   0.204001 0.577352 0.922196 -0.145209
C31   C     C_R   0.742351 0.315147 0.904645 -0.182316
C32   C     C_R   0.257648 0.815147 0.095355 -0.182316
C33   C     C_R   0.716048 0.150316 0.823166 -0.133297
C34   C     C_R   0.283952 0.650316 0.176834 -0.133297
C35   C     C_R   0.783370 0.233150 0.166579 -0.131630
C36   C     C_R   0.216629 0.733150 0.833420 -0.131631
H7    H     H_    0.764583 0.407935 0.909075 0.156802
H8    H     H_    0.235416 0.907935 0.090925 0.156802
H9    H     H_    0.758433 0.373728 0.240185 0.130223
H10   H     H_    0.241567 0.873728 0.759815 0.130223
H11   H     H_    0.818323 0.011670 0.119271 0.115279
H12   H     H_    0.181676 0.511670 0.880729 0.115280
C37   C     C_2   0.831854 0.233728 0.484783 -0.352641
C38   C     C_2   0.168146 0.733728 0.515217 -0.352641
H13   H     H_    0.968983 0.270661 0.504022 0.150097
H14   H     H_    0.031016 0.770661 0.495978 0.150097
C39   C     C_2   0.668064 0.266106 0.515216 -0.352365
C40   C     C_2   0.331936 0.766106 0.484784 -0.352365
H15   H     H_    0.530936 0.229168 0.495980 0.150476
H16   H     H_    0.469064 0.729169 0.504020 0.150476
O21   O     O_3   0.630361 0.477617 0.006728 -0.559815
C41   C     C_3   0.729113 0.586031 0.003951 -0.164627
H17   H     H_    0.754546 0.607171 0.947271 0.123878
H18   H     H_    0.869583 0.587507 0.034647 0.128034
H19   H     H_    0.638331 0.656912 0.024561 0.193060
O22   O     O_3   0.369637 0.977617 0.993272 -0.559814
C42   C     C_3   0.270885 0.086031 0.996049 -0.164626
H20   H     H_    0.245448 0.107170 0.052728 0.123877
H21   H     H_    0.130417 0.087508 0.965352 0.128035
H22   H     H_    0.361669 0.156912 0.975440 0.193059
O23   O     O_3   0.679966 0.551039 0.147537 -0.547369
C43   C     C_3   0.782901 0.593625 0.209387 -0.253300
H23   H     H_    0.932985 0.560125 0.214613 0.120655
H24   H     H_    0.704786 0.572102 0.257986 0.135677
H25   H     H_    0.790849 0.690593 0.205649 0.176907
O24   O     O_3   0.320034 0.051039 0.852463 -0.547368
C44   C     C_3   0.217100 0.093625 0.790613 -0.253301
H26   H     H_    0.067016 0.060126 0.785387 0.120655
H27   H     H_    0.295215 0.072102 0.742014 0.135677
H28   H     H_    0.209152 0.190593 0.794351 0.176908

loop_
_geom_bond_atom_site_label_1
_geom_bond_atom_site_label_2
_ccdc_geom_bond_type
C9    C25   A    
C42   H20   S    
C10   C26   A    
O13   V3    S    
C14   C36   A    
C11   C31   A    
O4    C2    A    
V1    O19   S    
C44   H26   S    
C17   C19   A    
O9    V1    S    
C9    H5    S    
C38   H14   S    
C10   H6    S    
O16   C6    A    
O3    C1    A    
C40   H16   S    
C27   C29   A    
C30   H12   S    
C28   C30   A    
C21   C35   A    
C15   C17   A    
C8    C12   S    
C31   H7    S    
O7    C3    A    
C22   C30   A    
H4    C28   S    
C23   C31   A    
O7    V1    S    
O6    C8    A    
O8    V2    S    
C19   C21   A    
C20   C22   A    
O3    V1    S    
O14   V4    S    
C12   C32   A    
C9    C33   A    
C39   H15   S    
C2    C35   S    
C2    O12   A    
O5    C7    A    
C37   H13   S    
C15   O23   S    
C10   C34   A    
C44   H27   S    
C14   C16   A    
O11   V3    S    
C21   C29   A    
C16   C18   A    
C23   C25   A    
O17   V3    S    
C24   C26   A    
C4    C37   S    
O8    C4    A    
O23   C43   S    
O22   C42   S    
C1    O11   A    
C24   C32   A    
O15   V3    S    
C43   H25   S    
O21   C41   S    
C7    C11   S    
C13   C35   A    
O24   C44   S    
O10   V2    S    
O1    V3    S    
C20   C24   A    
C5    C39   S    
C14   H10   S    
C18   C20   A    
C13   C15   A    
C6    C40   S    
O18   V4    S    
C41   H18   S    
C25   C27   A    
C18   O22   S    
O1    C3    A    
C11   C33   A    
C12   C34   A    
C44   H28   S    
C22   C36   A    
V2    O20   S    
O16   V4    S    
O5    V1    S    
O17   C7    A    
C41   H19   S    
O6    V2    S    
O10   C6    A    
O18   C8    A    
C32   H8    S    
O2    V4    S    
O15   C5    A    
V3    O19   S    
C1    C36   S    
V4    O20   S    
C43   H24   S    
C19   C23   A    
O9    C5    A    
C43   H23   S    
O13   V1    S    
C26   C28   A    
O14   V2    S    
C17   O21   S    
O2    C4    A    
O4    V2    S    
C16   O24   S    
C3    C38   S    
C13   H9    S    
C41   H17   S    
C38   C40   D    
C42   H22   S    
C42   H21   S    
C37   C39   D    
H1    C33   S    
H2    C34   S    
O12   V4    S    
H3    C27   S    
C29   H11   S    
