data_mof_unit_10968.cif
_audit_creation_date              2012-12-10T21:25:18-0500
_audit_creation_method            fapswitch 2.2
_symmetry_space_group_name_H-M    P1
_symmetry_Int_Tables_number       1
_space_group_crystal_system       triclinic
_cell_length_a                    10.727577
_cell_length_b                    17.602828
_cell_length_c                    16.721505
_cell_angle_alpha                 90.964944
_cell_angle_beta                  90.438239
_cell_angle_gamma                 90.12899
_cell_volume                      3157.06789072

loop_
_atom_site_label
_atom_site_type_symbol
_atom_type_description
_atom_site_fract_x
_atom_site_fract_y
_atom_site_fract_z
_atom_type_partial_charge
C1    C     C_R   0.504612 0.353234 0.499186 0.911037
C2    C     C_R   0.578222 0.231948 0.432772 -0.145067
C3    C     C_R   0.519433 0.728539 0.503048 -0.194986
C4    C     C_R   0.520388 0.270876 0.497618 -0.197923
C5    C     C_R   0.440277 0.770689 0.454825 -0.261516
C6    C     C_R   0.479617 0.231284 0.564131 -0.306535
C7    C     C_R   0.446030 0.849209 0.455813 0.448472
C8    C     C_R   0.491529 0.153257 0.567381 0.373291
C9    C     C_R   0.537248 0.885901 0.503452 -0.183365
C10   C     C_R   0.545249 0.113964 0.502524 -0.156050
C11   C     C_1   0.541832 0.966187 0.503716 0.263504
C12   C     C_R   0.505162 0.646498 0.500826 0.915669
C13   C     C_1   0.544376 0.033640 0.503082 0.259473
C14   C     C_R   0.395077 0.472133 0.831033 0.309563
C15   C     C_R   0.598989 0.536503 0.169707 0.377194
C16   C     C_R   0.259441 0.501529 0.499394 0.888071
C17   C     C_R   0.740071 0.495851 0.500252 0.865155
C18   C     C_R   0.397929 0.473965 0.746594 -0.072877
C19   C     C_R   0.593802 0.536246 0.254112 -0.085311
C20   C     C_R   0.602341 0.523898 0.749377 -0.000895
C21   C     C_R   0.408739 0.463147 0.250162 0.005720
C22   C     C_R   0.603930 0.523749 0.833510 -0.318004
C23   C     C_R   0.872136 0.491231 0.499936 -0.102516
C24   C     C_R   0.408841 0.462594 0.166014 -0.339705
C25   C     C_R   0.499804 0.497939 0.875617 -0.003582
C26   C     C_R   0.504185 0.499464 0.124548 -0.023013
C27   C     C_1   0.502080 0.498293 0.963528 0.119944
C28   C     C_1   0.503154 0.498632 0.036639 0.146254
C29   C     C_R   0.234733 0.654998 0.290840 -0.087020
C30   C     C_R   0.745299 0.324597 0.685905 -0.095228
C31   C     C_R   0.186097 0.624779 0.361035 -0.080384
C32   C     C_R   0.799432 0.360772 0.620912 -0.068086
C33   C     C_R   0.114159 0.558046 0.357563 0.118783
C34   C     C_R   0.126928 0.500129 0.497737 -0.096516
C35   C     C_R   0.881786 0.422188 0.633432 0.110230
C36   C     C_R   0.088811 0.523490 0.282704 -0.152572
C37   C     C_R   0.911748 0.445060 0.712265 -0.145309
C38   C     C_R   0.135984 0.554525 0.212763 -0.069156
C39   C     C_R   0.857864 0.408512 0.777096 -0.062650
C40   C     C_R   0.209614 0.619967 0.216883 -0.085189
C41   C     C_R   0.774141 0.348621 0.763921 -0.108494
C42   C     C_R   0.931306 0.521624 0.433703 -0.258630
C43   C     C_R   0.067850 0.467371 0.563013 -0.235940
C44   C     C_R   0.693505 0.719831 0.604295 0.168054
C45   C     C_R   0.939842 0.461097 0.564597 -0.003393
C46   C     C_R   0.797620 0.683011 0.571380 -0.093861
C47   C     C_R   0.886946 0.650555 0.621589 -0.100435
C48   C     C_R   0.871934 0.653694 0.704530 -0.120838
C49   C     C_R   0.766868 0.688616 0.737488 -0.124735
C50   C     C_R   0.677336 0.721173 0.687583 -0.028814
C51   C     C_R   0.623706 0.273990 0.362587 0.195454
C52   C     C_R   0.734581 0.316440 0.367845 -0.070979
C53   C     C_R   0.776989 0.356147 0.301664 -0.092928
C54   C     C_R   0.709870 0.353175 0.229727 -0.102044
C55   C     C_R   0.599525 0.310982 0.224062 -0.117603
C56   C     C_R   0.058753 0.526015 0.430994 0.001421
C57   C     C_R   0.555907 0.271868 0.290391 -0.040191
C58   C     C_R   0.621765 0.844702 0.551147 0.334832
C59   C     C_R   0.592697 0.152386 0.435775 0.326595
C60   C     C_R   0.609795 0.764800 0.552635 -0.135826
H1    H     H_    0.247215 0.643539 0.162759 0.168760
H2    H     H_    0.681249 0.277781 0.675813 0.143523
H3    H     H_    0.204161 0.652978 0.417976 0.120701
H4    H     H_    0.776794 0.341102 0.560982 0.094480
H5    H     H_    0.032781 0.472397 0.278545 0.135240
H6    H     H_    0.976199 0.491476 0.723520 0.149349
H7    H     H_    0.116308 0.527460 0.155432 0.184437
H8    H     H_    0.880558 0.426916 0.837568 0.184605
H9    H     H_    0.877872 0.544486 0.384263 0.181627
H10   H     H_    0.121918 0.444275 0.611988 0.179034
H11   H     H_    0.371331 0.741968 0.418040 0.182863
H12   H     H_    0.731931 0.320686 0.814162 0.152798
H13   H     H_    0.436109 0.261544 0.613401 0.204464
H14   H     H_    0.174516 0.874259 0.324604 0.406124
H15   H     H_    0.465986 0.191418 0.745603 0.346235
H16   H     H_    0.348322 0.332752 0.914105 0.359070
H17   H     H_    0.742590 0.661883 0.026815 0.391715
H18   H     H_    0.844649 0.960807 0.529382 0.376467
H19   H     H_    0.815644 0.041000 0.413342 0.370041
H20   H     H_    0.811972 0.682172 0.507322 0.129600
H21   H     H_    0.969079 0.624321 0.596300 0.148843
H22   H     H_    0.941761 0.629256 0.743320 0.149017
H23   H     H_    0.318427 0.454039 0.712116 0.171286
H24   H     H_    0.755155 0.690794 0.801715 0.157661
H25   H     H_    0.597766 0.749700 0.713775 0.157875
H26   H     H_    0.788219 0.318480 0.422839 0.102380
H27   H     H_    0.862102 0.388952 0.306141 0.129346
H28   H     H_    0.743101 0.383780 0.178472 0.168405
H29   H     H_    0.547411 0.308963 0.168390 0.158595
H30   H     H_    0.469926 0.239706 0.285552 0.152387
H31   H     H_    0.665608 0.564493 0.289310 0.174542
H32   H     H_    0.683709 0.542396 0.717617 0.158706
H33   H     H_    0.335468 0.433936 0.281453 0.150389
H34   H     H_    0.686491 0.543332 0.865451 0.182948
H35   H     H_    0.334911 0.433245 0.133515 0.208369
H36   H     H_    0.291443 0.705785 0.293252 0.183727
N1    N     N_R   0.500030 0.500030 0.707230 -0.111067
N2    N     N_R   0.499970 0.499970 0.292770 -0.110957
O1    O     O_R   0.500000 0.389130 0.566570 -0.619567
O2    O     O_2   0.405479 0.938253 0.330590 -0.221034
O3    O     O_3   0.228016 0.841522 0.358014 -0.576114
O4    O     O_2   0.328385 0.055662 0.628893 -0.198953
O5    O     O_2   0.538128 0.057410 0.686894 -0.227903
O6    O     O_3   0.388427 0.168323 0.723592 -0.502174
O7    O     O_2   0.198706 0.502184 0.922957 -0.259108
O8    O     O_2   0.170104 0.403570 0.819346 -0.308500
O9    O     O_3   0.301398 0.371207 0.945526 -0.525569
O10   O     O_2   0.810081 0.619455 0.182931 -0.290633
O11   O     O_2   0.797648 0.522634 0.075872 -0.328071
O12   O     O_R   0.500000 0.610870 0.433430 -0.613764
O13   O     O_3   0.669870 0.646583 0.059007 -0.532768
O14   O     O_2   0.683828 0.909995 0.691848 -0.192016
O15   O     O_2   0.852628 0.845267 0.621807 -0.271019
O16   O     O_3   0.782875 0.975479 0.570506 -0.520283
O17   O     O_2   0.566022 0.076926 0.296225 -0.192027
O18   O     O_2   0.760317 0.147895 0.313244 -0.280047
O19   O     O_3   0.737313 0.022163 0.388256 -0.525493
O20   O     O_R   0.499990 0.389100 0.433480 -0.615675
O21   O     O_R   0.500010 0.610900 0.566520 -0.607092
O22   O     O_R   0.316760 0.500020 0.566540 -0.628897
O23   O     O_R   0.683240 0.499980 0.433460 -0.635313
O24   O     O_R   0.316760 0.499990 0.433460 -0.621227
O25   O     O_R   0.683240 0.500010 0.566540 -0.623390
O26   O     O_2   0.274807 0.959715 0.448325 -0.259923
S1    S     S_3+6 0.337239 0.900215 0.397133 0.054727
S2    S     S_3+6 0.436160 0.105925 0.652970 0.079338
S3    S     S_3+6 0.260595 0.437520 0.879077 0.019616
S4    S     S_3+6 0.725420 0.581393 0.122342 0.004670
S5    S     S_3+6 0.738044 0.893108 0.610942 0.077183
S6    S     S_3+6 0.665269 0.100546 0.355475 0.064525
Zn1   Zn    Zn3+2 0.500010 0.500020 0.588860 0.958084
Zn2   Zn    Zn3+2 0.499990 0.499980 0.411140 0.954280

loop_
_geom_bond_atom_site_label_1
_geom_bond_atom_site_label_2
_ccdc_geom_bond_type
C30   C32   A    
C59   S6    S    
C34   C56   A    
C23   C45   A    
O22   Zn1   S    
C39   H8    S    
C14   C18   A    
C1    O1    A    
C12   O12   A    
C39   C41   A    
C53   C54   A    
C15   C19   A    
C20   H32   S    
C17   C23   S    
C23   C42   A    
O15   S5    D    
C49   H24   S    
C35   C37   A    
C24   C26   A    
C16   O22   A    
C58   S5    S    
C58   C60   A    
C33   C36   A    
C9    C58   A    
H17   O13   S    
O5    S2    D    
C16   O24   A    
C3    C12   S    
C50   H25   S    
C16   C34   S    
C46   C47   A    
C17   O25   A    
C20   N1    A    
C22   C25   A    
O21   Zn1   S    
C31   C33   A    
C30   C41   A    
O12   Zn2   S    
C51   C57   A    
C18   N1    A    
O14   S5    D    
C42   C56   A    
C3    C60   A    
C33   C56   S    
C38   C40   A    
C22   H34   S    
O6    S2    S    
H18   O16   S    
O24   Zn2   S    
C19   N2    A    
C44   C46   A    
C57   H30   S    
O7    S3    D    
O2    S1    D    
C32   C35   A    
C31   H3    S    
C19   H31   S    
C32   H4    S    
C4    C6    A    
C24   H35   S    
C5    C7    A    
C36   H5    S    
C15   C26   A    
C6    C8    A    
O4    S2    D    
O8    S3    D    
C42   H9    S    
O10   S4    D    
C14   S3    S    
C51   C52   A    
C2    C4    A    
H16   O9    S    
C12   O21   A    
C9    C11   S    
O11   S4    D    
O3    S1    S    
C47   C48   A    
C37   H6    S    
C18   H23   S    
C5    H11   S    
C53   H27   S    
C7    S1    S    
O19   S6    S    
C43   C45   A    
N1    Zn1   S    
H14   O3    S    
C17   O23   A    
C48   C49   A    
C20   C22   A    
C43   H10   S    
C15   S4    S    
C30   H2    S    
H15   O6    S    
O16   S5    S    
O23   Zn2   S    
C36   C38   A    
C35   C45   S    
O13   S4    S    
C52   C53   A    
C6    H13   S    
C44   C50   A    
C7    C9    A    
C54   C55   A    
O25   Zn1   S    
C2    C59   A    
C41   H12   S    
C8    C10   A    
C34   C43   A    
C3    C5    A    
C10   C13   S    
C29   H36   S    
C25   C27   S    
C26   C28   S    
O1    Zn1   S    
C1    C4    S    
C54   H28   S    
C55   C57   A    
C10   C59   A    
O9    S3    S    
C29   C31   A    
C46   H20   S    
C21   N2    A    
C11   C13   T    
C21   H33   S    
C44   C60   S    
H19   O19   S    
C29   C40   A    
C52   H26   S    
C48   H22   S    
C1    O20   A    
C47   H21   S    
C14   C25   A    
C55   H29   S    
O20   Zn2   S    
C2    C51   S    
C40   H1    S    
O18   S6    D    
C38   H7    S    
C37   C39   A    
C49   C50   A    
C21   C24   A    
N2    Zn2   S    
C27   C28   T    
C8    S2    S    
O26   S1    D    
O17   S6    D    
