data_mof_unit_68088.cif
_audit_creation_date              2012-12-11T15:31:32-0500
_audit_creation_method            fapswitch 2.2
_symmetry_space_group_name_H-M    P1
_symmetry_Int_Tables_number       1
_space_group_crystal_system       triclinic
_cell_length_a                    6.964131
_cell_length_b                    14.757047
_cell_length_c                    21.388036
_cell_angle_alpha                 74.139278
_cell_angle_beta                  89.987128
_cell_angle_gamma                 89.98611
_cell_volume                      2114.36640075

loop_
_atom_site_label
_atom_site_type_symbol
_atom_type_description
_atom_site_fract_x
_atom_site_fract_y
_atom_site_fract_z
_atom_type_partial_charge
O1    O     O_R   0.648150 0.130050 0.214300 -0.534833
O2    O     O_R   0.351850 0.869950 0.785700 -0.532579
O3    O     O_R   0.320490 0.006660 0.340150 -0.546375
O4    O     O_R   0.679510 0.993340 0.659850 -0.539581
O5    O     O_R   0.146100 0.869940 0.285700 -0.544088
O6    O     O_R   0.853900 0.130060 0.714300 -0.545411
C1    C     C_R   0.488748 0.002878 0.366745 0.764357
C2    C     C_R   0.511517 0.998032 0.633129 0.768804
O7    O     O_R   0.318690 0.137980 0.218120 -0.560394
O8    O     O_R   0.681310 0.862020 0.781880 -0.547457
O9    O     O_R   0.144280 0.002190 0.162800 -0.534171
O10   O     O_R   0.855720 0.997810 0.837200 -0.537203
C3    C     C_R   0.486626 0.175989 0.205123 0.841371
C4    C     C_R   0.513520 0.823226 0.791814 0.826898
O11   O     O_R   0.649960 0.997790 0.337200 -0.539047
O12   O     O_R   0.350040 0.002210 0.662800 -0.542876
O13   O     O_3   0.479300 0.955290 0.231990 -0.368183
O14   O     O_3   0.520700 0.044710 0.768010 -0.368717
V1    V     V_3+5 0.206040 0.008290 0.253340 1.435080
V2    V     V_3+5 0.793960 0.991710 0.746660 1.459857
O15   O     O_R   0.814320 0.993320 0.159850 -0.529073
O16   O     O_R   0.185680 0.006680 0.840150 -0.528628
C5    C     C_R   0.982731 0.999439 0.132827 0.742082
C6    C     C_R   0.016941 0.002282 0.866854 0.741487
O17   O     O_R   0.816120 0.862000 0.281880 -0.533977
O18   O     O_R   0.183880 0.138000 0.718120 -0.532016
C7    C     C_R   0.983709 0.824195 0.294505 0.754145
C8    C     C_R   0.015601 0.176006 0.707596 0.753449
V3    V     V_3+5 0.705540 0.991700 0.246660 1.489531
V4    V     V_3+5 0.294460 0.008300 0.753340 1.497146
O19   O     O_3   0.982150 0.044700 0.268010 -0.395924
O20   O     O_3   0.017850 0.955300 0.731990 -0.393748
C9    C     C_R   0.980109 0.721619 0.322340 -0.146084
C10   C     C_R   0.014801 0.279087 0.683199 -0.168939
C11   C     C_R   0.831929 0.573617 0.321341 -0.251682
C12   C     C_R   0.142244 0.429220 0.688692 -0.221036
C13   C     C_R   0.886790 0.666098 0.287795 0.441393
C14   C     C_R   0.100017 0.333897 0.720191 0.471322
C15   C     C_R   0.021598 0.684696 0.388373 -0.257676
C16   C     C_R   0.962099 0.319522 0.618619 -0.255717
C17   C     C_R   0.977067 0.590277 0.421769 0.087217
C18   C     C_R   0.994771 0.415817 0.587869 0.076896
C19   C     C_R   0.868463 0.537808 0.387933 0.011456
C20   C     C_R   0.100108 0.467899 0.622628 -0.007534
C21   C     C_R   0.025702 0.548228 0.488515 -0.102772
C22   C     C_R   0.941391 0.459483 0.521967 -0.095823
C23   C     C_R   0.805241 0.418115 0.488380 0.442421
C24   C     C_R   0.159785 0.589796 0.522833 0.449157
C25   C     C_R   0.784305 0.452853 0.421484 -0.263675
C26   C     C_R   0.179107 0.554635 0.589901 -0.267830
H1    H     H_    0.689309 0.416162 0.396428 0.161473
H2    H     H_    0.272693 0.591338 0.615384 0.139967
C27   C     C_3   0.862893 0.056680 0.967353 0.559115
C28   C     C_3   0.135562 0.946518 0.032026 0.561285
C29   C     C_3   0.827108 0.968093 0.024202 -0.225695
C30   C     C_3   0.172047 0.035022 0.975235 -0.227874
C31   C     C_3   0.990839 0.000494 0.062292 -0.142908
C32   C     C_3   0.008006 0.002731 0.937069 -0.139108
C33   C     C_3   0.023540 0.090003 0.005712 -0.293272
C34   C     C_3   0.975337 0.913332 0.993639 -0.296340
C35   C     C_3   0.678435 0.999692 0.477986 0.431688
C36   C     C_3   0.323327 0.002238 0.521809 0.429847
C37   C     C_3   0.599824 0.077516 0.507333 -0.411181
C38   C     C_3   0.401988 0.924236 0.492627 -0.418026
H3    H     H_    0.679265 0.139313 0.514170 0.172671
H4    H     H_    0.322535 0.862366 0.485935 0.178939
C39   C     C_3   0.506046 0.999282 0.562720 -0.243671
C40   C     C_3   0.495247 0.002611 0.437055 -0.244810
C41   C     C_3   0.587165 0.922570 0.533283 0.430037
C42   C     C_3   0.414720 0.079362 0.466680 0.430493
C43   C     C_R   0.489478 0.278824 0.176223 -0.339440
C44   C     C_R   0.517979 0.718746 0.814561 -0.318899
C45   C     C_R   0.403861 0.435079 0.183785 0.410856
C46   C     C_R   0.679718 0.572750 0.812368 0.366291
C47   C     C_R   0.423961 0.338298 0.212866 0.300496
C48   C     C_R   0.640440 0.669048 0.782910 0.284671
C49   C     C_R   0.531288 0.315748 0.109600 0.408669
C50   C     C_R   0.437142 0.671381 0.874772 0.408988
C51   C     C_R   0.523517 0.415273 0.080080 -0.081327
C52   C     C_R   0.526398 0.586638 0.912691 -0.103443
C53   C     C_R   0.450846 0.473438 0.117540 -0.175071
C54   C     C_R   0.642938 0.536136 0.879235 -0.142867
C55   C     C_R   0.576848 0.458779 0.013882 -0.063017
C56   C     C_R   0.510286 0.551760 0.982127 -0.079065
C57   C     C_R   0.453920 0.609324 0.022478 0.490408
C58   C     C_R   0.711055 0.417242 0.980251 0.517309
C59   C     C_R   0.426847 0.569865 0.088708 -0.246261
C60   C     C_R   0.733917 0.452926 0.913548 -0.239183
O21   O     O_3   0.863703 0.994390 0.453077 -0.547279
C61   C     C_3   0.919426 0.084969 0.416094 -0.079668
H5    H     H_    0.956251 0.129766 0.448401 0.167960
H6    H     H_    0.807964 0.121180 0.380810 0.093174
H7    H     H_    0.047845 0.077508 0.387813 0.185626
O22   O     O_3   0.138007 0.007984 0.546471 -0.549399
C62   C     C_3   0.081836 0.917518 0.583268 -0.070134
H8    H     H_    0.194463 0.880501 0.617766 0.080110
H9    H     H_    0.042528 0.873374 0.550768 0.171821
H10   H     H_    0.955267 0.924976 0.612460 0.197741
O23   O     O_3   0.682095 0.843059 0.572876 -0.552418
C63   C     C_3   0.695623 0.772476 0.540332 -0.245541
H11   H     H_    0.745326 0.800268 0.489137 0.143064
H12   H     H_    0.555401 0.736502 0.542584 0.190693
H13   H     H_    0.801866 0.719221 0.566048 0.156828
O24   O     O_3   0.320267 0.160114 0.428558 -0.562711
C64   C     C_3   0.302350 0.227275 0.463967 -0.242009
H14   H     H_    0.441234 0.263804 0.463842 0.199070
H15   H     H_    0.250894 0.196005 0.514603 0.146271
H16   H     H_    0.195404 0.280954 0.439499 0.149582
H17   H     H_    0.384004 0.616365 0.117413 0.160742
H18   H     H_    0.834753 0.417859 0.889503 0.165809
O25   O     O_3   0.276390 0.710648 0.895164 -0.514764
C65   C     C_3   0.118404 0.649649 0.898345 -0.180743
H19   H     H_    0.108742 0.621643 0.855037 0.101956
H20   H     H_    0.984726 0.689811 0.899781 0.132786
H21   H     H_    0.123715 0.590754 0.943472 0.130173
O26   O     O_3   0.571781 0.252480 0.074026 -0.515414
C66   C     C_3   0.403080 0.234490 0.043167 -0.198417
H22   H     H_    0.436734 0.181998 0.016271 0.190738
H23   H     H_    0.350173 0.299037 0.007128 0.114326
H24   H     H_    0.289381 0.203733 0.079255 0.109877
O27   O     O_3   0.712037 0.714233 0.721849 -0.537964
C67   C     C_3   0.914084 0.721005 0.724968 -0.146836
H25   H     H_    0.985642 0.651412 0.734713 0.142351
H26   H     H_    0.959739 0.757506 0.761617 0.137237
H27   H     H_    0.966394 0.762489 0.676993 0.135669
O28   O     O_3   0.381158 0.301843 0.278112 -0.536204
C68   C     C_3   0.181674 0.283769 0.285947 -0.082400
H28   H     H_    0.159169 0.206984 0.305285 0.153587
H29   H     H_    0.093625 0.308554 0.240829 0.066986
H30   H     H_    0.125251 0.317879 0.322375 0.139107
O29   O     O_3   0.345652 0.492373 0.221822 -0.547050
C69   C     C_3   0.148975 0.515172 0.210850 -0.254553
H31   H     H_    0.064929 0.476731 0.253855 0.159183
H32   H     H_    0.085915 0.499952 0.166795 0.104629
H33   H     H_    0.131616 0.591599 0.205145 0.181083
O30   O     O_3   0.777725 0.517426 0.779650 -0.569912
C70   C     C_3   0.678057 0.513877 0.722785 -0.201685
H34   H     H_    0.739584 0.565816 0.679781 0.179166
H35   H     H_    0.520759 0.525667 0.725157 0.104645
H36   H     H_    0.698297 0.442905 0.715458 0.150448
O31   O     O_3   0.433471 0.705815 0.999715 -0.524394
C71   C     C_3   0.616185 0.748015 0.994508 -0.171354
H37   H     H_    0.706557 0.727621 0.957758 0.098350
H38   H     H_    0.691460 0.730504 0.042114 0.103830
H39   H     H_    0.596949 0.825493 0.978035 0.182989
O32   O     O_3   0.837682 0.348056 0.012659 -0.528653
C72   C     C_3   0.987895 0.390444 0.038924 -0.263042
H40   H     H_    0.935489 0.440476 0.065814 0.124961
H41   H     H_    0.089258 0.426565 0.999963 0.121806
H42   H     H_    0.067948 0.334518 0.074475 0.154459
H43   H     H_    0.916390 0.271637 0.591454 0.183708
H44   H     H_    0.069712 0.734293 0.413780 0.182468
O33   O     O_3   0.152753 0.287558 0.784108 -0.566704
C73   C     C_3   0.208533 0.348050 0.821766 -0.311304
H45   H     H_    0.100246 0.404145 0.819624 0.171229
H46   H     H_    0.353057 0.378214 0.806877 0.155850
H47   H     H_    0.219178 0.305972 0.873293 0.162449
O34   O     O_3   0.855503 0.706048 0.221570 -0.584496
C74   C     C_3   0.688114 0.672358 0.198532 -0.281868
H48   H     H_    0.563959 0.668422 0.232013 0.169261
H49   H     H_    0.716061 0.603343 0.188830 0.157997
H50   H     H_    0.649139 0.722730 0.151681 0.163038
H51   H     H_    0.756166 0.529679 0.296429 0.140069
H52   H     H_    0.216493 0.472938 0.713890 0.111406
O35   O     O_3   0.689255 0.343506 0.519659 -0.576369
C75   C     C_3   0.531039 0.378422 0.547184 -0.302755
H53   H     H_    0.434129 0.419778 0.508540 0.144852
H54   H     H_    0.576234 0.421145 0.580233 0.150853
H55   H     H_    0.447362 0.317779 0.576744 0.168695
O36   O     O_3   0.278337 0.663587 0.492144 -0.577362
C76   C     C_3   0.435515 0.627586 0.464703 -0.310955
H56   H     H_    0.389539 0.584457 0.432027 0.166227
H57   H     H_    0.532061 0.586153 0.503436 0.139313
H58   H     H_    0.519830 0.687632 0.434708 0.166398
H59   H     H_    0.683965 0.942059 0.044014 0.179231
H60   H     H_    0.315345 0.060949 0.955562 0.180504
O37   O     O_3   0.706704 0.110305 0.934765 -0.562192
C77   C     C_3   0.773889 0.195591 0.893198 -0.205121
H61   H     H_    0.649981 0.234496 0.865946 0.164715
H62   H     H_    0.877789 0.183218 0.857003 0.148911
H63   H     H_    0.838634 0.240940 0.921291 0.164411
O38   O     O_3   0.287311 0.891010 0.066019 -0.554357
C78   C     C_3   0.212440 0.807049 0.107251 -0.184436
H64   H     H_    0.093250 0.820217 0.138144 0.138900
H65   H     H_    0.327275 0.771143 0.140592 0.140573
H66   H     H_    0.163951 0.758770 0.078677 0.160518
H67   H     H_    0.040156 0.162521 0.010508 0.153015
H68   H     H_    0.962216 0.841083 0.988148 0.134276

loop_
_geom_bond_atom_site_label_1
_geom_bond_atom_site_label_2
_ccdc_geom_bond_type
C43   C47   A    
C76   H56   S    
C37   H3    S    
O35   C75   S    
C62   H8    S    
C45   C47   A    
C64   H14   S    
O25   C65   S    
O4    C2    A    
V1    O19   S    
C65   H20   S    
C77   H61   S    
C27   C33   S    
C62   H10   S    
C23   C25   A    
C28   C34   S    
C21   C22   A    
C7    C9    S    
C70   H35   S    
O9    V1    S    
C9    C15   A    
C46   C48   A    
C36   C39   S    
C30   H60   S    
C55   C56   A    
C10   C16   A    
C48   O27   S    
C38   C40   S    
C11   C13   A    
O3    C1    A    
C78   H65   S    
C23   O35   S    
C58   C60   A    
C31   C33   S    
O36   C76   S    
C32   C34   S    
O13   V3    S    
O26   C66   S    
C36   C42   S    
C18   C22   A    
C35   C37   S    
O7    C3    A    
O38   C78   S    
C65   H19   S    
C36   C38   S    
C72   H40   S    
C1    C40   S    
O5    C7    A    
O7    V1    S    
O6    C8    A    
C74   H48   S    
O8    V2    S    
C69   H31   S    
C25   H1    S    
C46   O30   S    
C26   H2    S    
C28   O38   S    
O3    V1    S    
C50   O25   S    
O14   V4    S    
C49   O26   S    
C11   C19   A    
C73   H46   S    
C61   H5    S    
C52   C56   A    
C60   H18   S    
C16   C18   A    
C8    C10   S    
C34   H68   S    
C29   C34   S    
C75   H54   S    
C17   C19   A    
C71   H39   S    
C18   C20   A    
C46   C54   A    
C58   O32   S    
C45   C53   A    
O24   C64   S    
C76   H58   S    
C35   O21   S    
O11   V3    S    
C28   C30   S    
C27   C29   S    
O15   C5    A    
O17   V3    S    
C64   H16   S    
C37   C39   S    
C45   O29   S    
C74   H50   S    
C57   C59   A    
C69   H33   S    
C72   H42   S    
C56   C57   A    
C73   H47   S    
C52   C54   A    
O8    C4    A    
C78   H66   S    
C57   O31   S    
C51   C53   A    
C19   C25   A    
C1    O11   A    
C3    C43   S    
O15   V3    S    
C15   H44   S    
C63   H13   S    
C9    C13   A    
C16   H43   S    
C39   C41   S    
C38   H4    S    
C13   O34   S    
C78   H64   S    
C68   H29   S    
C64   H15   S    
C61   H6    S    
O23   C63   S    
C37   C42   S    
O10   V2    S    
C74   H49   S    
C73   H45   S    
C49   C51   A    
C44   C48   A    
C29   C31   S    
C38   C41   S    
C33   H67   S    
C24   C26   A    
C50   C52   A    
C29   H59   S    
O27   C67   S    
C53   C59   A    
C75   H55   S    
C69   H32   S    
C59   H17   S    
C41   O23   S    
C6    C32   S    
C63   H12   S    
O18   V4    S    
C36   O22   S    
O34   C74   S    
O16   C6    A    
C66   H24   S    
O1    C3    A    
C67   H26   S    
O29   C69   S    
C43   C49   A    
C71   H38   S    
C61   H7    S    
O32   C72   S    
V2    O20   S    
C21   C24   A    
C20   C26   A    
C5    C31   S    
C22   C23   A    
O16   V4    S    
C72   H41   S    
C10   C14   A    
C42   O24   S    
C4    C44   S    
O30   C70   S    
C27   O37   S    
C77   H62   S    
C27   C32   S    
C62   H9    S    
O5    V1    S    
O4    V2    S    
O17   C7    A    
O6    V2    S    
C70   H34   S    
O10   C6    A    
O18   C8    A    
C30   C33   S    
O2    V4    S    
C47   O28   S    
C35   C41   S    
C67   H27   S    
C66   H23   S    
O21   C61   S    
C68   H30   S    
V3    O19   S    
O31   C71   S    
C12   C14   A    
V4    O20   S    
C24   O36   S    
C35   C40   S    
O1    V3    S    
C75   H53   S    
O28   C68   S    
C54   C60   A    
C70   H36   S    
O9    C5    A    
C63   H11   S    
O13   V1    S    
C30   C32   S    
O14   V2    S    
O22   C62   S    
O2    C4    A    
C11   H51   S    
C77   H63   S    
C12   C20   A    
C51   C55   A    
C76   H57   S    
C55   C58   A    
C15   C17   A    
C2    C39   S    
C2    O12   A    
O37   C77   S    
C44   C50   A    
C12   H52   S    
C40   C42   S    
C17   C21   A    
C71   H37   S    
C14   O33   S    
C67   H25   S    
C66   H22   S    
O12   V4    S    
C65   H21   S    
C68   H28   S    
O33   C73   S    
C28   C31   S    
