data_mof_unit_56109.cif
_audit_creation_date              2012-10-26T19:36:46-0400
_audit_creation_method            fapswitch 2.2
_symmetry_space_group_name_H-M    P1
_symmetry_Int_Tables_number       1
_space_group_crystal_system       triclinic
_cell_length_a                    17.66589
_cell_length_b                    16.555805
_cell_length_c                    11.08677
_cell_angle_alpha                 88.650711
_cell_angle_beta                  89.320695
_cell_angle_gamma                 87.956767
_cell_volume                      3239.42414383

loop_
_atom_site_label
_atom_site_type_symbol
_atom_type_description
_atom_site_fract_x
_atom_site_fract_y
_atom_site_fract_z
_atom_type_partial_charge
C1    C     C_R   0.354937 0.501296 0.498195 0.624191
C2    C     C_1   0.036184 0.471860 0.457193 0.206627
C3    C     C_R   0.155753 0.523537 0.380335 0.207137
C4    C     C_R   0.156556 0.428493 0.553198 0.201249
C5    C     C_R   0.229487 0.546723 0.408256 0.175998
C6    C     C_R   0.232952 0.446033 0.575518 0.211655
C7    C     C_R   0.270729 0.501841 0.498179 -0.071796
C8    C     C_R   0.505904 0.500593 0.259665 0.602121
C9    C     C_R   0.117738 0.471406 0.460186 -0.065639
C10   C     C_R   0.465307 0.838583 0.566035 0.149884
C11   C     C_R   0.527960 0.159247 0.570155 0.151469
C12   C     C_3   0.599380 0.536132 0.927280 0.349234
C13   C     C_R   0.457455 0.752629 0.575855 0.425993
C14   C     C_R   0.536056 0.244117 0.579839 0.418065
C15   C     C_R   0.544291 0.736458 0.412935 0.024021
C16   C     C_R   0.461738 0.266686 0.405875 0.027488
C17   C     C_R   0.544543 0.821205 0.391936 -0.167520
C18   C     C_R   0.461565 0.182262 0.385596 -0.153822
C19   C     C_R   0.503788 0.873607 0.468087 0.018156
C20   C     C_R   0.495860 0.126936 0.467612 -0.006906
C21   C     C_1   0.501924 0.963238 0.452473 0.039153
C22   C     C_1   0.497832 0.037785 0.452161 0.015917
C23   C     C_R   0.850147 0.556005 0.494437 0.191378
C24   C     C_R   0.644690 0.498375 0.494879 0.675326
C25   C     C_R   0.510074 0.499535 0.739622 0.638386
C26   C     C_3   0.459634 0.564669 0.066586 -0.267194
C27   C     C_3   0.492312 0.419190 0.071301 -0.279785
C28   C     C_3   0.453181 0.554455 0.929460 -0.240308
C29   C     C_3   0.508101 0.415776 0.933905 -0.261156
C30   C     C_3   0.601901 0.519201 0.074962 0.376849
C31   C     C_3   0.516784 0.501783 0.121925 -0.038844
C32   C     C_3   0.520097 0.501320 0.878184 -0.065273
C33   C     C_3   0.496228 0.896306 0.754661 -0.271640
C34   C     C_R   0.843357 0.413707 0.442077 0.203810
C35   C     C_3   0.491440 0.094982 0.756935 -0.251563
C36   C     C_R   0.771043 0.561520 0.501526 -0.051351
C37   C     C_R   0.764922 0.419679 0.456831 -0.059066
C38   C     C_R   0.728129 0.493424 0.484274 0.017844
C39   C     C_R   0.886742 0.481809 0.463464 0.001519
C40   C     C_1   0.968094 0.475406 0.458433 0.191610
Cu1   Cu    Cu3+1 0.499980 0.580420 0.499990 1.207902
Cu2   Cu    Cu3+1 0.499980 0.419580 0.499990 1.142781
H1    H     H_    0.473966 0.626885 0.089153 0.258309
H2    H     H_    0.459475 0.386740 0.891543 0.191448
H3    H     H_    0.447726 0.613715 0.883757 0.277050
H4    H     H_    0.558571 0.377437 0.915260 0.271761
H5    H     H_    0.742717 0.618358 0.523754 0.186124
H6    H     H_    0.732271 0.366376 0.444950 0.223824
H7    H     H_    0.228801 0.740105 0.232997 0.377110
H8    H     H_    0.249127 0.374494 0.891793 0.367239
H9    H     H_    0.386055 0.884786 0.691717 0.323008
H10   H     H_    0.517116 0.835632 0.785274 0.211163
H11   H     H_    0.470695 0.928096 0.833055 0.150070
H12   H     H_    0.518749 0.365908 0.118550 0.214602
H13   H     H_    0.545694 0.929316 0.719933 0.149084
H14   H     H_    0.579352 0.054490 0.643665 0.263569
H15   H     H_    0.515647 0.063519 0.837878 0.159524
H16   H     H_    0.446198 0.058690 0.718798 0.155513
H17   H     H_    0.465451 0.153639 0.785470 0.201169
H18   H     H_    0.269392 0.760913 0.714812 0.389873
H19   H     H_    0.712826 0.221000 0.742116 0.390455
H20   H     H_    0.630783 0.733061 0.152904 0.360252
H21   H     H_    0.783101 0.407583 0.157095 0.392887
H22   H     H_    0.560360 0.759682 0.943866 0.369554
H23   H     H_    0.579389 0.698396 0.357601 0.216132
H24   H     H_    0.749759 0.381070 0.832672 0.385734
H25   H     H_    0.820780 0.742962 0.504522 0.350066
H26   H     H_    0.845599 0.216375 0.302811 0.392503
H27   H     H_    0.037338 0.639839 0.165274 0.392757
H28   H     H_    0.139018 0.238751 0.731769 0.381719
H29   H     H_    0.432018 0.306555 0.342569 0.146688
H30   H     H_    0.578152 0.845494 0.318217 0.134651
H31   H     H_    0.433401 0.160546 0.307081 0.136563
H32   H     H_    0.402724 0.554719 0.105715 0.191220
H33   H     H_    0.430481 0.412411 0.087789 0.133898
H34   H     H_    0.398761 0.525617 0.912191 0.199665
N1    N     N_R   0.499970 0.701220 0.499970 -0.258333
N2    N     N_R   0.499970 0.298780 0.499970 -0.261226
N3    N     N_2   0.440706 0.890438 0.660599 -0.510995
N4    N     N_2   0.550824 0.107062 0.667941 -0.448487
O1    O     O_R   0.391240 0.567930 0.499990 -0.403603
O2    O     O_2   0.329646 0.616377 0.258946 -0.320025
O3    O     O_3   0.200483 0.695184 0.270261 -0.398668
O4    O     O_2   0.316679 0.326256 0.682126 -0.246556
O5    O     O_2   0.338902 0.463708 0.744672 -0.313275
O6    O     O_3   0.218324 0.397778 0.824569 -0.408888
O7    O     O_2   0.369533 0.633802 0.691666 -0.227809
O8    O     O_2   0.406693 0.747865 0.806706 -0.312119
O9    O     O_3   0.304562 0.771597 0.646493 -0.484741
O10   O     O_2   0.625871 0.354624 0.683896 -0.235892
O11   O     O_2   0.569465 0.251882 0.813716 -0.305982
O12   O     O_R   0.391240 0.432070 0.499990 -0.499090
O13   O     O_3   0.680393 0.209772 0.672614 -0.480907
O14   O     O_2   0.653574 0.581722 0.282040 -0.312498
O15   O     O_2   0.723358 0.615690 0.105016 -0.145483
O16   O     O_3   0.593704 0.690215 0.143411 -0.559400
O17   O     O_2   0.650516 0.417692 0.259744 -0.303646
O18   O     O_2   0.648538 0.352723 0.069526 -0.252163
O19   O     O_3   0.755815 0.450145 0.108685 -0.390709
O20   O     O_2   0.680076 0.678990 0.910255 -0.168827
O21   O     O_2   0.601911 0.655042 0.743278 -0.237254
O22   O     O_3   0.536850 0.706817 0.934604 -0.526234
O23   O     O_R   0.499970 0.567910 0.317690 -0.473956
O24   O     O_2   0.680651 0.513336 0.723843 -0.299024
O25   O     O_2   0.753494 0.531404 0.901267 -0.127258
O26   O     O_3   0.698885 0.392206 0.868385 -0.434499
O27   O     O_2   0.959777 0.621166 0.621163 -0.184834
O28   O     O_2   0.941720 0.671177 0.414088 -0.214627
O29   O     O_3   0.843971 0.717592 0.577670 -0.447727
O30   O     O_2   0.954194 0.329921 0.323852 -0.211250
O31   O     O_2   0.902808 0.270111 0.511074 -0.193779
O32   O     O_3   0.820646 0.269631 0.318838 -0.502666
O33   O     O_2   0.175237 0.558357 0.142476 -0.192986
O34   O     O_R   0.499970 0.432090 0.317690 -0.530242
O35   O     O_2   0.066031 0.479369 0.199976 -0.232220
O36   O     O_3   0.060040 0.632123 0.246172 -0.406639
O37   O     O_2   0.067279 0.384092 0.738829 -0.188380
O38   O     O_2   0.053819 0.311837 0.550919 -0.211526
O39   O     O_3   0.169965 0.274797 0.680245 -0.430393
O40   O     O_R   0.608730 0.567880 0.500000 -0.483316
O41   O     O_R   0.608730 0.432120 0.500000 -0.454583
O42   O     O_R   0.500000 0.567910 0.682300 -0.430526
O43   O     O_R   0.500000 0.432090 0.682300 -0.447065
O44   O     O_2   0.295690 0.687612 0.442356 -0.196189
S1    S     S_3+6 0.265942 0.637500 0.343925 0.102327
S2    S     S_3+6 0.883768 0.319152 0.399079 0.069602
S3    S     S_3+6 0.114539 0.547171 0.237005 0.117201
S4    S     S_3+6 0.109407 0.349083 0.632530 0.118832
S5    S     S_3+6 0.279446 0.407156 0.708059 0.089223
S6    S     S_3+6 0.385945 0.721548 0.683171 0.067966
S7    S     S_3+6 0.602251 0.269554 0.690815 0.065464
S8    S     S_3+6 0.644541 0.602866 0.152142 0.081222
S9    S     S_3+6 0.663373 0.431500 0.127402 0.092531
S10   S     S_3+6 0.605379 0.645372 0.877887 0.090694
S11   S     S_3+6 0.684461 0.492544 0.854560 0.130959
S12   S     S_3+6 0.901708 0.642577 0.526633 0.091392

loop_
_geom_bond_atom_site_label_1
_geom_bond_atom_site_label_2
_ccdc_geom_bond_type
C33   H13   S    
H27   O36   S    
O24   S11   D    
H20   O16   S    
C27   C29   S    
C34   C37   A    
Cu1   Cu2   S    
C35   N4    S    
O17   S9    D    
C27   H12   S    
H18   O9    S    
C33   H10   S    
H22   O22   S    
O18   S9    D    
C37   C38   A    
C23   S12   S    
C35   H16   S    
O7    S6    D    
C19   C21   S    
H24   O26   S    
O28   S12   D    
C29   C32   S    
Cu1   N1    S    
C30   C31   S    
C11   C14   A    
C3    S3    S    
O11   S7    D    
C1    O1    A    
C15   H23   S    
O4    S5    D    
O35   S3    D    
O19   S9    S    
C36   H5    S    
C35   H17   S    
H26   O32   S    
C26   H32   S    
H21   O19   S    
O5    S5    D    
Cu2   O34   S    
O20   S10   D    
C12   S11   S    
Cu2   O43   S    
C24   C38   S    
C13   S6    S    
O8    S6    D    
C25   O42   A    
H28   O39   S    
C18   C20   A    
C8    O34   A    
O16   S8    S    
O39   S4    S    
C25   C32   S    
C26   C31   S    
C12   S10   S    
C21   C22   T    
C12   C32   S    
O29   S12   S    
C16   H29   S    
O38   S4    D    
O3    S1    S    
C6    S5    S    
C27   H33   S    
O37   S4    D    
H25   O29   S    
C26   H1    S    
C14   S7    S    
C33   H11   S    
C28   H3    S    
C13   N1    A    
C11   C20   A    
C24   O40   A    
C4    S4    S    
C27   C31   S    
C34   C39   A    
C28   C32   S    
C4    C6    A    
C39   C40   S    
C5    C7    A    
C33   N3    S    
O21   S10   D    
O36   S3    S    
O14   S8    D    
O9    S6    S    
Cu1   O23   S    
Cu1   O42   S    
O22   S10   S    
O2    S1    D    
O27   S12   D    
C3    C9    A    
C10   C19   A    
C34   S2    S    
C30   S9    S    
Cu1   O1    S    
O31   S2    D    
C37   H6    S    
C25   O43   A    
O30   S2    D    
O10   S7    D    
O26   S11   S    
C20   C22   S    
Cu2   N2    S    
C1    O12   A    
C29   H2    S    
O15   S8    D    
C28   H34   S    
C15   C17   A    
Cu2   O12   S    
C12   C30   S    
C1    C7    S    
C8    C31   S    
O32   S2    S    
C3    C5    A    
C10   C13   A    
C10   N3    S    
O6    S5    S    
C6    C7    A    
O33   S3    D    
C18   H31   S    
C26   C28   S    
H14   N4    S    
O25   S11   D    
C29   H4    S    
C35   H15   S    
H7    O3    S    
C36   C38   A    
C2    C9    S    
C15   N1    A    
C30   S8    S    
C24   O41   A    
C17   C19   A    
C16   N2    A    
C14   N2    A    
Cu1   O40   S    
C8    O23   A    
H9    N3    S    
C11   N4    S    
H8    O6    S    
C2    C40   T    
C17   H30   S    
C16   C18   A    
C23   C36   A    
C5    S1    S    
C4    C9    A    
O13   S7    S    
H19   O13   S    
C23   C39   A    
Cu2   O41   S    
O44   S1    D    
