data_mof_unit_54725.cif
_audit_creation_date              2013-03-05T15:42:03-0500
_audit_creation_method            fapswitch 2.2
_symmetry_space_group_name_H-M    P1
_symmetry_Int_Tables_number       1
_space_group_crystal_system       triclinic
_cell_length_a                    27.755875
_cell_length_b                    8.681379
_cell_length_c                    7.450629
_cell_angle_alpha                 102.94882
_cell_angle_beta                  93.83339
_cell_angle_gamma                 91.874841
_cell_volume                      1743.62884959

loop_
_atom_site_label
_atom_site_type_symbol
_atom_site_description
_atom_site_fract_x
_atom_site_fract_y
_atom_site_fract_z
_atom_type_partial_charge
O1    O     O_R   0.503500 0.286120 0.619780 -0.583330
O2    O     O_R   0.496500 0.713880 0.380220 -0.601492
O3    O     O_R   0.494410 0.256780 0.308360 -0.585570
O4    O     O_R   0.505590 0.743220 0.691640 -0.581673
C1    C     C_R   0.498261 0.199811 0.453439 0.917650
C2    C     C_R   0.501358 0.800210 0.546687 0.891949
O5    O     O_R   0.434810 0.514700 0.655690 -0.559712
O6    O     O_R   0.565190 0.485300 0.344310 -0.601928
O7    O     O_R   0.425720 0.485350 0.344280 -0.594222
O8    O     O_R   0.574280 0.514650 0.655720 -0.567422
C3    C     C_R   0.407517 0.500791 0.503167 0.834188
C4    C     C_R   0.592053 0.497123 0.496460 0.858889
Cu1   Cu    Cu3+1 0.505380 0.517380 0.684380 0.976541
Cu2   Cu    Cu3+1 0.494620 0.482620 0.315620 0.946876
C5    C     C_R   0.177858 0.347776 0.518922 0.545869
C6    C     C_R   0.823969 0.567543 0.667835 0.554425
O9    O     O_2   0.202604 0.214217 0.487086 -0.517424
O10   O     O_2   0.801630 0.672534 0.793307 -0.539799
N1    N     N_R   0.201968 0.492663 0.549020 -0.452863
N2    N     N_R   0.797414 0.457605 0.532963 -0.443188
C7    C     C_R   0.177607 0.629374 0.593017 0.555272
C8    C     C_R   0.820237 0.339504 0.419549 0.562531
C9    C     C_R   0.284330 0.588974 0.679580 -0.190066
C10   C     C_R   0.714793 0.330088 0.485291 -0.164970
C11   C     C_R   0.334666 0.591224 0.669853 0.396577
C12   C     C_R   0.664688 0.338561 0.461315 0.376302
C13   C     C_R   0.323056 0.413381 0.363740 -0.131358
C14   C     C_R   0.674389 0.625624 0.518699 -0.130930
C15   C     C_R   0.273140 0.415668 0.375398 -0.136212
C16   C     C_R   0.724465 0.613732 0.519918 -0.120315
C17   C     C_R   0.253488 0.500098 0.534281 0.267736
C18   C     C_R   0.745373 0.466842 0.511424 0.243365
C19   C     C_R   0.101897 0.475537 0.569739 -0.045428
C20   C     C_R   0.898210 0.449313 0.565132 -0.044331
C21   C     C_R   0.127439 0.336933 0.521905 -0.019060
C22   C     C_R   0.874622 0.571483 0.677431 -0.022721
C23   C     C_R   0.102341 0.190300 0.481866 -0.153161
C24   C     C_R   0.902112 0.692952 0.799330 -0.132548
C25   C     C_R   0.127537 0.622914 0.611426 -0.042037
C26   C     C_R   0.870499 0.327266 0.444097 -0.036760
C27   C     C_R   0.354447 0.501953 0.511284 -0.178167
C28   C     C_R   0.644277 0.487451 0.488666 -0.176975
H1    H     H_    0.249232 0.348972 0.261408 0.172208
H2    H     H_    0.747299 0.720119 0.534467 0.181765
H3    H     H_    0.121243 0.081205 0.453032 0.194570
H4    H     H_    0.885221 0.784711 0.894648 0.192560
C29   C     C_R   0.973117 0.313001 0.487035 -0.000871
C30   C     C_R   0.026438 0.605275 0.648858 -0.002897
C31   C     C_R   0.976306 0.587958 0.672516 0.039024
C32   C     C_R   0.024911 0.317468 0.511517 0.056537
C33   C     C_R   0.949444 0.449875 0.573852 0.070283
C34   C     C_R   0.050860 0.466355 0.576050 0.066482
C35   C     C_R   0.943171 0.182368 0.378874 -0.013541
C36   C     C_R   0.053330 0.754360 0.690060 -0.024716
C37   C     C_R   0.893288 0.195424 0.351149 -0.178567
C38   C     C_R   0.102826 0.760754 0.667998 -0.186421
O11   O     O_2   0.794825 0.235670 0.280929 -0.548400
O12   O     O_2   0.201538 0.771203 0.616788 -0.517961
C39   C     C_R   0.052299 0.180900 0.476065 -0.169648
C40   C     C_R   0.952007 0.701259 0.795348 -0.175866
H5    H     H_    0.729581 0.215728 0.481751 0.194293
H6    H     H_    0.268962 0.658611 0.799398 0.169664
H7    H     H_    0.871722 0.097699 0.262186 0.191394
H8    H     H_    0.122270 0.875213 0.697406 0.192218
H9    H     H_    0.036878 0.063499 0.455343 0.175220
H10   H     H_    0.971256 0.793892 0.895668 0.191382
C41   C     C_2   0.496832 0.031971 0.427518 -0.370132
C42   C     C_2   0.502043 0.968127 0.573087 -0.319040
H11   H     H_    0.491873 0.960598 0.287162 0.164731
H12   H     H_    0.507035 0.039581 0.713551 0.178148
N3    N     N_2   0.486510 0.456430 0.038510 -0.225011
N4    N     N_2   0.513490 0.543570 0.961490 -0.227560
H13   H     H_    0.462377 0.378656 0.948877 0.232788
H14   H     H_    0.537523 0.621688 0.051205 0.227156
C43   C     C_1   0.340748 0.313954 0.201315 0.273974
N5    N     N_1   0.354833 0.234106 0.071250 -0.280770
C44   C     C_1   0.654724 0.780617 0.556300 0.240826
N6    N     N_1   0.638912 0.904654 0.588235 -0.240939
O13   O     O_3   0.635952 0.200186 0.418812 -0.570809
C45   C     C_3   0.629500 0.148965 0.224090 0.080530
H15   H     H_    0.663502 0.161522 0.155322 0.162875
H16   H     H_    0.601338 0.218030 0.169158 0.168885
C46   C     C_3   0.612976 0.974782 0.171280 -0.738666
H17   H     H_    0.580658 0.953690 0.243726 0.246599
H18   H     H_    0.603753 0.938202 0.019908 0.207865
H19   H     H_    0.642409 0.901603 0.208803 0.251526
O14   O     O_3   0.364235 0.697403 0.801379 -0.564609
C47   C     C_3   0.363891 0.656286 0.974269 0.088829
H20   H     H_    0.376728 0.534746 0.964902 0.159842
H21   H     H_    0.327322 0.663574 0.027137 0.135170
C48   C     C_3   0.397799 0.772336 0.113104 -0.678174
H22   H     H_    0.386666 0.895262 0.120946 0.247754
H23   H     H_    0.396608 0.746613 0.252061 0.208213
H24   H     H_    0.435325 0.762470 0.070248 0.248519
C49   C     C_1   0.960119 0.031008 0.291617 0.230462
N7    N     N_1   0.973172 0.907581 0.225070 -0.314261
C50   C     C_1   0.031941 0.906086 0.741836 0.212048
N8    N     N_1   0.014964 0.027653 0.785505 -0.279993

loop_
_geom_bond_atom_site_label_1
_geom_bond_atom_site_label_2
_geom_bond_distance
_ccdc_geom_bond_type
O14   C47   1.412195 S    
C43   N5    1.157487 T    
C10   H5    1.082226 S    
C13   C15   1.394476 A    
Cu2   N3    2.022190 S    
C49   N7    1.156090 T    
C1    C41   1.425141 S    
N1    C17   1.441939 S    
C8    O11   1.349257 S    
C50   N8    1.157960 T    
C44   N6    1.157074 T    
C19   C34   1.420727 A    
C5    N1    1.370638 A    
C20   C33   1.418997 A    
C19   C25   1.404521 A    
C31   C40   1.407974 A    
O1    C1    1.292730 A    
C32   C39   1.413780 A    
C21   C23   1.392393 A    
C10   C12   1.396675 A    
C35   C49   1.438426 S    
C11   O14   1.386252 S    
C14   C28   1.405913 A    
O4    Cu1   1.949000 S    
C4    C28   1.458969 S    
C9    H6    1.081798 S    
C25   C38   1.395125 A    
C31   C33   1.416533 A    
C37   H7    1.085863 S    
C32   C34   1.426483 A    
C38   H8    1.085438 S    
C36   C50   1.445786 S    
C6    N2    1.374437 A    
C29   C35   1.437215 A    
C2    C42   1.425928 S    
C40   H10   1.067675 S    
Cu1   Cu2   2.691058 S    
C15   H1    1.084445 S    
C16   H2    1.083553 S    
O2    C2    1.293301 A    
C45   C46   1.521715 S    
C13   C43   1.445598 S    
C5    C21   1.401500 A    
O5    C3    1.302784 A    
C29   C32   1.435110 A    
C35   C37   1.398212 A    
C36   C38   1.395258 A    
C41   C42   1.325931 D    
N4    H14   1.029220 S    
C11   C27   1.414947 A    
C48   H22   1.110754 S    
N3    H13   1.029108 S    
C29   C33   1.423219 A    
C41   H11   1.086844 S    
C9    C17   1.399515 A    
C30   C36   1.433377 A    
O7    Cu2   1.938725 S    
C10   C18   1.405762 A    
C48   H23   1.109300 S    
C13   C27   1.417082 A    
C46   H17   1.108052 S    
C7    C25   1.406101 A    
C47   C48   1.520364 S    
C30   C34   1.420445 A    
O6    C4    1.296677 A    
C26   C37   1.392991 A    
C8    C26   1.405451 A    
C14   C44   1.444470 S    
O7    C3    1.299209 A    
C23   C39   1.385892 A    
O3    Cu2   1.949000 S    
O8    C4    1.294897 A    
C24   C40   1.387040 A    
O4    C2    1.285016 A    
C30   C31   1.421565 A    
C46   H18   1.110821 S    
C47   H21   1.111718 S    
C20   C26   1.397538 A    
O1    Cu1   1.954940 S    
C23   H3    1.083880 S    
C12   C28   1.406601 A    
N2    C18   1.449469 S    
C5    O9    1.350203 S    
O6    Cu2   1.954909 S    
N1    C7    1.371506 A    
N2    C8    1.375614 A    
C45   H15   1.117151 S    
O3    C1    1.285313 A    
O8    Cu1   1.938728 S    
Cu1   N4    2.022189 S    
C12   O13   1.382954 S    
C22   C24   1.394473 A    
C7    O12   1.349673 S    
C15   C17   1.399907 A    
C39   H9    1.066729 S    
C48   H24   1.110030 S    
C16   C18   1.408580 A    
C14   C16   1.396663 A    
C19   C21   1.405311 A    
C45   H16   1.111691 S    
C3    C27   1.478545 S    
C20   C22   1.405183 A    
C9    C11   1.403557 A    
O2    Cu2   1.954941 S    
C24   H4    1.083574 S    
O13   C45   1.416177 S    
O5    Cu1   1.954909 S    
C46   H19   1.110033 S    
N3    N4    1.295110 D    
C47   H20   1.113580 S    
C6    O10   1.349737 S    
C42   H12   1.087798 S    
C6    C22   1.401852 A    
