data_mof_unit_14078.cif
_audit_creation_date              2012-12-10T17:03:01-0500
_audit_creation_method            fapswitch 2.2
_symmetry_space_group_name_H-M    P1
_symmetry_Int_Tables_number       1
_space_group_crystal_system       triclinic
_cell_length_a                    9.786115
_cell_length_b                    11.015936
_cell_length_c                    13.45993
_cell_angle_alpha                 94.19769
_cell_angle_beta                  81.963453
_cell_angle_gamma                 110.295371
_cell_volume                      1347.09722471

loop_
_atom_site_label
_atom_site_type_symbol
_atom_type_description
_atom_site_fract_x
_atom_site_fract_y
_atom_site_fract_z
_atom_type_partial_charge
C1    C     C_R   0.553888 0.745044 0.510442 0.925096
C2    C     C_R   0.379811 0.498555 0.800149 -0.061340
C3    C     C_2   0.582646 0.883843 0.514663 -0.484406
C4    C     C_R   0.424468 0.496199 0.690695 0.826833
C5    C     C_2   0.478948 0.936365 0.547392 0.510282
C6    C     C_2   0.411136 0.116627 0.503861 -0.277273
C7    C     C_2   0.512912 0.072993 0.529153 -0.243444
C8    C     C_2   0.920550 0.486451 0.493391 -0.067565
C9    C     C_2   0.071511 0.499464 0.514695 -0.004698
C10   C     C_R   0.443983 0.254697 0.494876 0.847530
C11   C     C_R   0.577601 0.513406 0.309782 0.784118
C12   C     C_R   0.441785 0.516573 0.972270 0.077672
C13   C     C_R   0.808655 0.645728 0.069324 -0.197934
C14   C     C_R   0.625004 0.537330 0.202782 -0.046606
C15   C     C_R   0.231027 0.439807 0.835847 -0.162131
C16   C     C_R   0.186502 0.423240 0.937832 -0.156956
C17   C     C_R   0.289947 0.458314 0.005332 -0.162126
C18   C     C_3   0.893711 0.740042 0.861148 -0.427266
C19   C     C_3   0.987084 0.653355 0.834929 -0.760650
C20   C     C_R   0.484238 0.548309 0.869900 0.050000
C21   C     C_R   0.552189 0.545791 0.037727 0.039025
C22   C     C_R   0.701172 0.617529 0.002867 0.133199
C23   C     C_R   0.738254 0.661783 0.903505 0.115711
C24   C     C_R   0.628791 0.630348 0.840182 -0.217057
C25   C     C_R   0.518663 0.503175 0.136911 -0.222045
C26   C     C_R   0.770628 0.606564 0.168198 -0.203472
Cu1   Cu    Cu3+1 0.362000 0.479240 0.482530 0.990085
Cu2   Cu    Cu3+1 0.638000 0.520760 0.517470 0.955671
H1    H     H_    0.854431 0.634390 0.218412 0.162865
H2    H     H_    0.148734 0.404191 0.784666 0.155549
H3    H     H_    0.246630 0.441619 0.083122 0.124815
H4    H     H_    0.071094 0.379167 0.964614 0.142524
H5    H     H_    0.658223 0.673792 0.767432 0.173300
H6    H     H_    0.624771 0.137870 0.533907 0.155938
H7    H     H_    0.146369 0.920558 0.706935 0.358163
H8    H     H_    0.983260 0.594496 0.899349 0.240265
H9    H     H_    0.947676 0.586916 0.770863 0.240162
H10   H     H_    0.102776 0.714466 0.813739 0.297371
H11   H     H_    0.894123 0.788891 0.791633 0.199648
H12   H     H_    0.301150 0.051158 0.494632 0.197616
H13   H     H_    0.944628 0.819188 0.914556 0.202988
H14   H     H_    0.691230 0.945128 0.483122 0.119798
H15   H     H_    0.112651 0.554028 0.580956 0.216311
H16   H     H_    0.872548 0.419857 0.434029 0.150760
H17   H     H_    0.113543 0.398249 0.392963 0.184974
H18   H     H_    0.893525 0.615081 0.599403 0.219285
H19   H     H_    0.922632 0.700835 0.047059 0.155518
H20   H     H_    0.409673 0.442842 0.165464 0.145339
N1    N     N_2   0.845330 0.551960 0.543750 -0.277939
N2    N     N_2   0.154690 0.448120 0.456210 -0.297496
O1    O     O_R   0.426290 0.668220 0.490680 -0.506896
O2    O     O_2   0.320484 0.746911 0.676519 -0.340466
O3    O     O_3   0.254927 0.957125 0.696623 -0.536839
O4    O     O_R   0.659360 0.703290 0.520190 -0.584625
O5    O     O_R   0.326580 0.473880 0.629020 -0.567155
O6    O     O_R   0.559660 0.508940 0.658530 -0.588378
O7    O     O_R   0.340640 0.296710 0.479810 -0.576108
O8    O     O_R   0.573710 0.331780 0.509320 -0.576502
O9    O     O_R   0.440340 0.491060 0.341470 -0.584257
O10   O     O_R   0.673420 0.526120 0.370980 -0.583869
O11   O     O_2   0.196127 0.794897 0.545383 -0.351305
S1    S     S_3+6 0.307985 0.852103 0.617175 -0.031608

loop_
_geom_bond_atom_site_label_1
_geom_bond_atom_site_label_2
_ccdc_geom_bond_type
C12   C17   A    
C6    C10   S    
C2    C4    S    
C23   C24   A    
C3    H14   S    
C6    C7    D    
C19   H10   S    
Cu2   O8    S    
H7    O3    S    
C19   H9    S    
O3    S1    S    
C24   H5    S    
H18   N1    S    
Cu1   N2    S    
C1    O4    A    
C12   C20   A    
Cu2   O6    S    
C4    O5    A    
O2    S1    D    
C21   C22   A    
C14   C26   A    
C2    C15   A    
C1    O1    A    
C25   H20   S    
H17   N2    S    
C15   H2    S    
C18   C23   S    
C11   O9    A    
C8    N1    D    
C10   O8    A    
Cu1   O1    S    
C13   C22   A    
Cu1   O5    S    
C19   H8    S    
Cu2   O10   S    
C14   C25   A    
O11   S1    D    
C17   H3    S    
C11   C14   S    
C6    H12   S    
C13   C26   A    
C9    H15   S    
C16   H4    S    
C15   C16   A    
C2    C20   A    
C11   O10   A    
C20   C24   A    
C10   O7    A    
C7    H6    S    
C26   H1    S    
C5    C7    S    
C18   C19   S    
Cu1   O7    S    
C18   H13   S    
Cu1   Cu2   S    
C13   H19   S    
C18   H11   S    
Cu2   O4    S    
C22   C23   A    
C16   C17   A    
C21   C25   A    
Cu1   O9    S    
C3    C5    D    
C12   C21   A    
C4    O6    A    
C9    N2    D    
C8    H16   S    
C5    S1    S    
C8    C9    S    
C1    C3    S    
Cu2   N1    S    
