data_mof_unit_40406.cif
_audit_creation_date              2012-12-10T18:38:01-0500
_audit_creation_method            fapswitch 2.2
_symmetry_space_group_name_H-M    P1
_symmetry_Int_Tables_number       1
_space_group_crystal_system       triclinic
_cell_length_a                    15.052765
_cell_length_b                    15.549005
_cell_length_c                    27.710863
_cell_angle_alpha                 90.551212
_cell_angle_beta                  105.071738
_cell_angle_gamma                 81.823195
_cell_volume                      6196.56368495

loop_
_atom_site_label
_atom_site_type_symbol
_atom_type_description
_atom_site_fract_x
_atom_site_fract_y
_atom_site_fract_z
_atom_type_partial_charge
C1    C     C_R   0.441637 0.661846 0.492878 0.895870
C2    C     C_R   0.558486 0.338225 0.508155 0.888924
C3    C     C_R   0.508618 0.503866 0.899536 -0.051210
C4    C     C_R   0.495127 0.488163 0.101057 -0.051340
C5    C     C_R   0.451246 0.569869 0.866702 -0.030995
C6    C     C_R   0.559847 0.428900 0.135399 -0.029564
C7    C     C_R   0.392314 0.632510 0.884322 -0.139153
C8    C     C_R   0.626924 0.373112 0.119408 -0.139875
C9    C     C_R   0.568649 0.441414 0.881564 -0.030191
C10   C     C_R   0.427678 0.544345 0.117524 -0.030905
C11   C     C_R   0.504264 0.503284 0.647061 -0.079135
C12   C     C_R   0.496617 0.494833 0.353147 -0.081173
C13   C     C_R   0.434810 0.554269 0.016835 0.044444
C14   C     C_R   0.565763 0.434502 0.983099 0.044594
C15   C     C_R   0.565186 0.433032 0.034160 0.044324
C16   C     C_R   0.441814 0.561408 0.967077 0.043615
C17   C     C_R   0.498291 0.491723 0.050457 0.073522
C18   C     C_R   0.505493 0.499981 0.950131 0.073578
C19   C     C_R   0.365681 0.607244 0.034205 -0.212256
C20   C     C_R   0.624294 0.372192 0.963567 -0.211995
C21   C     C_R   0.362570 0.602466 0.083645 -0.145347
C22   C     C_R   0.625687 0.375852 0.913810 -0.145816
C23   C     C_R   0.501262 0.500812 0.593917 0.888479
C24   C     C_R   0.498895 0.498830 0.406132 0.885853
C25   C     C_R   0.387754 0.628679 0.933561 -0.213758
C26   C     C_R   0.629860 0.375130 0.069844 -0.212983
C27   C     C_R   0.406867 0.754146 0.493284 -0.115504
C28   C     C_R   0.594907 0.246091 0.516909 -0.129706
C29   C     C_R   0.293731 0.871903 0.507873 0.471813
C30   C     C_R   0.719039 0.124822 0.526545 0.468176
C31   C     C_R   0.318715 0.783730 0.499741 -0.301359
C32   C     C_R   0.688269 0.214269 0.520925 -0.293141
C33   C     C_R   0.468801 0.812370 0.493499 -0.280294
C34   C     C_R   0.533494 0.189427 0.520958 -0.277136
C35   C     C_R   0.451048 0.897816 0.507949 0.027076
C36   C     C_R   0.560889 0.099798 0.525026 0.034605
C37   C     C_R   0.361193 0.928485 0.513971 0.065517
C38   C     C_R   0.654213 0.067161 0.525697 0.059333
C39   C     C_R   0.520540 0.953133 0.516418 0.109561
C40   C     C_R   0.495603 0.042162 0.524479 0.109674
C41   C     C_R   0.406156 0.070731 0.531342 -0.266570
C42   C     C_R   0.614630 0.921993 0.518326 -0.265735
C43   C     C_R   0.340559 0.014770 0.526334 -0.198154
C44   C     C_R   0.680508 0.977817 0.524261 -0.201184
C45   C     C_R   0.454095 0.571464 0.816665 0.532674
C46   C     C_R   0.556843 0.427913 0.185429 0.530351
C47   C     C_R   0.849955 0.617709 0.584015 -0.431565
C48   C     C_R   0.150143 0.380840 0.416783 -0.436448
C49   C     C_R   0.756026 0.608738 0.565860 0.607887
C50   C     C_R   0.243831 0.390001 0.434845 0.588732
C51   C     C_R   0.792671 0.509358 0.504996 0.102703
C52   C     C_R   0.207295 0.490940 0.494926 0.105251
C53   C     C_R   0.885613 0.528100 0.516620 -0.045131
C54   C     C_R   0.114383 0.472046 0.483515 -0.047790
C55   C     C_R   0.914573 0.576738 0.559968 0.092995
C56   C     C_R   0.085432 0.422812 0.440423 0.100621
C57   C     C_R   0.952027 0.497065 0.489532 0.101813
C58   C     C_R   0.047973 0.503347 0.510560 0.100564
C59   C     C_R   0.074376 0.537056 0.558707 -0.252640
C60   C     C_R   0.925651 0.463386 0.441375 -0.253807
C61   C     C_R   0.008754 0.578593 0.581254 -0.163304
C62   C     C_R   0.991258 0.421254 0.419025 -0.163240
C63   C     C_R   0.568812 0.445077 0.831178 0.543963
C64   C     C_R   0.427386 0.541423 0.167901 0.546671
C65   C     C_R   0.583196 0.534552 0.732527 0.532290
C66   C     C_R   0.423578 0.453604 0.268662 0.534024
C67   C     C_R   0.579224 0.533017 0.681374 -0.354801
C68   C     C_R   0.426710 0.456936 0.319706 -0.354814
C69   C     C_R   0.431880 0.476841 0.663781 -0.225004
C70   C     C_R   0.565171 0.527421 0.335823 -0.227881
C71   C     C_R   0.434492 0.479856 0.714143 -0.197735
C72   C     C_R   0.563534 0.522768 0.285621 -0.196988
C73   C     C_R   0.509418 0.508866 0.748292 0.258962
C74   C     C_R   0.493452 0.485811 0.252244 0.256879
H1    H     H_    0.373333 0.453694 0.638055 0.163963
H2    H     H_    0.619848 0.556751 0.360966 0.165974
H3    H     H_    0.462361 0.216576 0.517610 0.169835
H4    H     H_    0.532081 0.788488 0.483394 0.167050
H5    H     H_    0.736874 0.258141 0.518525 0.179285
H6    H     H_    0.270315 0.738556 0.499886 0.175912
H7    H     H_    0.385573 0.135579 0.542438 0.145679
H8    H     H_    0.640564 0.854235 0.516488 0.133468
H9    H     H_    0.032154 0.608821 0.616858 0.149627
H10   H     H_    0.967896 0.390748 0.383507 0.150644
H11   H     H_    0.873010 0.653922 0.617412 0.166144
H12   H     H_    0.127404 0.344022 0.383577 0.156582
H13   H     H_    0.145444 0.530901 0.580262 0.143941
H14   H     H_    0.854644 0.469801 0.419723 0.145489
H15   H     H_    0.378488 0.459148 0.726878 0.155645
H16   H     H_    0.616450 0.548420 0.272392 0.157322
H17   H     H_    0.348938 0.684897 0.860014 0.188452
H18   H     H_    0.678177 0.327761 0.145292 0.187616
H19   H     H_    0.375904 0.428777 0.333408 0.196814
H20   H     H_    0.633690 0.555946 0.668344 0.195716
H21   H     H_    0.308806 0.645000 0.095228 0.187134
H22   H     H_    0.671564 0.326462 0.900658 0.187611
H23   H     H_    0.311503 0.652295 0.010339 0.142154
H24   H     H_    0.668696 0.318151 0.985385 0.142480
H25   H     H_    0.342208 0.680748 0.944355 0.142877
H26   H     H_    0.685425 0.331531 0.061125 0.141679
H27   H     H_    0.273199 0.039755 0.532040 0.190921
H28   H     H_    0.751561 0.950735 0.525587 0.187848
N1    N     N_R   0.511669 0.509158 0.800026 -0.333553
N2    N     N_R   0.491756 0.484160 0.200564 -0.333306
N3    N     N_R   0.731710 0.552720 0.528410 -0.133777
N4    N     N_R   0.268290 0.447280 0.471590 -0.129734
O1    O     O_R   0.383110 0.605620 0.485680 -0.601469
O2    O     O_R   0.616890 0.394380 0.514320 -0.601042
O3    O     O_R   0.531900 0.639510 0.503910 -0.598166
O4    O     O_R   0.468100 0.360490 0.496090 -0.596664
O5    O     O_R   0.425620 0.483050 0.562130 -0.634692
O6    O     O_R   0.574380 0.516950 0.437870 -0.633220
O7    O     O_R   0.574410 0.516930 0.580360 -0.569908
O8    O     O_R   0.425590 0.483070 0.419640 -0.569852
O9    O     O_2   0.399626 0.634371 0.784752 -0.558751
O10   O     O_2   0.618471 0.371530 0.218802 -0.561822
O11   O     O_2   0.364331 0.596177 0.184392 -0.580863
O12   O     O_2   0.624634 0.384603 0.813192 -0.581161
Zn1   Zn    Zn3+2 0.400660 0.477380 0.487830 0.989256
Zn2   Zn    Zn3+2 0.599340 0.522620 0.512170 0.988818
O13   O     O_3   0.206964 0.901086 0.515065 -0.616984
C75   C     C_3   0.139369 0.901727 0.468855 0.066037
H29   H     H_    0.132279 0.834353 0.456083 0.146496
H30   H     H_    0.157182 0.939712 0.439615 0.137294
C76   C     C_3   0.045804 0.944262 0.475120 -0.776316
H31   H     H_    0.050118 0.012221 0.487106 0.253528
H32   H     H_    0.991985 0.944899 0.439031 0.211729
H33   H     H_    0.025319 0.907363 0.503611 0.256410
O14   O     O_3   0.810559 0.093589 0.528251 -0.617449
C77   C     C_3   0.865578 0.102925 0.577204 0.069132
H34   H     H_    0.841104 0.067879 0.605108 0.139631
H35   H     H_    0.864247 0.172786 0.586738 0.146153
C78   C     C_3   0.965704 0.064210 0.580666 -0.789085
H36   H     H_    0.992780 0.098731 0.553868 0.254856
H37   H     H_    0.009543 0.071022 0.619097 0.210722
H38   H     H_    0.969628 0.994149 0.571932 0.255168
N5    N     N_3   0.234511 0.566601 0.521442 -0.406139
H39   H     H_    0.178517 0.616760 0.516439 0.173767
H40   H     H_    0.265191 0.550872 0.559149 0.191107
N6    N     N_3   0.765342 0.433886 0.478284 -0.404840
H41   H     H_    0.734810 0.449807 0.440581 0.192577
H42   H     H_    0.821127 0.383502 0.483349 0.176117
O15   O     O_3   0.309191 0.354498 0.410393 -0.591007
C79   C     C_3   0.315024 0.263011 0.410045 0.070128
H43   H     H_    0.252040 0.242707 0.384355 0.134512
H44   H     H_    0.324217 0.235344 0.448268 0.131919
C80   C     C_3   0.398317 0.225151 0.391216 -0.770441
H45   H     H_    0.462749 0.246346 0.414668 0.261583
H46   H     H_    0.406199 0.153046 0.392789 0.210214
H47   H     H_    0.388214 0.247582 0.351965 0.250440
O16   O     O_3   0.689848 0.641833 0.590566 -0.589563
C81   C     C_3   0.693159 0.730137 0.602842 0.069187
H48   H     H_    0.622462 0.766591 0.587515 0.186301
H49   H     H_    0.740971 0.762443 0.586753 0.113291
C82   C     C_3   0.718112 0.738555 0.659417 -0.841420
H50   H     H_    0.787330 0.700868 0.676737 0.240083
H51   H     H_    0.719804 0.807938 0.668933 0.225115
H52   H     H_    0.665319 0.713810 0.674963 0.270664
O17   O     O_3   0.358318 0.413498 0.234499 -0.608494
C83   C     C_3   0.267174 0.443534 0.238109 0.107176
H53   H     H_    0.256791 0.514541 0.245298 0.162115
H54   H     H_    0.251438 0.406578 0.268277 0.144506
C84   C     C_3   0.198447 0.428131 0.188987 -0.774056
H55   H     H_    0.205217 0.357728 0.180953 0.255184
H56   H     H_    0.126377 0.450824 0.191346 0.201003
H57   H     H_    0.212202 0.464532 0.158028 0.267445
O18   O     O_3   0.653651 0.567012 0.767544 -0.607932
C85   C     C_3   0.742215 0.528510 0.763470 0.101060
H58   H     H_    0.762199 0.562901 0.733791 0.142505
H59   H     H_    0.744591 0.457904 0.755314 0.161620
C86   C     C_3   0.813532 0.537083 0.812786 -0.773788
H60   H     H_    0.795659 0.503057 0.843292 0.266696
H61   H     H_    0.883681 0.507635 0.810084 0.200468
H62   H     H_    0.814708 0.606760 0.821746 0.255902

loop_
_geom_bond_atom_site_label_1
_geom_bond_atom_site_label_2
_ccdc_geom_bond_type
C66   C68   A    
C86   H60   S    
C24   O8    A    
N4    Zn1   S    
C82   H51   S    
C8    C26   A    
C14   C18   A    
C77   H35   S    
C84   H55   S    
C24   O6    A    
C19   H23   S    
O6    Zn2   S    
C31   H6    S    
C47   C49   A    
C27   C33   A    
C42   H8    S    
C12   C68   A    
C47   H11   S    
O5    Zn1   S    
C80   H46   S    
N6    H42   S    
C34   H3    S    
C9    C22   A    
O15   C79   S    
C66   C74   A    
C65   C73   A    
C30   C38   A    
C3    C18   A    
C60   C62   A    
C11   C23   S    
C69   C71   A    
O2    Zn2   S    
C15   C26   A    
C62   H10   S    
C45   N1    A    
C1    O3    A    
C65   O18   S    
C25   H25   S    
C85   C86   S    
C2    O4    A    
C80   H45   S    
C52   C54   A    
C65   C67   A    
C29   O13   S    
C78   H38   S    
O16   C81   S    
N3    Zn2   S    
C8    H18   S    
C50   N4    A    
C34   C36   A    
O8    Zn1   S    
C51   N6    S    
C85   H59   S    
C52   N4    A    
C82   H52   S    
C78   H37   S    
C41   C43   A    
C42   C44   A    
C79   C80   S    
O1    Zn1   S    
C66   O17   S    
C11   C67   A    
C39   C42   A    
C5    C7    A    
C53   C55   A    
C10   C21   A    
C60   H14   S    
C86   H62   S    
C54   C56   A    
C59   C61   A    
C70   C72   A    
C49   O16   S    
C27   C31   A    
C83   C84   S    
C14   C20   A    
C36   C40   A    
C80   H47   S    
N6    H41   S    
C63   N1    A    
C61   H9    S    
C39   C40   A    
C71   C73   A    
C63   O12   S    
C53   C57   A    
C57   C60   A    
C6    C8    A    
C21   H21   S    
C58   C59   A    
C5    C45   A    
C64   O11   S    
C51   C53   A    
C83   H54   S    
C37   C43   A    
C35   C39   A    
C43   H27   S    
C38   C44   A    
C3    C9    A    
C23   O7    A    
C79   H44   S    
C72   H16   S    
C45   O9    S    
O17   C83   S    
C71   H15   S    
C81   C82   S    
C28   C32   A    
C51   N3    A    
C41   H7    S    
C84   H57   S    
C52   N5    S    
C74   N2    S    
C76   H32   S    
C48   C50   A    
N5    H40   S    
O13   C75   S    
C1    O1    A    
C4    C17   A    
C72   C74   A    
C40   C41   A    
C81   H49   S    
C70   H2    S    
C78   H36   S    
C48   H12   S    
C4    C6    A    
C4    C10   A    
C7    H17   S    
O18   C85   S    
C50   O15   S    
C47   C55   A    
O14   C77   S    
C54   C58   A    
C16   C25   A    
C48   C56   A    
C12   C70   A    
C85   H58   S    
C44   H28   S    
C6    C46   A    
C35   C37   A    
C9    C63   A    
C22   H22   S    
C64   N2    A    
C20   C22   A    
C79   H43   S    
C3    C5    A    
O4    Zn1   S    
C49   N3    A    
C11   C69   A    
C15   C17   A    
C46   O10   S    
C86   H61   S    
C30   O14   S    
C23   O5    A    
N5    H39   S    
C12   C24   S    
C10   C64   A    
C68   H19   S    
C7    C25   A    
C13   C17   A    
C83   H53   S    
C75   C76   S    
C36   C38   A    
C77   H34   S    
C29   C31   A    
C32   H5    S    
C30   C32   A    
C57   C58   A    
C76   H31   S    
O7    Zn2   S    
C46   N2    A    
C76   H33   S    
C55   C61   A    
C2    O2    A    
C33   C35   A    
C69   H1    S    
C56   C62   A    
C67   H20   S    
C33   H4    S    
C59   H13   S    
C28   C34   A    
C77   C78   S    
C73   N1    S    
C20   H24   S    
C81   H48   S    
C16   C18   A    
C13   C16   A    
C29   C37   A    
C82   H50   S    
C1    C27   S    
C13   C19   A    
C14   C15   A    
C84   H56   S    
C2    C28   S    
C75   H29   S    
C75   H30   S    
O3    Zn2   S    
C26   H26   S    
C19   C21   A    
