data_mof_unit_15349.cif
_audit_creation_date              2012-12-11T17:47:21-0500
_audit_creation_method            fapswitch 2.2
_symmetry_space_group_name_H-M    P1
_symmetry_Int_Tables_number       1
_space_group_crystal_system       triclinic
_cell_length_a                    14.960288
_cell_length_b                    14.972098
_cell_length_c                    15.170194
_cell_angle_alpha                 110.734822
_cell_angle_beta                  108.875823
_cell_angle_gamma                 108.618448
_cell_volume                      2620.86140506

loop_
_atom_site_label
_atom_site_type_symbol
_atom_type_description
_atom_site_fract_x
_atom_site_fract_y
_atom_site_fract_z
_atom_type_partial_charge
C1    C     C_R   0.929012 0.206979 0.014285 -0.071719
C2    C     C_R   0.021612 0.748236 0.935885 -0.085175
C3    C     C_R   0.296041 0.869908 0.298375 0.080596
C4    C     C_R   0.677736 0.210287 0.672682 0.087435
C5    C     C_R   0.326717 0.501500 0.033748 0.047477
C6    C     C_R   0.695032 0.498926 0.058629 0.042734
C7    C     C_R   0.030226 0.498526 0.321705 0.060944
C8    C     C_R   0.053525 0.497886 0.694968 0.053675
C9    C     C_R   0.925211 0.867350 0.852578 0.425139
C10   C     C_R   0.956559 0.031497 0.042333 0.438687
C11   C     C_R   0.031412 0.072166 0.694636 -0.197385
C12   C     C_R   0.868229 0.887883 0.237648 -0.207450
C13   C     C_R   0.969184 0.016449 0.728979 -0.095058
C14   C     C_R   0.919216 0.914529 0.181119 -0.048273
C15   C     C_R   0.671040 0.345857 0.212413 -0.105126
C16   C     C_R   0.393978 0.699756 0.882058 -0.124821
C17   C     C_R   0.776962 0.406689 0.299174 -0.107134
C18   C     C_R   0.303465 0.619664 0.780493 -0.118803
C19   C     C_R   0.838418 0.354971 0.318006 0.090648
C20   C     C_R   0.252352 0.650046 0.709866 0.110158
C21   C     C_R   0.792567 0.241818 0.248733 -0.187710
C22   C     C_R   0.296002 0.761437 0.740899 -0.145853
C23   C     C_R   0.295014 0.804593 0.206000 -0.101194
C24   C     C_R   0.685654 0.239702 0.774738 -0.101219
C25   C     C_R   0.686907 0.181502 0.161516 -0.102408
C26   C     C_R   0.387240 0.841161 0.842112 -0.093859
C27   C     C_R   0.626060 0.233499 0.143452 -0.104180
C28   C     C_R   0.435517 0.810513 0.913057 -0.109944
C29   C     C_R   0.961971 0.417923 0.504214 -0.210057
C30   C     C_R   0.139291 0.565363 0.511899 -0.208075
C31   C     C_R   0.059112 0.492336 0.601267 0.072011
C32   C     C_R   0.040386 0.493277 0.416020 0.080614
C33   C     C_R   0.149700 0.567040 0.606777 0.020517
C34   C     C_R   0.950005 0.419535 0.411718 0.023480
C35   C     C_R   0.020908 0.005017 0.816418 0.227604
C36   C     C_R   0.857445 0.897062 0.078421 0.192231
C37   C     C_R   0.192825 0.090357 0.822988 -0.148968
C38   C     C_R   0.696377 0.836055 0.095722 -0.137008
C39   C     C_R   0.122825 0.043848 0.452083 -0.256865
C40   C     C_R   0.780247 0.988490 0.475808 -0.261268
C41   C     C_R   0.215522 0.064451 0.441704 0.501535
C42   C     C_R   0.694717 0.001095 0.485528 0.507386
C43   C     C_R   0.285804 0.029667 0.486428 -0.041435
C44   C     C_R   0.667977 0.075029 0.461521 -0.037107
C45   C     C_R   0.226846 0.409090 0.961917 -0.143051
C46   C     C_R   0.787681 0.590392 0.093776 -0.167658
C47   C     C_R   0.264516 0.978388 0.544645 -0.257326
C48   C     C_R   0.725303 0.132392 0.424447 -0.255626
C49   C     C_R   0.168347 0.952314 0.548793 -0.082682
C50   C     C_R   0.813420 0.122277 0.419446 -0.077297
C51   C     C_R   0.096863 0.983632 0.501064 -0.190060
C52   C     C_R   0.840807 0.050788 0.445199 -0.176105
C53   C     C_R   0.481595 0.132576 0.566661 -0.196390
C54   C     C_R   0.477949 0.017512 0.375637 -0.177997
C55   C     C_R   0.578663 0.145385 0.567791 0.081061
C56   C     C_R   0.382151 0.983714 0.380844 0.098987
C57   C     C_R   0.576417 0.087828 0.469370 0.080874
C58   C     C_R   0.383144 0.048679 0.475683 0.108885
C59   C     C_R   0.143073 0.110253 0.742490 -0.102123
C60   C     C_R   0.757699 0.850949 0.196248 -0.065580
C61   C     C_R   0.909522 0.923565 0.016380 -0.164042
C62   C     C_R   0.965855 0.974971 0.874553 -0.166545
C63   C     C_R   0.132122 0.038361 0.860405 -0.133499
C64   C     C_R   0.745525 0.857834 0.036037 -0.156153
C65   C     C_R   0.907736 0.843861 0.928972 -0.110186
C66   C     C_R   0.977070 0.056605 0.968017 -0.132346
C67   C     C_R   0.052657 0.591931 0.314207 -0.141204
C68   C     C_R   0.000352 0.407588 0.699319 -0.168131
C69   C     C_3   0.491850 0.395596 0.008145 -0.177246
C70   C     C_3   0.536464 0.604801 0.110660 -0.157987
C71   C     C_3   0.439931 0.449531 0.954942 -0.152034
C72   C     C_3   0.589722 0.551315 0.164366 -0.144559
C73   C     C_3   0.426921 0.501856 0.053318 0.183746
C74   C     C_3   0.601700 0.498720 0.065282 0.173823
C75   C     C_3   0.477277 0.448033 0.106808 -0.145495
C76   C     C_3   0.550188 0.552348 0.012101 -0.144648
C77   C     C_R   0.315659 0.593246 0.057424 -0.121457
C78   C     C_R   0.697230 0.407977 0.998821 -0.121375
C79   C     C_R   0.968199 0.407606 0.219808 -0.073048
C80   C     C_R   0.086385 0.590538 0.788056 -0.073728
C81   C     C_R   0.205532 0.804784 0.297832 -0.128356
C82   C     C_R   0.781288 0.248470 0.687443 -0.115336
C83   C     C_R   0.034220 0.218006 0.938331 -0.147431
C84   C     C_R   0.919370 0.730259 0.013944 -0.161535
C85   C     C_R   0.987338 0.160890 0.979626 0.176427
C86   C     C_R   0.937312 0.764761 0.945932 0.174706
H1    H     H_    0.868086 0.172273 0.033822 0.119970
H2    H     H_    0.060685 0.770432 0.892523 0.135288
H3    H     H_    0.994446 0.089955 0.634044 0.132387
H4    H     H_    0.913130 0.893373 0.312604 0.121801
H5    H     H_    0.279073 0.119028 0.859288 0.112132
H6    H     H_    0.610730 0.806404 0.064110 0.103100
H7    H     H_    0.544184 0.186851 0.076010 0.097118
H8    H     H_    0.504626 0.873018 0.992152 0.098962
H9    H     H_    0.623714 0.385759 0.198969 0.119568
H10   H     H_    0.430645 0.675547 0.936887 0.106884
H11   H     H_    0.810904 0.493755 0.351942 0.124427
H12   H     H_    0.271558 0.534343 0.758094 0.114922
H13   H     H_    0.839949 0.201282 0.259683 0.159641
H14   H     H_    0.257533 0.786860 0.688162 0.110263
H15   H     H_    0.652468 0.094629 0.107674 0.113946
H16   H     H_    0.419489 0.926902 0.866273 0.102468
H17   H     H_    0.891194 0.365216 0.502467 0.133814
H18   H     H_    0.207252 0.621511 0.512828 0.141075
H19   H     H_    0.883904 0.992303 0.695352 0.157412
H20   H     H_    0.005422 0.943812 0.214387 0.164224
H21   H     H_    0.443868 0.405640 0.144950 0.134178
H22   H     H_    0.581817 0.594536 0.972916 0.129641
H23   H     H_    0.341995 0.830299 0.170031 0.080643
H24   H     H_    0.620610 0.222427 0.793524 0.089128
H25   H     H_    0.172723 0.029414 0.927597 0.120563
H26   H     H_    0.696867 0.845235 0.957640 0.131381
H27   H     H_    0.021771 0.962190 0.503144 0.139196
H28   H     H_    0.909286 0.043886 0.441557 0.130099
H29   H     H_    0.069762 0.072624 0.420009 0.171962
H30   H     H_    0.800773 0.931353 0.493232 0.162034
H31   H     H_    0.319486 0.953477 0.581487 0.151635
H32   H     H_    0.704393 0.187872 0.403764 0.156960
H33   H     H_    0.149257 0.908026 0.589015 0.139387
H34   H     H_    0.861862 0.170658 0.397192 0.134051
H35   H     H_    0.481816 0.181105 0.639403 0.124547
H36   H     H_    0.480326 0.974910 0.303031 0.116654
H37   H     H_    0.376653 0.408251 0.869050 0.117085
H38   H     H_    0.654212 0.592662 0.249666 0.127390
H39   H     H_    0.474686 0.309565 0.966469 0.103817
H40   H     H_    0.549873 0.689154 0.152151 0.106730
H41   H     H_    0.212082 0.326913 0.918342 0.108836
H42   H     H_    0.814638 0.673730 0.151483 0.119291
H43   H     H_    0.095763 0.676331 0.379112 0.107996
H44   H     H_    0.975530 0.323530 0.644890 0.112228
H45   H     H_    0.378137 0.678223 0.105199 0.097020
H46   H     H_    0.642148 0.323565 0.968878 0.088799
H47   H     H_    0.937151 0.323113 0.198069 0.143232
H48   H     H_    0.137491 0.674820 0.814218 0.106746
H49   H     H_    0.170668 0.829247 0.347168 0.117590
H50   H     H_    0.807593 0.248625 0.629946 0.118709
H51   H     H_    0.080037 0.202583 0.900134 0.125944
H52   H     H_    0.853366 0.720313 0.030019 0.127376
H53   H     H_    0.191172 0.155563 0.717394 0.133384
H54   H     H_    0.719993 0.833426 0.242332 0.121257
N1    N     N_R   0.947560 0.293820 0.002910 -0.054387
N2    N     N_R   0.052440 0.706180 0.997090 -0.057000
N3    N     N_R   0.208960 0.706170 0.152110 -0.041067
N4    N     N_R   0.791040 0.293830 0.847890 -0.046794
N5    N     N_R   0.154330 0.443160 0.946140 -0.039811
N6    N     N_R   0.845670 0.556840 0.053860 -0.039191
N7    N     N_R   0.002190 0.556820 0.208880 -0.041689
N8    N     N_R   0.997810 0.443180 0.791120 -0.039096
N9    N     N_R   0.210550 0.556810 0.002910 -0.043193
N10   N     N_R   0.789450 0.443190 0.997090 -0.038529
N11   N     N_R   0.945970 0.443180 0.152110 -0.050619
N12   N     N_R   0.054030 0.556820 0.847890 -0.044287
N13   N     N_R   0.151530 0.706170 0.208880 -0.040783
N14   N     N_R   0.848470 0.293830 0.791120 -0.044894
N15   N     N_R   0.004980 0.293810 0.946140 -0.045688
N16   N     N_R   0.995020 0.706190 0.053860 -0.049035
Ni1   Ni    Ni4+2 0.869690 0.369690 0.000000 0.225416
Ni2   Ni    Ni4+2 0.130310 0.630310 0.000000 0.219670
Ni3   Ni    Ni4+2 0.001390 0.369680 0.869810 0.223341
Ni4   Ni    Ni4+2 0.998610 0.630320 0.130190 0.218393
Cl1   Cl    Cl    0.241904 0.134338 0.373262 -0.622980
Cl2   Cl    Cl    0.622264 0.922915 0.527162 -0.678867
Cl3   Cl    Cl    0.900565 0.762326 0.730992 -0.670725
Cl4   Cl    Cl    0.998796 0.136350 0.173930 -0.668127

loop_
_geom_bond_atom_site_label_1
_geom_bond_atom_site_label_2
_ccdc_geom_bond_type
C16   C28   A    
C39   C51   A    
C75   H21   S    
N10   Ni1   S    
C41   Cl1   S    
C73   C75   S    
C3    C23   A    
N6    Ni4   S    
C40   H30   S    
C66   C85   S    
C80   H48   S    
C65   C86   S    
C47   C49   A    
C49   H33   S    
C51   H27   S    
C74   C76   S    
C50   H34   S    
N11   Ni1   S    
C71   H37   S    
C19   C21   A    
C45   H41   S    
C13   C35   A    
C15   H9    S    
C71   C76   S    
C21   H13   S    
N3    N13   A    
C83   N15   A    
C38   H6    S    
C11   C13   A    
C81   N13   A    
C29   H17   S    
C28   H8    S    
C77   H45   S    
C2    C86   A    
C1    H1    S    
C9    Cl3   S    
C78   H46   S    
C14   C36   A    
C22   C26   A    
C43   C58   S    
N6    N10   A    
C47   H31   S    
C1    N1    A    
C49   C51   A    
C3    C81   A    
C50   C52   A    
C31   C33   A    
C2    H2    S    
C6    C74   S    
N9    Ni2   S    
C38   C64   A    
C68   N8    A    
C70   H40   S    
C10   C66   A    
C54   H36   S    
C69   H39   S    
C76   H22   S    
N5    Ni3   S    
C72   H38   S    
N4    N14   A    
C41   C43   A    
C23   N3    A    
C67   H43   S    
C42   C44   A    
N2    Ni2   S    
C72   C75   S    
C11   C59   A    
N7    Ni4   S    
C37   C63   A    
C81   H49   S    
C54   C56   A    
C53   C55   A    
C1    C85   A    
C23   H23   S    
N12   Ni2   S    
C16   H10   S    
C22   H14   S    
C37   H5    S    
N15   Ni3   S    
C9    C62   A    
N16   Ni4   S    
C24   H24   S    
C72   C74   S    
C77   N9    A    
C71   C73   S    
C62   C66   A    
N1    N15   A    
C48   H32   S    
C40   C52   A    
C5    C45   A    
C29   C34   A    
N8    Ni3   S    
C12   C60   A    
N7    N11   A    
C3    C56   S    
C11   H3    S    
C15   C27   A    
C82   H50   S    
C59   H53   S    
C44   C57   S    
C70   C73   S    
C69   C74   S    
C68   H44   S    
C37   C59   A    
C60   H54   S    
C38   C60   A    
C20   C33   S    
C13   H19   S    
C83   C85   A    
C12   C14   A    
C8    C68   A    
C39   H29   S    
C55   C57   A    
C4    C55   S    
C70   C76   S    
C2    N2    A    
C45   N5    A    
C27   H7    S    
C10   C61   A    
C5    C77   A    
C36   C61   S    
C83   H51   S    
C78   N10   A    
N3    Ni2   S    
C7    C79   A    
C79   N11   A    
N1    Ni1   S    
C80   N12   A    
C21   C25   A    
C10   Cl4   S    
C7    C32   S    
C6    C46   A    
C30   C33   A    
C8    C31   S    
C5    C73   S    
N8    N12   A    
C20   C22   A    
C40   C42   A    
C19   C34   S    
C12   H4    S    
C70   C72   S    
C53   C58   A    
C42   Cl2   S    
C15   C17   A    
C52   H28   S    
C25   C27   A    
C26   C28   A    
C69   C71   S    
C84   H52   S    
N13   Ni4   S    
N14   Ni3   S    
C29   C31   A    
C53   H35   S    
C26   H16   S    
C30   C32   A    
C84   N16   A    
C25   H15   S    
C46   N6    A    
C17   H11   S    
C24   N4    A    
C4    C24   A    
C48   C50   A    
C17   C19   A    
C56   C58   A    
C69   C75   S    
C35   C62   S    
C18   C20   A    
C63   H25   S    
C79   H47   S    
C9    C65   A    
C64   H26   S    
C6    C78   A    
C7    C67   A    
C82   N14   A    
C61   C65   A    
C14   H20   S    
C4    C82   A    
C39   C41   A    
C16   C18   A    
C46   H42   S    
C67   N7    A    
C30   H18   S    
C8    C80   A    
C84   C86   A    
C35   C63   A    
C18   H12   S    
N2    N16   A    
N4    Ni1   S    
C36   C64   A    
C43   C47   A    
N5    N9    A    
C44   C48   A    
C32   C34   A    
C54   C57   A    
