data_mof_unit_35030.cif
_audit_creation_date              2012-12-10T18:57:10-0500
_audit_creation_method            fapswitch 2.2
_symmetry_space_group_name_H-M    P1
_symmetry_Int_Tables_number       1
_space_group_crystal_system       triclinic
_cell_length_a                    8.819802
_cell_length_b                    10.822133
_cell_length_c                    9.544141
_cell_angle_alpha                 89.499817
_cell_angle_beta                  98.054739
_cell_angle_gamma                 90.778496
_cell_volume                      901.887562389

loop_
_atom_site_label
_atom_site_type_symbol
_atom_type_description
_atom_site_fract_x
_atom_site_fract_y
_atom_site_fract_z
_atom_type_partial_charge
C1    C     C_R   0.501955 0.262386 0.500930 0.804733
C2    C     C_R   0.569965 0.937476 0.394550 -0.192463
C3    C     C_R   0.508602 0.871008 0.500892 -0.066116
C4    C     C_R   0.465825 0.934679 0.614989 0.112905
C5    C     C_3   0.318165 0.928071 0.674988 -0.450123
C6    C     C_3   0.327668 0.068153 0.685474 -0.234903
C7    C     C_R   0.604096 0.570319 0.086805 0.264887
C8    C     C_R   0.403722 0.424989 0.062637 -0.016428
C9    C     C_R   0.402976 0.425744 0.913759 0.006538
C10   C     C_R   0.605923 0.569300 0.939100 0.193210
C11   C     C_3   0.622195 0.707156 0.935662 -0.362304
C12   C     C_R   0.204201 0.497631 0.464157 0.813172
C13   C     C_3   0.618593 0.707493 0.094075 -0.575604
C14   C     C_R   0.500310 0.737644 0.499522 0.821871
C15   C     C_R   0.795500 0.498200 0.536027 0.849778
C16   C     C_2   0.040061 0.478603 0.447348 -0.275284
C17   C     C_2   0.959966 0.508363 0.554665 -0.277867
C18   C     C_R   0.471945 0.061961 0.619250 0.138514
C19   C     C_R   0.513691 0.129324 0.504788 -0.117110
C20   C     C_R   0.571250 0.066404 0.395714 -0.149073
Cu1   Cu    Cu3+1 0.499990 0.499980 0.640670 1.008412
Cu2   Cu    Cu3+1 0.500010 0.500020 0.359330 0.996717
H1    H     H_    0.321391 0.368385 0.847802 0.162195
H2    H     H_    0.513413 0.751117 0.121665 0.230161
H3    H     H_    0.612913 0.116434 0.309697 0.201104
H4    H     H_    0.613023 0.890535 0.309152 0.162638
H5    H     H_    0.328612 0.878914 0.778429 0.220442
H6    H     H_    0.233588 0.116738 0.617826 0.143817
H7    H     H_    0.323605 0.366005 0.108672 0.153316
N1    N     N_R   0.500980 0.500930 0.148050 -0.188091
N2    N     N_R   0.500990 0.500890 0.852140 -0.199728
O1    O     O_R   0.500000 0.319640 0.618810 -0.570603
O2    O     O_R   0.500020 0.319680 0.381230 -0.579972
O3    O     O_R   0.274830 0.499980 0.591380 -0.585407
O4    O     O_R   0.274850 0.500020 0.353800 -0.552097
O5    O     O_R   0.499980 0.680320 0.618770 -0.578959
O6    O     O_R   0.500000 0.680360 0.381190 -0.595846
O7    O     O_R   0.725150 0.499980 0.646200 -0.565171
O8    O     O_R   0.725170 0.500020 0.408620 -0.566973
C21   C     C_2   0.973077 0.407591 0.319474 0.882021
O9    O     O_2   0.895245 0.314794 0.332230 -0.584793
O10   O     O_R   0.004141 0.444507 0.185594 -0.767644
H8    H     H_    0.953290 0.388684 0.107539 0.345289
C22   C     C_2   0.771818 0.752729 0.892284 0.984145
O11   O     O_2   0.769023 0.828640 0.796735 -0.527947
O12   O     O_R   0.913764 0.712531 0.959692 -0.711849
H9    H     H_    0.905834 0.646879 0.034459 0.315466
H10   H     H_    0.520291 0.751802 0.876053 0.190741
H11   H     H_    0.726413 0.738158 0.159735 0.200859
C23   C     C_2   0.029594 0.566052 0.689600 0.938720
O13   O     O_2   0.080351 0.671778 0.689984 -0.571039
O14   O     O_R   0.037970 0.497676 0.815234 -0.747881
H12   H     H_    0.096949 0.542684 0.898716 0.352927
H13   H     H_    0.221391 0.895023 0.596307 0.223625
C24   C     C_2   0.352324 0.111249 0.836931 0.878561
O15   O     O_2   0.479547 0.143644 0.893763 -0.581842
O16   O     O_R   0.227752 0.112418 0.912630 -0.726472
H14   H     H_    0.257212 0.141859 0.013437 0.322823

loop_
_geom_bond_atom_site_label_1
_geom_bond_atom_site_label_2
_ccdc_geom_bond_type
C17   C23   S    
C7    C10   A    
C23   O14   S    
C24   O15   D    
C15   O7    A    
C2    C20   A    
C11   C13   S    
C19   C20   A    
C6    C24   S    
C4    C18   A    
C21   O10   S    
C2    C3    A    
O16   H14   S    
C8    N1    A    
C11   C22   S    
C2    H4    S    
Cu1   O5    S    
Cu1   Cu2   S    
O14   H12   S    
C14   O6    A    
Cu2   O4    S    
Cu1   N2    S    
C15   O8    A    
C11   H10   S    
C4    C5    S    
C3    C14   S    
C16   C21   S    
C13   H11   S    
C8    H7    S    
C21   O9    D    
C22   O12   S    
C23   O13   D    
C10   C11   S    
C24   O16   S    
C14   O5    A    
C5    C6    S    
C6    C18   S    
Cu1   O1    S    
C6    H6    S    
C1    C19   S    
O10   H8    S    
Cu2   O8    S    
C1    O2    A    
C3    C4    A    
C5    H13   S    
C7    C13   S    
C22   O11   D    
C15   C17   S    
C18   C19   A    
C20   H3    S    
C7    N1    A    
Cu2   O2    S    
C9    N2    A    
O12   H9    S    
C16   C17   D    
Cu1   O3    S    
Cu2   N1    S    
C5    H5    S    
Cu2   O6    S    
C12   O3    A    
C10   N2    A    
C1    O1    A    
C9    H1    S    
Cu1   O7    S    
C12   C16   S    
C13   H2    S    
C8    C9    A    
C12   O4    A    
