data_mof_unit_21074.cif
_audit_creation_date              2012-12-11T16:23:25-0500
_audit_creation_method            fapswitch 2.2
_symmetry_space_group_name_H-M    P1
_symmetry_Int_Tables_number       1
_space_group_crystal_system       triclinic
_cell_length_a                    19.930099
_cell_length_b                    7.195203
_cell_length_c                    19.892866
_cell_angle_alpha                 90.000051
_cell_angle_beta                  98.904794
_cell_angle_gamma                 90.0
_cell_volume                      2818.27569345

loop_
_atom_site_label
_atom_site_type_symbol
_atom_type_description
_atom_site_fract_x
_atom_site_fract_y
_atom_site_fract_z
_atom_type_partial_charge
O1    O     O_R   0.188410 0.619490 0.310050 -0.507837
O2    O     O_R   0.811590 0.380510 0.689950 -0.501159
O3    O     O_R   0.311590 0.119490 0.189950 -0.507840
O4    O     O_R   0.688410 0.880510 0.810050 -0.501160
O5    O     O_R   0.327280 0.288800 0.321740 -0.513031
O6    O     O_R   0.672720 0.711200 0.678260 -0.522735
O7    O     O_R   0.172720 0.788800 0.178260 -0.513030
O8    O     O_R   0.827280 0.211200 0.821740 -0.522735
C1    C     C_R   0.351711 0.459620 0.338732 0.718461
C2    C     C_R   0.648249 0.540321 0.661356 0.749185
C3    C     C_R   0.148289 0.959620 0.161268 0.718468
C4    C     C_R   0.851751 0.040322 0.838644 0.749184
O9    O     O_R   0.189900 0.289710 0.318190 -0.544021
O10   O     O_R   0.810100 0.710290 0.681810 -0.534826
O11   O     O_R   0.310100 0.789710 0.181810 -0.544020
O12   O     O_R   0.689900 0.210290 0.818190 -0.534827
O13   O     O_R   0.173230 0.120350 0.186370 -0.546381
O14   O     O_R   0.826770 0.879650 0.813630 -0.543641
O15   O     O_R   0.326770 0.620350 0.313630 -0.546379
O16   O     O_R   0.673230 0.379650 0.686370 -0.543642
C5    C     C_R   0.168724 0.458403 0.332649 0.757763
C6    C     C_R   0.832587 0.541537 0.668202 0.743908
C7    C     C_R   0.331275 0.958403 0.167350 0.757764
C8    C     C_R   0.667412 0.041537 0.831798 0.743908
O17   O     O_3   0.244690 0.453290 0.206760 -0.375118
O18   O     O_3   0.755310 0.546710 0.793240 -0.369588
O19   O     O_3   0.255310 0.953290 0.293240 -0.375115
O20   O     O_3   0.744690 0.046710 0.706760 -0.369587
V1    V     V_3+5 0.250980 0.178070 0.258020 1.574496
V2    V     V_3+5 0.749020 0.821930 0.741980 1.599263
V3    V     V_3+5 0.249020 0.678070 0.241980 1.574500
V4    V     V_3+5 0.750980 0.321930 0.758020 1.599263
C9    C     C_R   0.490910 0.067982 0.090785 -0.195810
C10   C     C_R   0.522129 0.874732 0.922751 -0.199834
C11   C     C_R   0.009091 0.567986 0.409215 -0.195815
C12   C     C_R   0.977870 0.374730 0.577248 -0.199836
H1    H     H_    0.539999 0.131930 0.105981 0.165122
H2    H     H_    0.487495 0.758539 0.920496 0.165740
H3    H     H_    0.960002 0.631938 0.394020 0.165122
H4    H     H_    0.012504 0.258535 0.579502 0.165740
C13   C     C_R   0.445688 0.057302 0.138422 0.454909
C14   C     C_R   0.565447 0.887256 0.873517 0.455928
C15   C     C_R   0.054313 0.557307 0.361579 0.454904
C16   C     C_R   0.934552 0.387255 0.626483 0.455927
C17   C     C_R   0.381881 0.968965 0.120213 -0.160111
C18   C     C_R   0.615303 0.030505 0.878339 -0.169241
C19   C     C_R   0.118119 0.468966 0.379787 -0.160112
C20   C     C_R   0.884697 0.530505 0.621661 -0.169242
C21   C     C_R   0.365270 0.893961 0.054753 -0.224201
C22   C     C_R   0.615291 0.165803 0.929386 -0.175497
C23   C     C_R   0.134729 0.393957 0.445246 -0.224200
C24   C     C_R   0.884709 0.665804 0.570614 -0.175495
H5    H     H_    0.316470 0.827590 0.039575 0.132020
H6    H     H_    0.651466 0.279178 0.933776 0.157937
H7    H     H_    0.183528 0.327583 0.460423 0.132022
H8    H     H_    0.848536 0.779180 0.566225 0.157940
C25   C     C_R   0.409956 0.909597 0.007300 -0.106936
C26   C     C_R   0.569155 0.157004 0.975775 -0.110434
C27   C     C_R   0.090043 0.409593 0.492699 -0.106937
C28   C     C_R   0.930846 0.657006 0.524226 -0.110434
C29   C     C_R   0.473845 0.995794 0.024561 0.039407
C30   C     C_R   0.522524 0.009319 0.974013 0.039047
C31   C     C_R   0.026155 0.495794 0.475439 0.039409
C32   C     C_R   0.977475 0.509319 0.525987 0.039048
C33   C     C_R   0.086328 0.981723 0.109114 -0.051598
C34   C     C_R   0.913781 0.018016 0.890630 -0.087623
C35   C     C_R   0.413672 0.481724 0.390886 -0.051605
C36   C     C_R   0.586219 0.518016 0.609370 -0.087624
C37   C     C_R   0.013416 0.828789 0.933716 -0.174682
C38   C     C_R   0.986818 0.171221 0.065846 -0.148377
C39   C     C_R   0.486584 0.328788 0.566283 -0.174683
C40   C     C_R   0.513181 0.671223 0.434155 -0.148376
C41   C     C_R   0.959716 0.873756 0.882269 -0.104130
C42   C     C_R   0.040488 0.126309 0.117273 -0.130588
C43   C     C_R   0.540284 0.373755 0.617730 -0.104127
C44   C     C_R   0.459511 0.626311 0.382728 -0.130600
C45   C     C_R   0.923894 0.120094 0.951634 -0.240003
C46   C     C_R   0.076276 0.879622 0.048082 -0.204203
C47   C     C_R   0.576106 0.620094 0.548367 -0.240004
C48   C     C_R   0.423724 0.379621 0.451917 -0.204198
C49   C     C_R   0.977631 0.073771 0.004209 0.143757
C50   C     C_R   0.022581 0.926048 0.995424 0.145932
C51   C     C_R   0.522368 0.573771 0.495791 0.143758
C52   C     C_R   0.477419 0.426047 0.504575 0.145932
H9    H     H_    0.111619 0.769908 0.040505 0.115964
H10   H     H_    0.888547 0.229764 0.959254 0.123439
H11   H     H_    0.388381 0.269906 0.459494 0.115965
H12   H     H_    0.611452 0.729766 0.540746 0.123439
S1    S     S_3+6 0.470786 0.158756 0.219581 -0.012613
O21   O     O_2   0.445339 0.046575 0.274157 -0.355402
O22   O     O_2   0.546971 0.170528 0.234975 -0.334696
O23   O     O_3   0.437760 0.374070 0.218272 -0.513237
H13   H     H_    0.471101 0.448274 0.249280 0.351385
S2    S     S_3+6 0.550111 0.731881 0.803598 -0.018006
O24   O     O_2   0.602405 0.579842 0.812219 -0.338696
O25   O     O_2   0.480780 0.646048 0.799592 -0.343617
O26   O     O_3   0.554225 0.849406 0.731212 -0.523596
H14   H     H_    0.524018 0.781266 0.695272 0.351705
S3    S     S_3+6 0.029216 0.658767 0.280420 -0.012613
O27   O     O_2   0.054659 0.546582 0.225843 -0.355398
O28   O     O_2   0.953031 0.670553 0.265027 -0.334699
O29   O     O_3   0.062248 0.874074 0.281730 -0.513237
H15   H     H_    0.028903 0.948293 0.250731 0.351381
S4    S     S_3+6 0.949888 0.231877 0.696401 -0.018006
O30   O     O_2   0.897593 0.079840 0.687779 -0.338695
O31   O     O_2   0.019218 0.146042 0.700406 -0.343618
O32   O     O_3   0.945775 0.349401 0.768787 -0.523595
H16   H     H_    0.975983 0.281262 0.804726 0.351705
H17   H     H_    0.393389 0.856623 0.956580 0.139609
H18   H     H_    0.570149 0.267348 0.012840 0.132270
H19   H     H_    0.106610 0.356615 0.543419 0.139609
H20   H     H_    0.929853 0.767351 0.487162 0.132269
H21   H     H_    0.046904 0.207506 0.163640 0.173907
H22   H     H_    0.953291 0.792628 0.835821 0.166372
H23   H     H_    0.453095 0.707509 0.336360 0.173914
H24   H     H_    0.546710 0.292626 0.664179 0.166372
H25   H     H_    0.047238 0.715976 0.925493 0.133532
H26   H     H_    0.953029 0.284146 0.074041 0.150412
H27   H     H_    0.452763 0.215974 0.574506 0.133532
H28   H     H_    0.546970 0.784149 0.425959 0.150413

loop_
_geom_bond_atom_site_label_1
_geom_bond_atom_site_label_2
_ccdc_geom_bond_type
O17   V3    S    
C6    C20   S    
C26   C30   A    
C7    C17   S    
O19   V1    S    
O13   V1    S    
O3    C7    A    
C10   C14   A    
C10   C30   A    
C40   C44   A    
O15   V3    S    
S4    O31   D    
C49   C50   A    
C16   S4    S    
C36   C43   A    
O1    C5    A    
C22   H6    S    
O9    V1    S    
C15   S3    S    
C48   H11   S    
O4    C8    A    
O26   H14   S    
O1    V3    S    
C44   H23   S    
C21   C25   A    
O2    V4    S    
C14   C18   A    
C25   C29   A    
O3    V1    S    
C38   C49   A    
C38   C42   A    
S4    O30   D    
C37   C50   A    
C24   C28   A    
C26   H18   S    
C1    O15   A    
C25   H17   S    
S3    O27   D    
C2    O16   A    
O2    C6    A    
C27   H19   S    
O32   H16   S    
C37   C41   A    
O14   V2    S    
C45   C49   A    
S1    O22   D    
C11   C15   A    
C29   C30   S    
C48   C52   A    
C36   C47   A    
O11   C7    A    
O12   C8    A    
C14   S2    S    
O29   H15   S    
O10   V2    S    
C47   H12   S    
O7    C3    A    
O5    V1    S    
C39   C43   A    
O7    V3    S    
O8    V4    S    
C12   H4    S    
O18   V4    S    
C19   C23   A    
S2    O26   S    
C42   H21   S    
C4    C34   S    
C9    H1    S    
C33   C42   A    
C22   C26   A    
C11   H3    S    
C1    C35   S    
O5    C1    A    
C28   H20   S    
C46   C50   A    
C51   C52   A    
C17   C21   A    
O8    C4    A    
C40   H28   S    
O9    C5    A    
S1    O23   S    
S2    O25   D    
C46   H9    S    
O6    V2    S    
C45   H10   S    
C12   C16   A    
C23   C27   A    
C39   C52   A    
O16   V4    S    
C34   C45   A    
C3    O13   A    
C33   C46   A    
S3    O28   D    
C13   S1    S    
C10   H2    S    
C35   C48   A    
O6    C2    A    
O11   V3    S    
C35   C44   A    
C2    C36   S    
O12   V4    S    
C18   C22   A    
C27   C31   A    
C39   H27   S    
C28   C32   A    
C9    C13   A    
O10   C6    A    
O20   V2    S    
C8    C18   S    
C16   C20   A    
C47   C51   A    
C34   C41   A    
C38   H26   S    
C21   H5    S    
C37   H25   S    
O23   H13   S    
C23   H7    S    
S2    O24   D    
C40   C51   A    
C41   H22   S    
C31   C32   S    
C3    C33   S    
C20   C24   A    
S3    O29   S    
C9    C29   A    
C4    O14   A    
C13   C17   A    
C11   C31   A    
C43   H24   S    
S1    O21   D    
C12   C32   A    
C15   C19   A    
S4    O32   S    
O4    V2    S    
C24   H8    S    
C5    C19   S    
