data_mof_unit_23278.cif
_audit_creation_date              2012-12-11T15:41:28-0500
_audit_creation_method            fapswitch 2.2
_symmetry_space_group_name_H-M    P1
_symmetry_Int_Tables_number       1
_space_group_crystal_system       triclinic
_cell_length_a                    15.066672
_cell_length_b                    15.181614
_cell_length_c                    15.039882
_cell_angle_alpha                 109.530038
_cell_angle_beta                  109.812203
_cell_angle_gamma                 110.041866
_cell_volume                      2616.00636324

loop_
_atom_site_label
_atom_site_type_symbol
_atom_type_description
_atom_site_fract_x
_atom_site_fract_y
_atom_site_fract_z
_atom_type_partial_charge
C1    C     C_R   0.241235 0.055372 0.961746 -0.098609
C2    C     C_R   0.787305 0.837599 0.297480 -0.113399
C3    C     C_R   0.313180 0.206618 0.667799 -0.196017
C4    C     C_R   0.698442 0.735951 0.209703 -0.252559
C5    C     C_R   0.310895 0.278950 0.752712 -0.138871
C6    C     C_R   0.700785 0.686355 0.114184 -0.156385
C7    C     C_R   0.215871 0.244644 0.761583 0.333993
C8    C     C_R   0.797686 0.733878 0.111481 0.362172
C9    C     C_R   0.129598 0.134946 0.692326 0.322035
C10   C     C_R   0.885973 0.837662 0.199286 0.281856
C11   C     C_R   0.138299 0.060976 0.614502 0.430644
C12   C     C_R   0.804280 0.006737 0.098092 -0.136527
C13   C     C_R   0.877705 0.891666 0.289548 0.415230
C14   C     C_R   0.421802 0.479900 0.847478 -0.095622
C15   C     C_R   0.593411 0.490844 0.007975 -0.113029
C16   C     C_R   0.747177 0.224118 0.314013 -0.033222
C17   C     C_R   0.192266 0.793112 0.703940 0.007026
C18   C     C_R   0.511154 0.580725 0.938403 0.072262
C19   C     C_R   0.501091 0.390199 0.923059 0.074139
C20   C     C_R   0.600780 0.585615 0.016523 0.159076
C21   C     C_R   0.413688 0.383578 0.840606 0.141402
C22   C     C_R   0.870455 0.528018 0.429056 -0.115302
C23   C     C_R   0.773408 0.325873 0.325008 -0.026059
C24   C     C_R   0.959307 0.526382 0.623712 -0.068187
C25   C     C_R   0.960462 0.622655 0.523895 -0.050709
C26   C     C_R   0.869367 0.431709 0.528775 -0.102855
C27   C     C_R   0.012048 0.619322 0.618839 0.107002
C28   C     C_R   0.832376 0.429465 0.428512 0.099019
C29   C     C_R   0.509950 0.034558 0.553725 0.579021
C30   C     C_R   0.490558 0.844256 0.410061 0.583294
C31   C     C_R   0.512444 0.024130 0.460689 -0.272469
C32   C     C_R   0.487062 0.854196 0.503661 -0.232437
C33   C     C_R   0.502910 0.929853 0.389677 -0.031988
C34   C     C_R   0.128107 0.701224 0.701253 -0.013598
C35   C     C_R   0.496698 0.948959 0.574382 0.020707
C36   C     C_R   0.148048 0.118183 0.147510 -0.205881
C37   C     C_R   0.935902 0.003069 0.965181 -0.221892
C38   C     C_R   0.065481 0.129012 0.161944 0.595502
C39   C     C_R   0.017246 0.991644 0.950652 0.572287
C40   C     C_R   0.411452 0.894731 0.202713 0.467620
C41   C     C_R   0.589617 0.031886 0.774882 0.473440
C42   C     C_R   0.959795 0.070796 0.069980 -0.092176
C43   C     C_R   0.123439 0.049943 0.042321 -0.054027
C44   C     C_R   0.589572 0.294965 0.990832 0.395904
C45   C     C_R   0.503348 0.924827 0.293858 -0.081048
C46   C     C_R   0.409509 0.684890 0.944950 0.485614
C47   C     C_R   0.592389 0.994405 0.298014 0.362628
C48   C     C_R   0.406849 0.942765 0.683616 0.442622
C49   C     C_R   0.407492 0.208268 0.909186 -0.140705
C50   C     C_R   0.591498 0.781311 0.021680 -0.147082
C51   C     C_R   0.747773 0.313639 0.222298 -0.024270
C52   C     C_R   0.193259 0.702983 0.792558 -0.032053
C53   C     C_R   0.237673 0.964454 0.052369 0.483399
C54   C     C_R   0.809546 0.106348 0.019158 0.505296
C55   C     C_R   0.206674 0.033434 0.029116 -0.047288
C56   C     C_R   0.497068 0.961164 0.672537 -0.187330
C57   C     C_R   0.869815 0.075080 0.078000 0.033273
C58   C     C_R   0.497781 0.298778 0.935477 -0.020173
C59   C     C_R   0.502517 0.677096 0.958819 -0.078924
C60   C     C_R   0.227296 0.098388 0.598961 -0.123419
Cl1   Cl    Cl    0.212931 0.332402 0.871072 -0.421151
Cl2   Cl    Cl    0.721845 0.099515 0.796101 -0.456435
Cl3   Cl    Cl    0.715073 0.355324 0.995436 -0.467849
Cl4   Cl    Cl    0.280630 0.579850 0.902159 -0.524860
Cl5   Cl    Cl    0.727450 0.029866 0.381307 -0.590531
Cl6   Cl    Cl    0.274627 0.886722 0.574720 -0.626992
Cl7   Cl    Cl    0.187415 0.896094 0.113130 -0.461524
Cl8   Cl    Cl    0.874929 0.240609 0.045953 -0.410654
Cl9   Cl    Cl    0.041077 0.920320 0.538676 -0.535972
Cl10  Cl    Cl    0.973595 0.030459 0.387337 -0.470770
Cl11  Cl    Cl    0.804085 0.668466 0.994139 -0.436381
Cl12  Cl    Cl    0.014335 0.088497 0.707901 -0.369869
Cl13  Cl    Cl    0.004033 0.902786 0.193854 -0.432515
Cl14  Cl    Cl    0.525723 0.156375 0.643300 -0.582187
Cl15  Cl    Cl    0.481478 0.726509 0.321804 -0.526287
Cl16  Cl    Cl    0.095606 0.214130 0.294176 -0.493270
Cl17  Cl    Cl    0.981368 0.898703 0.818200 -0.534348
Cl18  Cl    Cl    0.296991 0.762271 0.130757 -0.398235
H1    H     H_    0.384079 0.233155 0.658445 0.238550
H2    H     H_    0.783883 0.875954 0.370062 0.258444
H3    H     H_    0.355151 0.476026 0.785212 0.179037
H4    H     H_    0.658074 0.497550 0.075056 0.157870
H5    H     H_    0.995487 0.694302 0.518274 0.180161
H6    H     H_    0.837227 0.358753 0.533091 0.153988
H7    H     H_    0.521836 0.089569 0.443312 0.177173
H8    H     H_    0.478093 0.789487 0.521991 0.192784
H9    H     H_    0.755237 0.205225 0.377758 0.164909
H10   H     H_    0.160186 0.829084 0.660835 0.188080
H11   H     H_    0.322308 0.178087 0.858649 0.113928
H12   H     H_    0.626041 0.697849 0.214212 0.235174
H13   H     H_    0.674695 0.806891 0.041787 0.131549
H14   H     H_    0.756636 0.375276 0.200013 0.135494
H15   H     H_    0.162827 0.657431 0.827610 0.190457
H16   H     H_    0.839274 0.531003 0.354632 0.136372
H17   H     H_    0.993167 0.522284 0.697075 0.165542
H18   H     H_    0.230458 0.161357 0.217604 0.185681
H19   H     H_    0.852992 0.957247 0.895017 0.189440
H20   H     H_    0.222610 0.099466 0.922072 0.170430
H21   H     H_    0.830549 0.977428 0.152105 0.168710
H22   H     H_    0.231934 0.042768 0.535782 0.250263
N1    N     N_R   0.293810 0.002730 0.945950 -0.080832
N2    N     N_R   0.443210 0.997250 0.791090 -0.121315
N3    N     N_R   0.443180 0.152110 0.945950 -0.077738
N4    N     N_R   0.556820 0.847890 0.054050 -0.065975
N5    N     N_R   0.706170 0.208950 0.152090 -0.043935
N6    N     N_R   0.293830 0.791050 0.847910 -0.069573
N7    N     N_R   0.293800 0.945910 0.002760 -0.101940
N8    N     N_R   0.706200 0.054090 0.997240 -0.120983
N9    N     N_R   0.706190 0.997270 0.054050 -0.091209
N10   N     N_R   0.706160 0.152130 0.208910 -0.042731
N11   N     N_R   0.293840 0.847870 0.791090 -0.069780
N12   N     N_R   0.443140 0.945920 0.152090 -0.144199
N13   N     N_R   0.556860 0.054080 0.847910 -0.109694
N14   N     N_R   0.556830 0.208940 0.002760 -0.099044
N15   N     N_R   0.443170 0.791060 0.997240 -0.089057
N16   N     N_R   0.556790 0.002750 0.208910 -0.132925
Ni1   Ni    Ni4+2 0.369690 0.999990 0.869700 0.231895
Ni2   Ni    Ni4+2 0.630310 0.000010 0.130300 0.261933
Ni3   Ni    Ni4+2 0.369670 0.869670 0.000000 0.304181
Ni4   Ni    Ni4+2 0.630330 0.130330 0.000000 0.336367

loop_
_geom_bond_atom_site_label_1
_geom_bond_atom_site_label_2
_ccdc_geom_bond_type
N1    N7    A    
N5    N10   A    
C50   N4    A    
C31   H7    S    
N6    Ni3   S    
C17   H10   S    
C33   C45   S    
C14   C18   A    
C9    Cl12  S    
C3    H1    S    
N10   Ni2   S    
C37   H19   S    
C16   N10   A    
C40   N12   A    
C38   Cl16  S    
C15   C19   A    
C46   N15   A    
C50   C59   A    
C39   Cl17  S    
C14   C21   A    
C19   C21   A    
C24   C26   A    
C38   C42   A    
C46   C59   A    
C10   Cl13  S    
C54   Cl8   S    
C13   Cl10  S    
N13   Ni4   S    
N8    N9    A    
C48   C56   A    
C37   C42   A    
C2    C13   A    
N8    Ni4   S    
C7    Cl1   S    
C12   H21   S    
C44   C58   A    
C22   C25   A    
C16   H9    S    
C24   C27   A    
N5    Ni4   S    
C4    H12   S    
C3    C60   A    
C45   C47   A    
C32   H8    S    
C27   C34   S    
C22   C28   A    
C22   H16   S    
C47   N16   A    
C41   Cl2   S    
C17   N11   A    
C42   C57   S    
N7    Ni3   S    
C12   N9    A    
N9    Ni2   S    
C15   H4    S    
N4    Ni2   S    
N6    N11   A    
C53   C55   A    
C19   C58   S    
C15   C20   A    
C52   N6    A    
C32   C35   A    
N3    N14   A    
C4    C6    A    
C24   H17   S    
C41   N13   A    
C5    C7    A    
C39   C43   A    
C29   Cl14  S    
C60   H22   S    
C49   C58   A    
C46   Cl4   S    
C2    C4    A    
C41   C56   A    
C51   H14   S    
N4    N15   A    
C53   N7    A    
C23   C51   A    
C51   N5    A    
C48   N2    A    
C31   C33   A    
C36   C43   A    
C52   H15   S    
C23   C28   S    
C9    C11   A    
N2    Ni1   S    
C12   C57   A    
C43   C55   S    
C16   C23   A    
N15   Ni3   S    
C40   Cl18  S    
C17   C34   A    
C11   C60   A    
C1    N1    A    
N12   N16   A    
C7    C9    A    
C8    Cl11  S    
C26   H6    S    
C30   C33   A    
C35   C56   S    
C34   C52   A    
C8    C10   A    
C49   H11   S    
C3    C5    A    
C10   C13   A    
C1    H20   S    
C49   N3    A    
N12   Ni3   S    
C6    C8    A    
C11   Cl9   S    
C25   C27   A    
C6    C20   S    
C29   C35   A    
C26   C28   A    
C54   N8    A    
N11   Ni1   S    
N1    Ni1   S    
C36   C38   A    
C1    C55   A    
C29   C31   A    
N2    N13   A    
C30   C32   A    
C30   Cl15  S    
N16   Ni2   S    
C18   C20   A    
C53   Cl7   S    
C2    H2    S    
C44   N14   A    
C18   C59   S    
C5    C21   S    
C40   C45   A    
C37   C39   A    
C44   Cl3   S    
C25   H5    S    
N3    Ni1   S    
C14   H3    S    
C48   Cl6   S    
C50   H13   S    
C47   Cl5   S    
N14   Ni4   S    
C36   H18   S    
C54   C57   A    
