data_mof_unit_65807.cif
_audit_creation_date              2012-12-10T18:53:57-0500
_audit_creation_method            fapswitch 2.2
_symmetry_space_group_name_H-M    P1
_symmetry_Int_Tables_number       1
_space_group_crystal_system       triclinic
_cell_length_a                    19.390532
_cell_length_b                    19.362735
_cell_length_c                    19.487581
_cell_angle_alpha                 85.065643
_cell_angle_beta                  95.353958
_cell_angle_gamma                 90.090426
_cell_volume                      7257.61288025

loop_
_atom_site_label
_atom_site_type_symbol
_atom_type_description
_atom_site_fract_x
_atom_site_fract_y
_atom_site_fract_z
_atom_type_partial_charge
C1    C     C_R   0.311789 0.492412 0.492199 0.520863
C2    C     C_2   0.453223 0.980295 0.501359 0.233329
C3    C     C_2   0.511927 0.016430 0.513229 -0.150078
C4    C     C_R   0.688051 0.508184 0.507240 0.502919
C5    C     C_R   0.511955 0.235922 0.511906 0.038289
C6    C     C_R   0.762645 0.515791 0.505696 0.002250
C7    C     C_R   0.791700 0.513022 0.442875 -0.118474
C8    C     C_R   0.863819 0.519319 0.439673 0.289079
C9    C     C_R   0.905579 0.527996 0.501825 0.042557
C10   C     C_R   0.875553 0.533868 0.563710 -0.169396
C11   C     C_R   0.804412 0.527963 0.565677 -0.142756
C12   C     C_R   0.459762 0.905034 0.499665 0.047236
C13   C     C_R   0.129466 0.472638 0.543362 0.279727
C14   C     C_R   0.202011 0.477324 0.548709 0.258367
C15   C     C_R   0.198386 0.498182 0.423359 -0.183622
C16   C     C_R   0.508513 0.492436 0.688885 0.492775
C17   C     C_R   0.126577 0.495280 0.418241 -0.174910
C18   C     C_R   0.092029 0.484417 0.477921 -0.012842
C19   C     C_2   0.981507 0.529031 0.504812 -0.063727
C20   C     C_2   0.016481 0.485686 0.470695 -0.082576
C21   C     C_R   0.236391 0.489109 0.488225 0.007867
C22   C     C_R   0.484562 0.506139 0.235752 0.037787
C23   C     C_R   0.436089 0.873152 0.440129 -0.083298
C24   C     C_R   0.531376 0.466434 0.204688 -0.126980
C25   C     C_R   0.524262 0.462318 0.133759 -0.113041
C26   C     C_R   0.470587 0.498436 0.092503 0.041574
C27   C     C_R   0.422894 0.537091 0.123313 -0.116205
C28   C     C_R   0.491154 0.507280 0.311066 0.503730
C29   C     C_R   0.430082 0.541390 0.194680 -0.124574
C30   C     C_R   0.464212 0.456126 0.872189 -0.113292
C31   C     C_R   0.462117 0.454819 0.800775 -0.136760
C32   C     C_R   0.565175 0.526134 0.800269 -0.122564
C33   C     C_R   0.567872 0.526458 0.871690 -0.119175
C34   C     C_R   0.446701 0.802388 0.437299 -0.124101
C35   C     C_R   0.516788 0.492670 0.907775 0.040200
C36   C     C_2   0.464294 0.496289 0.017189 -0.136291
C37   C     C_2   0.520877 0.494761 0.982864 -0.135982
C38   C     C_R   0.512033 0.490687 0.764272 0.036066
C39   C     C_R   0.508506 0.311679 0.508574 0.504064
C40   C     C_R   0.491099 0.688381 0.492091 0.502898
C41   C     C_R   0.482345 0.763221 0.493506 0.037344
C42   C     C_R   0.506609 0.795453 0.552768 -0.123708
C43   C     C_R   0.495031 0.865842 0.555952 -0.135382
C44   C     C_3   0.246478 0.533497 0.640394 0.023139
C45   C     C_R   0.545943 0.131296 0.463707 -0.099488
C46   C     C_3   0.297620 0.525905 0.705133 -0.257378
C47   C     C_3   0.308561 0.594559 0.737439 -0.486772
C48   C     C_3   0.098511 0.391065 0.627402 0.029053
C49   C     C_3   0.036028 0.351825 0.596476 -0.282499
C50   C     C_3   0.033911 0.277660 0.629678 -0.477645
C51   C     C_3   0.861867 0.487682 0.324194 0.000852
C52   C     C_3   0.861533 0.408746 0.342253 -0.283288
C53   C     C_3   0.827260 0.371579 0.282195 -0.475114
C54   C     C_R   0.545053 0.203232 0.462201 -0.116778
C55   C     C_R   0.481910 0.195612 0.564484 -0.108327
C56   C     C_R   0.483433 0.123666 0.566206 -0.050565
C57   C     C_R   0.513535 0.091618 0.514552 0.071371
H1    H     H_    0.533571 0.766107 0.597050 0.135563
H2    H     H_    0.097763 0.503117 0.367774 0.141818
H3    H     H_    0.573350 0.438009 0.235179 0.131197
H4    H     H_    0.421160 0.426412 0.774197 0.129326
H5    H     H_    0.604739 0.553586 0.773301 0.133071
H6    H     H_    0.571976 0.499291 0.010157 0.118609
H7    H     H_    0.380882 0.564720 0.092048 0.106915
H8    H     H_    0.425401 0.427898 0.899518 0.110003
H9    H     H_    0.392838 0.571669 0.217667 0.133023
H10   H     H_    0.413008 0.499894 0.989373 0.118240
H11   H     H_    0.560446 0.430291 0.111355 0.107331
H12   H     H_    0.460769 0.093021 0.607377 0.147977
H13   H     H_    0.457292 0.219596 0.604167 0.138210
H14   H     H_    0.609188 0.554118 0.898709 0.104941
H15   H     H_    0.561762 0.989922 0.517567 0.079764
H16   H     H_    0.410895 0.903174 0.395365 0.130829
H17   H     H_    0.570357 0.106612 0.424299 0.110630
H18   H     H_    0.427804 0.778486 0.390969 0.132496
H19   H     H_    0.514029 0.890024 0.602108 0.110233
H20   H     H_    0.195580 0.551413 0.654664 0.162862
H21   H     H_    0.266990 0.573190 0.602655 0.117300
H22   H     H_    0.278059 0.486862 0.743736 0.169195
H23   H     H_    0.756953 0.507529 0.397130 0.113085
H24   H     H_    0.348103 0.507413 0.690937 0.190608
H25   H     H_    0.329627 0.633880 0.700138 0.155052
H26   H     H_    0.346131 0.586922 0.784120 0.155916
H27   H     H_    0.258861 0.613799 0.752952 0.152703
H28   H     H_    0.097091 0.388458 0.684426 0.156776
H29   H     H_    0.147624 0.364880 0.618122 0.159946
H30   H     H_    0.987472 0.379231 0.604537 0.178812
H31   H     H_    0.039003 0.350187 0.539997 0.156974
H32   H     H_    0.081663 0.249066 0.621461 0.162575
H33   H     H_    0.988445 0.250563 0.605804 0.153938
H34   H     H_    0.224385 0.507166 0.376570 0.144646
H35   H     H_    0.029229 0.277625 0.686059 0.149633
H36   H     H_    0.891935 0.497697 0.278586 0.158197
H37   H     H_    0.809581 0.509139 0.306565 0.123587
H38   H     H_    0.915662 0.389587 0.354167 0.156799
H39   H     H_    0.833031 0.395456 0.388373 0.160342
H40   H     H_    0.772594 0.389041 0.270081 0.148001
H41   H     H_    0.827915 0.314805 0.296498 0.152547
H42   H     H_    0.855681 0.382216 0.235531 0.147240
H43   H     H_    0.305063 0.975401 0.403206 0.346762
H44   H     H_    0.989991 0.450801 0.436583 0.144607
H45   H     H_    0.907612 0.541229 0.611093 0.123882
H46   H     H_    0.782163 0.531310 0.614265 0.134260
H47   H     H_    0.009566 0.561961 0.540211 0.145639
H48   H     H_    0.569085 0.233171 0.421448 0.133892
O1    O     O_3   0.500000 0.500000 0.500000 -0.443257
O2    O     O_R   0.467830 0.341070 0.546160 -0.541176
O3    O     O_R   0.450560 0.655630 0.450550 -0.544620
O4    O     O_R   0.545840 0.347670 0.467560 -0.549339
O5    O     O_R   0.535760 0.655640 0.535740 -0.546828
O6    O     O_3   0.239209 0.468440 0.612957 -0.553930
O7    O     O_3   0.094835 0.461933 0.602374 -0.583775
O8    O     O_3   0.895661 0.523731 0.377921 -0.579866
O9    O     O_2   0.347291 0.043133 0.550619 -0.251231
O10   O     O_2   0.373049 0.082161 0.433181 -0.288797
O11   O     O_3   0.311074 0.963617 0.453892 -0.503261
O12   O     O_R   0.545870 0.536170 0.656040 -0.551266
O13   O     O_R   0.450550 0.545430 0.340370 -0.548919
O14   O     O_R   0.347960 0.451240 0.536460 -0.496755
O15   O     O_R   0.655630 0.467150 0.467130 -0.549686
O16   O     O_R   0.340780 0.536140 0.450970 -0.556056
O17   O     O_R   0.655640 0.545460 0.545430 -0.540858
O18   O     O_R   0.467850 0.451260 0.656340 -0.552559
O19   O     O_R   0.535740 0.467130 0.347260 -0.550170
S1    S     S_3+6 0.369990 0.019943 0.484603 0.018483
Zn1   Zn    Zn3+2 0.558310 0.558310 0.558290 0.929047
Zn2   Zn    Zn3+2 0.446830 0.436990 0.558720 0.952970
Zn3   Zn    Zn3+2 0.558290 0.446420 0.446420 0.927580
Zn4   Zn    Zn3+2 0.436570 0.558290 0.436570 0.932571

loop_
_geom_bond_atom_site_label_1
_geom_bond_atom_site_label_2
_ccdc_geom_bond_type
O1    Zn4   S    
C55   C56   A    
C1    C21   S    
C22   C29   A    
C27   C29   A    
C41   C42   A    
C31   H4    S    
C19   C20   D    
H43   O11   S    
C2    C12   S    
C42   H1    S    
C36   H10   S    
C7    C8    A    
C53   H42   S    
C39   O2    A    
C34   C41   A    
C12   C23   A    
C45   C57   A    
C26   C27   A    
C51   O8    S    
C13   C18   A    
C14   C21   A    
C44   H20   S    
C35   C37   S    
C16   O18   A    
C13   O7    S    
C2    C3    D    
C30   C31   A    
O1    Zn3   S    
C56   C57   A    
C52   H38   S    
C1    O14   A    
C47   H25   S    
C49   H30   S    
C40   C41   S    
O4    Zn3   S    
C50   H33   S    
C44   C46   S    
C8    C9    A    
C32   C38   A    
O12   Zn1   S    
C18   C20   S    
C34   H18   S    
O19   Zn3   S    
C22   C28   S    
C13   C14   A    
C49   H31   S    
C25   H11   S    
C23   H16   S    
C37   H6    S    
C9    C19   S    
C14   O6    S    
C51   C52   S    
C55   H13   S    
C5    C54   A    
C10   H45   S    
C24   C25   A    
C4    C6    S    
C27   H7    S    
C6    C11   A    
O9    S1    D    
C40   O5    A    
C20   H44   S    
C53   H40   S    
C25   C26   A    
O1    Zn2   S    
C45   H17   S    
O17   Zn1   S    
C2    S1    S    
C46   H24   S    
C19   H47   S    
C50   H32   S    
O18   Zn2   S    
C39   O4    A    
C24   H3    S    
C23   C34   A    
O15   Zn3   S    
C17   C18   A    
C4    O17   A    
C47   H27   S    
O3    Zn4   S    
C8    O8    S    
C51   H36   S    
C3    C57   S    
C26   C36   S    
C48   C49   S    
C48   O7    S    
O5    Zn1   S    
C45   C54   A    
C49   C50   S    
C47   H26   S    
O11   S1    S    
C5    C39   S    
C22   C24   A    
C42   C43   A    
C52   C53   S    
C9    C10   A    
C50   H35   S    
C43   H19   S    
C15   C17   A    
C46   C47   S    
C36   C37   D    
C54   H48   S    
C5    C55   A    
O16   Zn4   S    
C28   O19   A    
C6    C7    A    
C53   H41   S    
C12   C43   A    
C30   C35   A    
O1    Zn1   S    
O10   S1    D    
C31   C38   A    
C40   O3    A    
C32   C33   A    
C44   H21   S    
C3    H15   S    
C17   H2    S    
C32   H5    S    
O13   Zn4   S    
C28   O13   A    
C16   O12   A    
C46   H22   S    
C33   C35   A    
C52   H39   S    
C48   H29   S    
C1    O16   A    
C30   H8    S    
C10   C11   A    
C33   H14   S    
C51   H37   S    
C15   H34   S    
C29   H9    S    
C44   O6    S    
C15   C21   A    
C56   H12   S    
C48   H28   S    
C4    O15   A    
C11   H46   S    
O2    Zn2   S    
C16   C38   S    
C7    H23   S    
O14   Zn2   S    
