data_mof_unit_62573.cif
_audit_creation_date              2012-10-26T17:44:53-0400
_audit_creation_method            fapswitch 2.2
_symmetry_space_group_name_H-M    P1
_symmetry_Int_Tables_number       1
_space_group_crystal_system       triclinic
_cell_length_a                    32.228369
_cell_length_b                    32.228376
_cell_length_c                    30.170361
_cell_angle_alpha                 90.000029
_cell_angle_beta                  89.999788
_cell_angle_gamma                 90.000026
_cell_volume                      31336.9883379

loop_
_atom_site_label
_atom_site_type_symbol
_atom_type_description
_atom_site_fract_x
_atom_site_fract_y
_atom_site_fract_z
_atom_type_partial_charge
C1    C     C_R   0.420417 0.000000 0.000000 0.553844
C2    C     C_R   0.974601 0.728388 0.029617 -0.105772
C3    C     C_R   0.000000 0.500000 0.634102 -0.003700
C4    C     C_R   0.000000 0.500000 0.865897 -0.003700
C5    C     C_R   0.500000 0.000000 0.865897 -0.003699
C6    C     C_R   1.000000 0.500000 0.134103 -0.003702
C7    C     C_R   0.500000 1.000000 0.134102 -0.003697
C8    C     C_R   0.527358 0.973603 0.296554 0.013308
C9    C     C_R   0.973604 0.472640 0.296554 0.013305
C10   C     C_R   0.472642 0.026397 0.296554 0.013308
C11   C     C_R   0.026395 0.527360 0.296554 0.013305
C12   C     C_R   0.527360 0.026396 0.703446 0.013307
C13   C     C_R   0.728387 0.025673 0.029347 -0.105769
C14   C     C_R   0.973603 0.527358 0.703446 0.013305
C15   C     C_R   0.472640 0.973604 0.703446 0.013307
C16   C     C_R   0.026397 0.472641 0.703446 0.013305
C17   C     C_R   0.027358 0.473603 0.796554 0.013305
C18   C     C_R   0.473604 0.972640 0.796554 0.013307
C19   C     C_R   0.972642 0.526397 0.796554 0.013305
C20   C     C_R   0.526396 0.027360 0.796554 0.013307
C21   C     C_R   0.027360 0.526396 0.203446 0.013305
C22   C     C_R   0.473603 0.027358 0.203446 0.013308
C23   C     C_R   0.972640 0.473604 0.203446 0.013305
C24   C     C_R   0.025359 0.271612 0.029655 -0.105772
C25   C     C_R   0.526397 0.972641 0.203446 0.013308
C26   C     C_R   0.500000 0.000000 0.273286 0.060677
C27   C     C_R   1.000000 0.500000 0.273286 0.060676
C28   C     C_R   0.500000 0.000000 0.726714 0.060677
C29   C     C_R   1.000000 0.500000 0.726714 0.060676
C30   C     C_R   1.000000 0.500000 0.773286 0.060676
C31   C     C_R   0.500000 0.000000 0.773286 0.060677
C32   C     C_R   1.000000 0.500000 0.226714 0.060676
C33   C     C_R   0.500000 1.000000 0.226714 0.060677
C34   C     C_R   0.553805 0.946903 0.273133 -0.131088
C35   C     C_R   0.271612 0.025661 0.970642 -0.105770
C36   C     C_R   0.946904 0.446194 0.273133 -0.131100
C37   C     C_R   0.446195 0.053097 0.273133 -0.131089
C38   C     C_R   0.053096 0.553807 0.273133 -0.131101
C39   C     C_R   0.553806 0.053096 0.726867 -0.131090
C40   C     C_R   0.946903 0.553805 0.726867 -0.131100
C41   C     C_R   0.446193 0.946904 0.726867 -0.131088
C42   C     C_R   0.053097 0.446195 0.726867 -0.131101
C43   C     C_R   0.053805 0.446903 0.773133 -0.131101
C44   C     C_R   0.446904 0.946194 0.773133 -0.131089
C45   C     C_R   0.946195 0.553097 0.773133 -0.131100
C46   C     C_R   0.974640 0.271613 0.970345 -0.105773
C47   C     C_R   0.553096 0.053806 0.773133 -0.131089
C48   C     C_R   0.053806 0.553096 0.226867 -0.131100
C49   C     C_R   0.446903 0.053805 0.226867 -0.131089
C50   C     C_R   0.946193 0.446904 0.226867 -0.131101
C51   C     C_R   0.553097 0.946195 0.226867 -0.131088
C52   C     C_R   0.228157 0.025662 0.970643 -0.105495
C53   C     C_R   0.025400 0.771843 0.970384 -0.105500
C54   C     C_R   0.771844 0.974327 0.970654 -0.105496
C55   C     C_R   0.974639 0.228157 0.970345 -0.105500
C56   C     C_R   0.228157 0.974337 0.029357 -0.105496
C57   C     C_R   0.728388 0.974328 0.970653 -0.105769
C58   C     C_R   0.025360 0.228157 0.029654 -0.105500
C59   C     C_R   0.771843 0.025674 0.029346 -0.105495
C60   C     C_R   0.974601 0.771843 0.029616 -0.105500
C61   C     C_R   0.728157 0.525396 0.470380 -0.105501
C62   C     C_R   0.525661 0.271843 0.470641 -0.105496
C63   C     C_R   0.271844 0.474637 0.470348 -0.105500
C64   C     C_R   0.474298 0.728157 0.470682 -0.105495
C65   C     C_R   0.728157 0.474603 0.529620 -0.105500
C66   C     C_R   0.525701 0.728156 0.529317 -0.105495
C67   C     C_R   0.271843 0.525364 0.529651 -0.105500
C68   C     C_R   0.025399 0.728387 0.970383 -0.105772
C69   C     C_R   0.474340 0.271843 0.529359 -0.105495
C70   C     C_R   0.206280 0.999999 1.000000 0.037465
C71   C     C_R   0.000001 0.793720 0.000000 0.037453
C72   C     C_R   0.793720 0.000001 0.000000 0.037465
C73   C     C_R   0.999999 0.206280 1.000000 0.037451
C74   C     C_R   0.706280 0.499999 0.500000 0.037452
C75   C     C_R   0.500001 0.293719 0.500000 0.037464
C76   C     C_R   0.293720 0.500001 0.500000 0.037451
C77   C     C_R   0.499999 0.706280 0.500000 0.037466
C78   C     C_R   0.771612 0.474604 0.529620 -0.105772
C79   C     C_R   0.474341 0.228388 0.529360 -0.105769
C80   C     C_R   0.228387 0.525363 0.529652 -0.105772
C81   C     C_R   0.000000 0.579583 0.000000 0.553835
C82   C     C_R   0.525701 0.771612 0.529318 -0.105769
C83   C     C_R   0.771612 0.525395 0.470379 -0.105772
C84   C     C_R   0.474299 0.771612 0.470682 -0.105769
C85   C     C_R   0.228388 0.474637 0.470348 -0.105772
C86   C     C_R   0.525660 0.228387 0.470640 -0.105769
C87   C     C_R   0.293488 1.000000 1.000000 0.037313
C88   C     C_R   0.000000 0.706512 0.000000 0.037322
C89   C     C_R   0.706512 0.000000 0.000000 0.037311
C90   C     C_R   1.000000 0.293488 1.000000 0.037324
C91   C     C_R   0.793488 0.500000 0.500000 0.037322
C92   C     C_R   0.579583 1.000000 0.000000 0.553844
C93   C     C_R   0.500000 0.206512 0.500000 0.037311
C94   C     C_R   0.206512 0.500000 0.500000 0.037324
C95   C     C_R   0.500000 0.793488 0.500000 0.037310
C96   C     C_1   0.161484 0.999999 1.000000 -0.057554
C97   C     C_1   0.000001 0.838516 0.000000 -0.057568
C98   C     C_1   0.838516 0.000001 0.000000 -0.057555
C99   C     C_1   0.999999 0.161484 1.000000 -0.057568
C100  C     C_1   0.661484 0.499999 0.500000 -0.057569
C101  C     C_1   0.500001 0.338516 0.500000 -0.057555
C102  C     C_1   0.338516 0.500001 0.500000 -0.057569
C103  C     C_R   0.000000 0.420417 0.000000 0.553835
C104  C     C_1   0.499999 0.661484 0.500000 -0.057554
C105  C     C_1   0.338283 1.000000 1.000000 -0.059328
C106  C     C_1   0.000000 0.661717 0.000000 -0.059328
C107  C     C_1   0.661717 0.000000 0.000000 -0.059329
C108  C     C_1   1.000000 0.338283 0.000000 -0.059327
C109  C     C_1   0.838283 0.500000 0.500000 -0.059328
C110  C     C_1   0.500000 0.161717 0.500000 -0.059329
C111  C     C_1   0.161717 0.500000 0.500000 -0.059327
C112  C     C_1   0.500000 0.838283 0.500000 -0.059329
C113  C     C_1   0.375772 1.000000 1.000000 -0.026001
C114  C     C_R   0.920417 0.500000 0.500000 0.553835
C115  C     C_1   0.000000 0.624228 0.000000 -0.026003
C116  C     C_1   0.624228 0.000000 0.000000 -0.026001
C117  C     C_1   1.000000 0.375772 0.000000 -0.026003
C118  C     C_1   0.875772 0.500000 0.500000 -0.026003
C119  C     C_1   0.500000 0.124228 0.500000 -0.026001
C120  C     C_1   0.124228 0.500000 0.500000 -0.026004
C121  C     C_1   0.500000 0.875772 0.500000 -0.026001
C122  C     C_1   0.123994 0.999999 1.000000 -0.022433
C123  C     C_1   0.000000 0.876006 0.000000 -0.022442
C124  C     C_1   0.876006 0.000000 0.000000 -0.022433
C125  C     C_R   0.500000 0.079583 0.500000 0.553844
C126  C     C_1   0.999999 0.123994 1.000000 -0.022442
C127  C     C_1   0.623994 0.499999 0.500000 -0.022443
C128  C     C_1   0.500000 0.376006 0.500000 -0.022432
C129  C     C_1   0.376006 0.500000 0.500000 -0.022442
C130  C     C_1   0.499999 0.623994 0.500000 -0.022433
C131  C     C_R   1.000000 0.079346 0.000000 0.551179
C132  C     C_R   0.079346 1.000000 1.000000 0.551179
C133  C     C_R   0.000000 0.920654 0.000000 0.551179
C134  C     C_R   0.920654 0.000000 0.000000 0.551179
C135  C     C_R   0.500000 0.579346 0.500000 0.551178
C136  C     C_R   0.079583 0.500000 0.500000 0.553834
C137  C     C_R   0.579346 0.500000 0.500000 0.551178
C138  C     C_R   0.500000 0.420654 0.500000 0.551179
C139  C     C_R   0.420654 0.500000 0.500000 0.551179
C140  C     C_R   0.500000 1.000000 0.085813 0.551559
C141  C     C_R   1.000000 0.500000 0.085813 0.551552
C142  C     C_R   0.500000 0.000000 0.914187 0.551561
C143  C     C_R   0.000000 0.500000 0.914187 0.551552
C144  C     C_R   0.000000 0.500000 0.585813 0.551551
C145  C     C_R   0.500000 1.000000 0.585813 0.551561
C146  C     C_R   1.000000 0.500000 0.414187 0.551553
C147  C     C_R   0.500000 0.920417 0.500000 0.553845
C148  C     C_R   0.500000 0.000000 0.414187 0.551560
C149  C     C_R   0.472338 0.025665 0.342852 -0.133504
C150  C     C_R   0.025662 0.527664 0.342851 -0.133514
C151  C     C_R   0.527662 0.974335 0.342851 -0.133503
C152  C     C_R   0.974338 0.472336 0.342852 -0.133513
C153  C     C_R   0.472335 0.974338 0.657149 -0.133504
C154  C     C_R   0.025665 0.472338 0.657148 -0.133514
C155  C     C_R   0.527664 0.025662 0.657148 -0.133505
C156  C     C_R   0.974335 0.527662 0.657148 -0.133512
C157  C     C_R   0.972338 0.525665 0.842852 -0.133512
C158  C     C_R   0.271612 0.974338 0.029358 -0.105770
C159  C     C_R   0.525662 0.027665 0.842851 -0.133505
C160  C     C_R   0.027662 0.474335 0.842851 -0.133513
C161  C     C_R   0.474338 0.972336 0.842852 -0.133505
C162  C     C_R   0.972335 0.474338 0.157148 -0.133514
C163  C     C_R   0.525665 0.972338 0.157148 -0.133504
C164  C     C_R   0.027664 0.525662 0.157148 -0.133513
C165  C     C_R   0.474335 0.027662 0.157148 -0.133504
C166  C     C_R   0.500000 0.000000 0.365897 -0.003697
C167  C     C_R   1.000000 0.500000 0.365897 -0.003702
C168  C     C_R   0.500000 0.000000 0.634103 -0.003699
Cu1   Cu    Cu3+1 0.500000 0.958950 0.000000 0.941645
Cu2   Cu    Cu3+1 1.000000 0.000000 0.955550 0.951567
Cu3   Cu    Cu3+1 0.500000 0.500000 0.544450 0.951568
Cu4   Cu    Cu3+1 0.500000 0.500000 0.455550 0.951569
Cu5   Cu    Cu3+1 0.958950 0.500000 0.000000 0.941656
Cu6   Cu    Cu3+1 0.500000 0.041050 0.000000 0.941644
Cu7   Cu    Cu3+1 0.041050 0.500000 0.000000 0.941655
Cu8   Cu    Cu3+1 0.000000 0.458950 0.500000 0.941655
Cu9   Cu    Cu3+1 0.458950 1.000000 0.500000 0.941643
Cu10  Cu    Cu3+1 0.000000 0.541050 0.500000 0.941655
Cu11  Cu    Cu3+1 0.541050 1.000000 0.500000 0.941643
Cu12  Cu    Cu3+1 0.000000 1.000000 0.044450 0.951567
H1    H     H_    0.451271 0.045641 0.361040 0.118297
H2    H     H_    0.545635 0.048735 0.861039 0.118301
H3    H     H_    0.048729 0.454359 0.861040 0.118291
H4    H     H_    0.454365 0.951265 0.861040 0.118300
H5    H     H_    0.951265 0.454365 0.138960 0.118295
H6    H     H_    0.545641 0.951271 0.138960 0.118297
H7    H     H_    0.048735 0.545635 0.138960 0.118296
H8    H     H_    0.454359 0.048729 0.138960 0.118297
H9    H     H_    0.574849 0.926407 0.290605 0.112197
H10   H     H_    0.926409 0.425149 0.290606 0.112187
H11   H     H_    0.425151 0.073593 0.290606 0.112196
H12   H     H_    0.045635 0.548735 0.361040 0.118295
H13   H     H_    0.073591 0.574851 0.290605 0.112187
H14   H     H_    0.574851 0.073591 0.709394 0.112196
H15   H     H_    0.926407 0.574848 0.709395 0.112188
H16   H     H_    0.425149 0.926409 0.709395 0.112196
H17   H     H_    0.073593 0.425151 0.709394 0.112187
H18   H     H_    0.074848 0.426407 0.790605 0.112187
H19   H     H_    0.426409 0.925149 0.790606 0.112196
H20   H     H_    0.925151 0.573593 0.790606 0.112188
H21   H     H_    0.573591 0.074851 0.790605 0.112196
H22   H     H_    0.074851 0.573591 0.209394 0.112187
H23   H     H_    0.548729 0.954359 0.361040 0.118297
H24   H     H_    0.426407 0.074848 0.209395 0.112196
H25   H     H_    0.925149 0.426409 0.209395 0.112187
H26   H     H_    0.573593 0.925151 0.209394 0.112196
H27   H     H_    0.288130 0.045643 0.947782 0.112364
H28   H     H_    0.045177 0.711869 0.947321 0.112346
H29   H     H_    0.711870 0.954338 0.947802 0.112365
H30   H     H_    0.954893 0.288131 0.947253 0.112344
H31   H     H_    0.288130 0.954356 0.052217 0.112364
H32   H     H_    0.045106 0.288131 0.052746 0.112344
H33   H     H_    0.711869 0.045663 0.052198 0.112365
H34   H     H_    0.954365 0.451265 0.361040 0.118296
H35   H     H_    0.954824 0.711869 0.052679 0.112346
H36   H     H_    0.788131 0.545169 0.447315 0.112346
H37   H     H_    0.545639 0.211869 0.447779 0.112364
H38   H     H_    0.211869 0.454888 0.447259 0.112344
H39   H     H_    0.454286 0.788131 0.447853 0.112366
H40   H     H_    0.788131 0.454830 0.552685 0.112346
H41   H     H_    0.545713 0.788130 0.552147 0.112366
H42   H     H_    0.211869 0.545112 0.552741 0.112344
H43   H     H_    0.454361 0.211869 0.552221 0.112364
H44   H     H_    0.211639 0.045645 0.947784 0.112618
H45   H     H_    0.451265 0.954365 0.638961 0.118301
H46   H     H_    0.045179 0.788361 0.947323 0.112628
H47   H     H_    0.788361 0.954336 0.947804 0.112618
H48   H     H_    0.954891 0.211639 0.947255 0.112630
H49   H     H_    0.211639 0.954354 0.052215 0.112618
H50   H     H_    0.045108 0.211639 0.052745 0.112630
H51   H     H_    0.788361 0.045665 0.052196 0.112618
H52   H     H_    0.954823 0.788362 0.052677 0.112628
H53   H     H_    0.711639 0.545171 0.447317 0.112628
H54   H     H_    0.545642 0.288361 0.447780 0.112618
H55   H     H_    0.288362 0.454887 0.447261 0.112631
H56   H     H_    0.045641 0.451271 0.638960 0.118292
H57   H     H_    0.454284 0.711639 0.447854 0.112616
H58   H     H_    0.711639 0.454828 0.552683 0.112629
H59   H     H_    0.545714 0.711639 0.552145 0.112616
H60   H     H_    0.288361 0.545115 0.552739 0.112629
H61   H     H_    0.454360 0.288361 0.552220 0.112619
H62   H     H_    0.548735 0.045635 0.638960 0.118301
H63   H     H_    0.954359 0.548729 0.638960 0.118292
H64   H     H_    0.951271 0.545641 0.861040 0.118293
O1    O     O_R   0.440170 0.965330 0.000010 -0.503120
O2    O     O_R   0.465330 0.059830 0.500010 -0.503120
O3    O     O_R   0.059830 0.534670 0.500010 -0.503114
O4    O     O_R   0.534670 0.940170 0.500010 -0.503122
O5    O     O_R   0.940170 0.534670 0.499990 -0.503115
O6    O     O_R   0.465330 0.940170 0.499990 -0.503121
O7    O     O_R   0.059830 0.465330 0.499990 -0.503114
O8    O     O_R   0.534670 0.059830 0.499990 -0.503121
O9    O     O_R   0.500030 0.965330 0.064870 -0.508008
O10   O     O_R   0.965330 0.499970 0.064870 -0.508010
O11   O     O_R   0.499970 0.034670 0.064870 -0.508008
O12   O     O_R   0.965330 0.559830 0.000010 -0.503115
O13   O     O_R   0.034670 0.500030 0.064870 -0.508011
O14   O     O_R   0.500030 0.034670 0.935130 -0.508010
O15   O     O_R   0.965330 0.500030 0.935130 -0.508009
O16   O     O_R   0.499970 0.965330 0.935130 -0.508009
O17   O     O_R   0.034670 0.499970 0.935130 -0.508009
O18   O     O_R   0.000030 0.465330 0.564870 -0.508009
O19   O     O_R   0.465330 0.999970 0.564870 -0.508009
O20   O     O_R   0.999970 0.534670 0.564870 -0.508009
O21   O     O_R   0.534670 0.000030 0.564870 -0.508009
O22   O     O_R   0.000030 0.534670 0.435130 -0.508010
O23   O     O_R   0.559830 0.034670 0.000010 -0.503121
O24   O     O_R   0.465330 0.000030 0.435130 -0.508008
O25   O     O_R   0.999970 0.465330 0.435130 -0.508010
O26   O     O_R   0.534670 0.999970 0.435130 -0.508008
O27   O     O_R   0.000010 0.059770 0.037600 -0.501995
O28   O     O_R   0.059770 0.999990 0.037600 -0.501986
O29   O     O_R   0.999990 0.940230 0.037600 -0.501994
O30   O     O_R   0.940230 0.000010 0.037600 -0.501986
O31   O     O_R   0.000010 0.940230 0.962400 -0.501994
O32   O     O_R   0.059770 0.000010 0.962400 -0.501987
O33   O     O_R   0.999990 0.059770 0.962400 -0.501995
O34   O     O_R   0.034670 0.440170 0.000010 -0.503114
O35   O     O_R   0.940230 0.999990 0.962400 -0.501986
O36   O     O_R   0.500010 0.559770 0.537600 -0.501985
O37   O     O_R   0.559770 0.499990 0.537600 -0.501994
O38   O     O_R   0.499990 0.440230 0.537600 -0.501987
O39   O     O_R   0.440230 0.500010 0.537600 -0.501995
O40   O     O_R   0.500010 0.440230 0.462400 -0.501986
O41   O     O_R   0.559770 0.500010 0.462400 -0.501994
O42   O     O_R   0.499990 0.559770 0.462400 -0.501985
O43   O     O_R   0.440230 0.499990 0.462400 -0.501995
O44   O     O_R   0.440170 0.034670 0.999990 -0.503121
O45   O     O_R   0.965330 0.440170 0.999990 -0.503113
O46   O     O_R   0.559830 0.965330 0.999990 -0.503121
O47   O     O_R   0.034670 0.559830 0.999990 -0.503115
O48   O     O_R   0.940170 0.465330 0.500010 -0.503114

loop_
_geom_bond_atom_site_label_1
_geom_bond_atom_site_label_2
_ccdc_geom_bond_type
C62   H54   S    
C100  C127  T    
C8    C26   A    
C64   C77   A    
C51   H26   S    
C45   H20   S    
C134  O35   A    
C153  H45   S    
C63   C76   A    
C132  O32   A    
C94   C111  S    
C101  C128  T    
C142  O14   A    
C13   H33   S    
C17   C160  A    
C64   C84   A    
C46   C55   A    
Cu1   Cu6   S    
C121  C147  S    
Cu8   O48   S    
C93   C110  S    
C21   C48   A    
C49   H24   S    
C63   C85   A    
C17   C30   A    
C125  O2    A    
C103  C117  S    
C1    C113  S    
C21   C32   A    
C109  C118  T    
C146  O25   A    
C57   H29   S    
C67   C80   A    
C135  O36   A    
C74   C100  S    
C46   H30   S    
C152  H34   S    
C136  O3    A    
C5    C161  A    
C17   C43   A    
C18   C44   A    
C66   C82   A    
Cu4   O42   S    
C11   C150  A    
Cu9   O2    S    
C11   C27   A    
Cu6   O44   S    
C6    C141  S    
C92   C116  S    
Cu7   O13   S    
C22   C49   A    
Cu8   O18   S    
C12   C28   A    
C52   H44   S    
C28   C31   A    
C153  C168  A    
C62   C75   A    
C53   C71   A    
C152  C167  A    
C36   C50   A    
C39   C47   A    
Cu11  O26   S    
C158  H31   S    
C66   C77   A    
C14   C156  A    
C140  O9    A    
C24   C90   A    
C132  O28   A    
C61   C74   A    
C83   C91   A    
C114  O48   A    
C38   H13   S    
C106  C115  T    
C161  H4    S    
Cu9   O19   S    
Cu10  O20   S    
Cu11  O8    S    
Cu9   O6    S    
C3    C156  A    
C56   H49   S    
C54   H47   S    
C20   C47   A    
C155  H62   S    
C92   O46   A    
C75   C101  S    
C1    O1    A    
C18   C31   A    
C19   C30   A    
C1    O44   A    
Cu6   O23   S    
C145  C168  S    
C146  C167  S    
C147  O6    A    
C61   H53   S    
C67   H60   S    
Cu7   O34   S    
C59   H51   S    
C83   H36   S    
C98   C124  T    
C71   C97   S    
C34   C51   A    
Cu12  O29   S    
C36   H10   S    
C141  O10   A    
C105  C113  T    
C84   H39   S    
Cu5   O15   S    
C10   C149  A    
C18   C161  A    
C103  O45   A    
C48   H22   S    
C53   C68   A    
C128  C138  S    
C35   C87   A    
Cu9   Cu11  S    
C87   C105  S    
C9    C36   A    
C38   C48   A    
Cu8   Cu10  S    
Cu2   O31   S    
Cu8   O25   S    
C99   C126  T    
Cu5   Cu7   S    
C76   C102  S    
C133  O29   A    
Cu12  O27   S    
Cu1   O9    S    
C143  O15   A    
C114  O5    A    
C3    C154  A    
C65   C74   A    
C84   C95   A    
C70   C96   S    
C85   H38   S    
C68   H28   S    
C29   C30   A    
C58   H50   S    
C86   C93   A    
C26   C33   A    
C4    C157  A    
C129  C139  S    
C140  O11   A    
C8    C34   A    
C147  O4    A    
C16   C154  A    
C65   H58   S    
C69   C79   A    
C14   C29   A    
C82   C95   A    
C108  C117  T    
C110  C119  T    
Cu6   O14   S    
C162  H5    S    
Cu10  O22   S    
C79   H43   S    
C13   C59   A    
C124  C134  S    
Cu7   O47   S    
C90   C108  S    
C112  C121  T    
C97   C123  T    
Cu7   O17   S    
C69   H61   S    
C5    C142  S    
C25   C163  A    
C134  O30   A    
C107  C116  T    
C15   C153  A    
C80   H42   S    
Cu10  O3    S    
C55   C73   A    
C138  O40   A    
C141  O13   A    
C145  O21   A    
C103  O34   A    
Cu3   O36   S    
C25   C33   A    
C40   H15   S    
C133  O31   A    
C148  C166  S    
C130  C135  S    
C144  O18   A    
Cu11  O4    S    
C57   C89   A    
C123  C133  S    
C163  H6    S    
C157  H64   S    
C95   C112  S    
C7    C140  S    
C2    C60   A    
C78   H40   S    
C145  O19   A    
Cu1   O16   S    
Cu3   O38   S    
C160  H3    S    
C59   C72   A    
C23   C162  A    
C7    C165  A    
C137  O37   A    
C2    H35   S    
C21   C164  A    
C104  C130  T    
C149  H1    S    
C4    C143  S    
C125  O8    A    
C40   C45   A    
C165  H8    S    
C15   C41   A    
C61   C83   A    
C23   C50   A    
C60   C71   A    
C120  C136  S    
C11   C38   A    
C53   H46   S    
C37   C49   A    
C155  C168  A    
C138  O38   A    
C19   C45   A    
C139  O43   A    
C135  O42   A    
Cu2   O35   S    
C81   O47   A    
C64   H57   S    
Cu12  O28   S    
C119  C125  S    
C35   H27   S    
C6    C164  A    
C41   C44   A    
C42   C43   A    
C80   C94   A    
C144  O20   A    
C9    C27   A    
Cu5   O45   S    
C65   C78   A    
C27   C32   A    
C60   H52   S    
C42   H17   S    
C3    C144  S    
C46   C90   A    
C96   C122  T    
C23   C32   A    
C148  O24   A    
C12   C39   A    
Cu4   O41   S    
C15   C28   A    
Cu10  O5    S    
C7    C163  A    
C150  C167  A    
C69   C75   A    
C43   H18   S    
C159  H2    S    
C131  O33   A    
C63   H55   S    
C131  O27   A    
C24   C58   A    
C35   C52   A    
C77   C104  S    
Cu1   O1    S    
Cu3   Cu4   S    
C9    C152  A    
C66   H59   S    
C102  C129  T    
C164  H7    S    
Cu2   O32   S    
Cu8   O7    S    
C24   H32   S    
C82   H41   S    
C72   C98   S    
C10   C37   A    
C79   C93   A    
C41   H16   S    
Cu5   O12   S    
C47   H21   S    
C146  O22   A    
Cu2   O33   S    
C56   C158  A    
C22   C165  A    
C6    C162  A    
C5    C159  A    
C20   C159  A    
Cu12  O30   S    
C136  O7    A    
C2    C88   A    
C143  O17   A    
Cu5   O10   S    
C10   C26   A    
C92   O23   A    
C89   C107  S    
Cu3   O39   S    
C122  C132  S    
C39   H14   S    
C19   C157  A    
C148  O26   A    
C8    C151  A    
Cu9   O24   S    
Cu4   O43   S    
C16   C29   A    
C150  H12   S    
Cu2   Cu12  S    
C111  C120  T    
C86   H37   S    
C55   H48   S    
C25   C51   A    
C156  H63   S    
C88   C106  S    
C85   C94   A    
C137  O41   A    
C81   C115  S    
C142  O16   A    
C114  C118  S    
Cu11  O21   S    
C37   H11   S    
C56   C70   A    
C68   C88   A    
C12   C155  A    
C16   C42   A    
C62   C86   A    
C73   C99   S    
C22   C33   A    
C13   C89   A    
C34   H9    S    
C149  C166  A    
C151  H23   S    
C78   C91   A    
C151  C166  A    
C87   C158  A    
C139  O39   A    
C91   C109  S    
Cu1   O46   S    
C4    C160  A    
C126  C131  S    
C81   O12   A    
C52   C70   A    
C14   C40   A    
Cu4   O40   S    
C50   H25   S    
Cu6   O11   S    
C54   C72   A    
C44   H19   S    
C154  H56   S    
C67   C76   A    
C127  C137  S    
Cu3   O37   S    
C54   C57   A    
C58   C73   A    
C20   C31   A    
