data_mof_unit_25534.cif
_audit_creation_date              2012-12-10T20:30:09-0500
_audit_creation_method            fapswitch 2.2
_symmetry_space_group_name_H-M    P1
_symmetry_Int_Tables_number       1
_space_group_crystal_system       triclinic
_cell_length_a                    9.903649
_cell_length_b                    10.679024
_cell_length_c                    13.073005
_cell_angle_alpha                 90.484999
_cell_angle_beta                  70.008322
_cell_angle_gamma                 89.3204
_cell_volume                      1299.09795299

loop_
_atom_site_label
_atom_site_type_symbol
_atom_type_description
_atom_site_fract_x
_atom_site_fract_y
_atom_site_fract_z
_atom_type_partial_charge
C1    C     C_R   0.501593 0.740085 0.495859 0.882299
C2    C     C_R   0.426681 0.477801 0.986479 0.089080
C3    C     C_R   0.450666 0.437792 0.878799 0.085606
C4    C     C_R   0.534368 0.452219 0.031797 0.080320
C5    C     C_R   0.649273 0.367807 0.978672 0.171872
C6    C     C_R   0.657085 0.312076 0.879846 -0.277750
C7    C     C_R   0.559935 0.347993 0.829424 -0.231846
C8    C     C_R   0.532444 0.511190 0.127515 -0.261170
C9    C     C_R   0.741004 0.391288 0.127544 -0.204266
C10   C     C_R   0.366144 0.491113 0.822682 -0.114932
C11   C     C_R   0.410403 0.937207 0.446493 0.051902
C12   C     C_R   0.419895 0.495014 0.704198 0.854096
C13   C     C_R   0.513239 0.871331 0.476286 -0.123439
C14   C     C_R   0.634630 0.933965 0.481823 -0.206105
C15   C     C_R   0.635701 0.063123 0.481306 -0.226671
C16   C     C_R   0.515338 0.128826 0.475391 -0.132823
C17   C     C_R   0.411442 0.065555 0.446284 0.129748
C18   C     C_3   0.250430 0.076708 0.488397 -0.097279
C19   C     C_3   0.250052 0.933160 0.489301 -0.252243
C20   C     C_R   0.886066 0.486038 0.594439 0.172192
C21   C     C_R   0.970809 0.504187 0.405204 -0.130700
C22   C     C_R   0.114233 0.504117 0.405189 -0.115623
C23   C     C_R   0.502902 0.260091 0.495490 0.872873
C24   C     C_R   0.028036 0.487329 0.594823 0.109733
C25   C     C_3   0.983764 0.570300 0.694863 -0.092336
C26   C     C_3   0.831435 0.568813 0.692412 -0.462398
C27   C     C_R   0.579854 0.497768 0.295715 0.870528
C28   C     C_R   0.753702 0.339956 0.026007 -0.201774
C29   C     C_R   0.627138 0.474311 0.179293 -0.060505
C30   C     C_R   0.239604 0.557566 0.880018 -0.209471
C31   C     C_R   0.202492 0.579059 0.991106 -0.140538
C32   C     C_R   0.296811 0.542958 0.043870 -0.194142
H1    H     H_    0.814348 0.360850 0.168017 0.151513
H2    H     H_    0.724372 0.110270 0.495082 0.168902
H3    H     H_    0.209098 0.116275 0.572693 0.128682
H4    H     H_    0.208747 0.895671 0.572729 0.132450
H5    H     H_    0.951511 0.509327 0.328765 0.146184
H6    H     H_    0.201405 0.508939 0.328423 0.155975
H7    H     H_    0.994498 0.520925 0.766329 0.161330
H8    H     H_    0.756609 0.521766 0.763803 0.205169
H9    H     H_    0.741892 0.245017 0.839241 0.149444
H10   H     H_    0.789732 0.659713 0.673513 0.211972
H11   H     H_    0.841233 0.274816 0.986748 0.137643
H12   H     H_    0.452979 0.582475 0.166963 0.145973
H13   H     H_    0.172475 0.597003 0.838228 0.154925
H14   H     H_    0.264204 0.564580 0.129729 0.126277
H15   H     H_    0.103935 0.629389 0.035351 0.145939
H16   H     H_    0.571919 0.306157 0.751021 0.167849
H17   H     H_    0.722962 0.884830 0.495805 0.175831
N1    N     N_R   0.856940 0.500860 0.500710 -0.100567
N2    N     N_R   0.142580 0.500820 0.500710 -0.111009
O1    O     O_R   0.385310 0.683210 0.499990 -0.625976
O2    O     O_R   0.614650 0.683240 0.500000 -0.611944
O3    O     O_R   0.328390 0.499940 0.653610 -0.625293
O4    O     O_R   0.557730 0.499980 0.653620 -0.607739
O5    O     O_R   0.385350 0.316760 0.500000 -0.615913
O6    O     O_R   0.614690 0.316790 0.500010 -0.624429
O7    O     O_R   0.442270 0.500020 0.346380 -0.616852
O8    O     O_R   0.671610 0.500060 0.346390 -0.620004
Zn1   Zn    Zn3+2 0.346870 0.499980 0.499990 0.925032
Zn2   Zn    Zn3+2 0.653130 0.500020 0.500010 0.934733
C33   C     C_3   0.182724 0.144553 0.412560 -0.334110
C34   C     C_3   0.276219 0.146686 0.291841 -0.800890
H18   H     H_    0.374480 0.202040 0.280425 0.257499
H19   H     H_    0.307602 0.050475 0.259053 0.260511
H20   H     H_    0.214950 0.191870 0.244772 0.233290
H21   H     H_    0.077299 0.102553 0.421364 0.195810
H22   H     H_    0.159497 0.243105 0.441293 0.215956
C35   C     C_1   0.193362 0.869745 0.412279 0.235111
N3    N     N_1   0.148732 0.819662 0.351985 -0.238028
C36   C     C_3   0.048492 0.701369 0.678250 -0.325970
C37   C     C_3   0.977171 0.787194 0.776673 -0.929175
H23   H     H_    0.862879 0.805721 0.786454 0.270390
H24   H     H_    0.982585 0.744303 0.852249 0.262382
H25   H     H_    0.033400 0.878075 0.764910 0.243823
H26   H     H_    0.164319 0.693551 0.666455 0.239182
H27   H     H_    0.035618 0.743825 0.604810 0.213885

loop_
_geom_bond_atom_site_label_1
_geom_bond_atom_site_label_2
_ccdc_geom_bond_type
C34   H19   S    
C27   C29   S    
C30   H13   S    
C4    C8    A    
C23   O5    A    
O3    Zn1   S    
C11   C19   S    
C33   H21   S    
C8    C29   A    
C3    C7    A    
C19   H4    S    
C36   H26   S    
C14   H17   S    
O7    Zn1   S    
C15   C16   A    
C22   H6    S    
C2    C32   A    
C18   C19   S    
C1    O2    A    
C20   N1    A    
O1    Zn1   S    
O2    Zn2   S    
C20   C24   A    
C16   C17   A    
C6    H9    S    
C25   C36   S    
C18   H3    S    
C15   H2    S    
C9    C29   A    
C24   N2    A    
C34   H20   S    
C31   H15   S    
C21   C22   A    
C9    H1    S    
C37   H25   S    
C21   N1    A    
O8    Zn2   S    
C24   C25   S    
C37   H24   S    
C4    C5    A    
C25   C26   S    
O5    Zn1   S    
C2    C4    A    
C33   C34   S    
C5    C28   A    
C10   C30   A    
C31   C32   A    
C30   C31   A    
C17   C18   S    
C10   C12   S    
C16   C23   S    
C19   C35   S    
C1    C13   S    
C36   H27   S    
C26   H10   S    
C23   O6    A    
C11   C17   A    
C32   H14   S    
C18   C33   S    
C8    H12   S    
C37   H23   S    
C27   O7    A    
O6    Zn2   S    
C6    C7    A    
C28   H11   S    
C33   H22   S    
C7    H16   S    
C2    C3    A    
C36   C37   S    
C3    C10   A    
C27   O8    A    
C25   H7    S    
C11   C13   A    
C26   H8    S    
C5    C6    A    
C20   C26   S    
O4    Zn2   S    
C35   N3    T    
C1    O1    A    
C12   O4    A    
C34   H18   S    
C21   H5    S    
N1    Zn2   S    
C14   C15   A    
N2    Zn1   S    
C13   C14   A    
C12   O3    A    
C9    C28   A    
C22   N2    A    
