data_mof_unit_23421.cif
_audit_creation_date              2012-12-11T15:57:45-0500
_audit_creation_method            fapswitch 2.2
_symmetry_space_group_name_H-M    P1
_symmetry_Int_Tables_number       1
_space_group_crystal_system       triclinic
_cell_length_a                    10.793188
_cell_length_b                    10.707955
_cell_length_c                    17.001359
_cell_angle_alpha                 99.257059
_cell_angle_beta                  100.019818
_cell_angle_gamma                 61.586942
_cell_volume                      1694.91841326

loop_
_atom_site_label
_atom_site_type_symbol
_atom_type_description
_atom_site_fract_x
_atom_site_fract_y
_atom_site_fract_z
_atom_type_partial_charge
C1    C     C_R   0.352758 0.780918 0.404752 0.552233
C2    C     C_2   0.336566 0.356677 0.836483 -0.101330
C3    C     C_2   0.460753 0.283042 0.806609 0.119490
C4    C     C_R   0.368993 0.346015 0.357505 0.551993
C5    C     C_2   0.469503 0.287891 0.722003 0.147396
C6    C     C_1   0.854935 0.326517 0.703947 -0.059005
C7    C     C_1   0.902207 0.291829 0.771017 -0.062617
C8    C     C_1   0.357699 0.766362 0.713753 -0.049819
C9    C     C_1   0.324102 0.813175 0.780311 -0.053004
C10   C     C_R   0.898647 0.305254 0.087663 0.562677
C11   C     C_R   0.318528 0.298296 0.120001 0.532489
C12   C     C_2   0.835644 0.322569 0.159246 0.119456
C13   C     C_R   0.288666 0.898849 0.086974 0.550354
C14   C     C_R   0.946758 0.272594 0.854376 0.571257
C15   C     C_R   0.308835 0.297553 0.897534 0.543606
C16   C     C_R   0.777708 0.376193 0.405741 0.559533
C17   C     C_R   0.279337 0.882102 0.857022 0.542369
C18   C     C_R   0.380747 0.716040 0.631733 0.556387
C19   C     C_R   0.374338 0.347126 0.585038 0.568677
C20   C     C_R   0.780736 0.377423 0.628160 0.545936
C21   C     C_1   0.341588 0.334609 0.274199 -0.040608
C22   C     C_1   0.331044 0.323440 0.203308 -0.050838
C23   C     C_2   0.895868 0.211327 0.204450 -0.107338
C24   C     C_2   0.857626 0.325788 0.337078 -0.078998
C25   C     C_3   0.699284 0.106215 0.682834 -0.231543
C26   C     C_3   0.244938 0.176999 0.671668 -0.306952
C27   C     C_3   0.782615 0.030937 0.236089 -0.279113
C28   C     C_3   0.607560 0.507805 0.115558 -0.306629
C29   C     C_3   0.294839 0.645956 0.194022 -0.294101
C30   C     C_3   0.660805 0.060091 0.855167 -0.233728
C31   C     C_2   0.855141 0.220062 0.283100 0.125491
C32   C     C_2   0.323820 0.873559 0.343242 -0.088893
C33   C     C_2   0.320767 0.849810 0.166685 0.117315
C34   C     C_2   0.410707 0.881485 0.221369 -0.136042
C35   C     C_2   0.431671 0.855278 0.305577 -0.140256
C36   C     C_2   0.356013 0.322322 0.663131 0.132538
Cr1   Cr    Cr6+3 0.608020 0.610770 0.522990 1.013547
Cr2   Cr    Cr6+3 0.289390 0.599570 0.488050 1.013503
Cr3   Cr    Cr6+3 0.602610 0.289690 0.489020 1.013547
Cr4   Cr    Cr6+3 0.053780 0.052210 0.965970 0.994799
Cr5   Cr    Cr6+3 0.060060 0.372530 0.992430 1.010084
Cr6   Cr    Cr6+3 0.372600 0.061970 0.991430 0.989774
H1    H     H_    0.981410 0.110180 0.184319 0.113897
H2    H     H_    0.796951 0.067587 0.725785 0.126466
H3    H     H_    0.142755 0.380297 0.634085 0.257576
H4    H     H_    0.143267 0.182908 0.681142 0.145056
H5    H     H_    0.326397 0.119303 0.720339 0.165014
H6    H     H_    0.275925 0.116058 0.612858 0.151794
H7    H     H_    0.876468 0.064065 0.351021 0.251415
H8    H     H_    0.739068 0.970557 0.259427 0.139709
H9    H     H_    0.879187 0.953773 0.207490 0.120284
H10   H     H_    0.700825 0.099469 0.190974 0.180057
H11   H     H_    0.749742 0.529659 0.208602 0.247464
H12   H     H_    0.246041 0.440130 0.805149 0.122741
H13   H     H_    0.525004 0.611921 0.135613 0.148196
H14   H     H_    0.561394 0.433138 0.095732 0.148293
H15   H     H_    0.646766 0.524909 0.064078 0.158488
H16   H     H_    0.129638 0.840229 0.163309 0.261290
H17   H     H_    0.221199 0.622960 0.220016 0.158473
H18   H     H_    0.396733 0.606732 0.233630 0.179651
H19   H     H_    0.310686 0.589613 0.132975 0.137503
H20   H     H_    0.590607 0.264152 0.916389 0.253325
H21   H     H_    0.661724 0.024242 0.913142 0.145027
H22   H     H_    0.772954 0.019347 0.845492 0.146996
H23   H     H_    0.899844 0.392811 0.322995 0.078593
H24   H     H_    0.608182 0.012427 0.806933 0.145628
H25   H     H_    0.476572 0.920907 0.203345 0.125451
H26   H     H_    0.541036 0.799654 0.331821 0.147256
H27   H     H_    0.214261 0.935389 0.318965 0.136051
H28   H     H_    0.652948 0.304081 0.746871 0.261592
H29   H     H_    0.733312 0.091267 0.622805 0.180113
H30   H     H_    0.646406 0.038284 0.680741 0.128919
N1    N     N_2   0.605789 0.256335 0.703826 -0.468952
N2    N     N_2   0.228684 0.319519 0.672622 -0.571925
N3    N     N_2   0.817055 0.117767 0.301619 -0.471707
N4    N     N_2   0.718765 0.454291 0.181006 -0.523700
N5    N     N_2   0.233061 0.797651 0.189665 -0.536457
N6    N     N_2   0.589356 0.214742 0.859074 -0.491052
O1    O     O_R   0.749250 0.499990 0.439200 -0.525236
O2    O     O_R   0.411120 0.181190 0.091480 -0.524566
O3    O     O_R   0.364220 0.944920 0.062310 -0.511848
O4    O     O_R   0.477870 0.725740 0.440280 -0.496304
O5    O     O_R   0.158740 0.906940 0.874970 -0.517920
O6    O     O_R   0.930920 0.176940 0.885610 -0.495107
O7    O     O_R   0.910730 0.394510 0.895320 -0.502818
O8    O     O_R   0.185840 0.361180 0.920280 -0.514482
O9    O     O_R   0.399210 0.173040 0.915160 -0.506753
O10   O     O_R   0.353170 0.937370 0.898860 -0.497430
O11   O     O_3   0.162150 0.162240 0.983280 -0.268049
O12   O     O_R   0.299400 0.468710 0.556310 -0.518119
O13   O     O_R   0.260770 0.742210 0.412610 -0.509040
O14   O     O_R   0.297990 0.466320 0.394220 -0.501118
O15   O     O_R   0.487720 0.253870 0.385870 -0.498291
O16   O     O_R   0.721940 0.304340 0.422320 -0.473313
O17   O     O_R   0.750770 0.502570 0.614050 -0.510824
O18   O     O_R   0.479280 0.728140 0.602370 -0.499092
O19   O     O_R   0.262290 0.744790 0.587460 -0.513914
O20   O     O_R   0.489240 0.256450 0.560730 -0.506317
O21   O     O_R   0.723350 0.306730 0.584410 -0.500790
O22   O     O_3   0.500010 0.500010 0.500020 -0.263511
O23   O     O_R   0.170650 0.915100 0.051290 -0.523242
O24   O     O_R   0.941960 0.184500 0.049060 -0.516107
O25   O     O_R   0.922640 0.402670 0.071640 -0.513675
O26   O     O_R   0.196880 0.368740 0.083740 -0.504290

loop_
_geom_bond_atom_site_label_1
_geom_bond_atom_site_label_2
_ccdc_geom_bond_type
Cr5   O11   S    
Cr6   O2    S    
C30   H22   S    
C17   O10   A    
C18   O18   A    
Cr4   O6    S    
C14   O6    A    
C28   H14   S    
C28   H15   S    
Cr5   O8    S    
Cr1   O1    S    
C12   C23   D    
C10   O25   A    
C19   C36   S    
C5    C36   D    
C13   O3    A    
C23   H1    S    
Cr1   O17   S    
C34   C35   S    
Cr3   O15   S    
H16   N5    S    
Cr4   O23   S    
Cr3   O21   S    
C28   H13   S    
C7    C14   S    
C29   H17   S    
C8    C9    T    
H7    N3    S    
C11   O26   A    
C25   H29   S    
C18   O19   A    
Cr4   O11   S    
C27   H8    S    
C26   H6    S    
C1    O13   A    
C21   C22   T    
Cr4   O5    S    
Cr6   O3    S    
Cr2   O19   S    
C27   N3    S    
C25   H2    S    
C19   O20   A    
C27   H9    S    
C29   H19   S    
C32   C35   D    
C10   O24   A    
Cr2   O22   S    
C2    H12   S    
Cr3   O20   S    
C1    O4    A    
Cr2   O13   S    
C1    C32   S    
C8    C18   S    
Cr5   O25   S    
Cr1   O18   S    
H3    N2    S    
C17   O5    A    
C23   C31   S    
Cr3   O16   S    
C13   C33   S    
C31   N3    S    
C29   H18   S    
H28   N1    S    
C33   C34   D    
C25   H30   S    
C2    C15   S    
C30   H24   S    
C10   C12   S    
C24   H23   S    
C15   O8    A    
C26   H5    S    
C9    C17   S    
C20   O17   A    
C12   N4    S    
Cr1   O4    S    
H11   N4    S    
Cr6   O10   S    
C13   O23   A    
C28   N4    S    
C6    C20   S    
C27   H10   S    
C15   O9    A    
C36   N2    S    
C32   H27   S    
H20   N6    S    
C14   O7    A    
C3    C5    S    
C34   H25   S    
C6    C7    T    
Cr5   O7    S    
Cr2   O12   S    
C11   C22   S    
C16   O16   A    
Cr5   O26   S    
Cr6   O11   S    
C16   O1    A    
C2    C3    D    
C24   C31   D    
C19   O12   A    
C4    C21   S    
C33   N5    S    
Cr3   O22   S    
C20   O21   A    
C35   H26   S    
C26   N2    S    
C25   N1    S    
C5    N1    S    
C11   O2    A    
C26   H4    S    
Cr4   O24   S    
C4    O15   A    
C30   N6    S    
C29   N5    S    
C16   C24   S    
Cr6   O9    S    
C30   H21   S    
C3    N6    S    
Cr1   O22   S    
Cr2   O14   S    
C4    O14   A    
