data_mof_unit_18786.cif
_audit_creation_date              2012-12-11T15:35:15-0500
_audit_creation_method            fapswitch 2.2
_symmetry_space_group_name_H-M    P1
_symmetry_Int_Tables_number       1
_space_group_crystal_system       triclinic
_cell_length_a                    17.415451
_cell_length_b                    24.347643
_cell_length_c                    14.816572
_cell_angle_alpha                 89.139617
_cell_angle_beta                  124.115611
_cell_angle_gamma                 91.550097
_cell_volume                      5199.50817288

loop_
_atom_site_label
_atom_site_type_symbol
_atom_type_description
_atom_site_fract_x
_atom_site_fract_y
_atom_site_fract_z
_atom_type_partial_charge
C1    C     C_R   0.336842 0.145713 0.911744 0.579658
C2    C     C_R   0.356943 0.845260 0.915489 0.586592
C3    C     C_R   0.836905 0.645746 0.911756 0.579573
C4    C     C_R   0.856956 0.345258 0.915486 0.586543
C5    C     C_R   0.688033 0.125203 0.091968 -0.210452
C6    C     C_R   0.685251 0.874287 0.092350 -0.211924
C7    C     C_R   0.188038 0.625193 0.091968 -0.210455
C8    C     C_R   0.185240 0.374271 0.092348 -0.211900
C9    C     C_R   0.593378 0.868491 0.909591 0.326596
C10   C     C_R   0.598910 0.129739 0.910431 0.347364
C11   C     C_R   0.093387 0.368500 0.909590 0.326617
C12   C     C_R   0.098918 0.629730 0.910433 0.347373
C13   C     C_R   0.428266 0.999109 0.629258 0.023290
C14   C     C_R   0.928251 0.499109 0.629251 0.023285
C15   C     C_R   0.803561 0.999920 0.358678 0.121473
C16   C     C_R   0.303556 0.499920 0.358685 0.121479
C17   C     C_R   0.688684 0.141157 0.002285 0.024342
C18   C     C_R   0.679481 0.855780 0.001891 0.024844
C19   C     C_R   0.188695 0.641143 0.002287 0.024344
C20   C     C_R   0.179477 0.355776 0.001890 0.024792
C21   C     C_3   0.021967 0.941679 0.605879 0.509500
C22   C     C_3   0.023786 0.044393 0.629048 0.496472
C23   C     C_3   0.521943 0.441707 0.605972 0.509551
C24   C     C_3   0.523788 0.544436 0.629013 0.496424
C25   C     C_3   0.922965 0.941879 0.503965 -0.631150
C26   C     C_3   0.918882 0.040553 0.539361 -0.604226
C27   C     C_3   0.422940 0.441896 0.504049 -0.631222
C28   C     C_3   0.418883 0.540589 0.539332 -0.604221
C29   C     C_3   0.067562 0.007857 0.503661 -0.414573
C30   C     C_3   0.567561 0.507810 0.503680 -0.414557
C31   C     C_3   0.074836 0.996892 0.611588 -0.023778
C32   C     C_3   0.574828 0.496900 0.611619 -0.023770
C33   C     C_3   0.900973 0.999714 0.449591 0.210849
C34   C     C_3   0.400967 0.499715 0.449608 0.210880
C35   C     C_R   0.451476 0.846559 0.094650 -0.251526
C36   C     C_R   0.430426 0.146061 0.093987 -0.243035
C37   C     C_R   0.951484 0.346556 0.094648 -0.251511
C38   C     C_R   0.930515 0.646096 0.093995 -0.242748
C39   C     C_3   0.965236 0.014185 0.406386 0.601533
C40   C     C_3   0.465237 0.514139 0.406395 0.601544
C41   C     C_R   0.328544 0.720734 0.920302 -0.216186
C42   C     C_R   0.323850 0.266533 0.961867 -0.172920
C43   C     C_R   0.828530 0.220740 0.920283 -0.216132
C44   C     C_R   0.823602 0.766531 0.961470 -0.172831
C45   C     C_R   0.769865 0.179503 0.916594 -0.204092
C46   C     C_R   0.780119 0.812970 0.960589 -0.190307
C47   C     C_R   0.269886 0.679490 0.916609 -0.204122
C48   C     C_R   0.280402 0.312988 0.961008 -0.190140
C49   C     C_R   0.768108 0.169283 0.008933 0.109408
C50   C     C_R   0.731552 0.810606 0.009428 0.101557
C51   C     C_R   0.268122 0.669267 0.008941 0.109421
C52   C     C_R   0.231476 0.310565 0.009409 0.101481
C53   C     C_R   0.844174 0.187994 0.110079 -0.225975
C54   C     C_R   0.725263 0.763192 0.059233 -0.226603
C55   C     C_R   0.344180 0.687981 0.110089 -0.225957
C56   C     C_R   0.224775 0.263077 0.058742 -0.226624
C57   C     C_R   0.406606 0.726675 0.114938 0.337062
C58   C     C_R   0.267109 0.216196 0.059294 0.290423
C59   C     C_R   0.906616 0.226674 0.114922 0.337049
C60   C     C_R   0.767641 0.716328 0.059828 0.290683
C61   C     C_R   0.384885 0.751338 0.016334 0.103606
C62   C     C_R   0.316234 0.218696 0.009896 0.126398
C63   C     C_R   0.884894 0.251336 0.016320 0.103545
C64   C     C_R   0.816382 0.718760 0.009959 0.126135
C65   C     C_R   0.386441 0.947897 0.463772 -0.173029
C66   C     C_R   0.383464 0.047304 0.458515 -0.172897
C67   C     C_R   0.886431 0.447897 0.463765 -0.173020
C68   C     C_R   0.883458 0.547305 0.458511 -0.172918
C69   C     C_R   0.391657 0.947602 0.373964 -0.169261
C70   C     C_R   0.388073 0.046933 0.368235 -0.162357
C71   C     C_R   0.891647 0.447603 0.373956 -0.169260
C72   C     C_R   0.888069 0.546934 0.368233 -0.162358
C73   C     C_R   0.403414 0.997386 0.334142 0.143116
C74   C     C_R   0.903405 0.497387 0.334134 0.143098
C75   C     C_R   0.481791 0.044562 0.251524 -0.110191
C76   C     C_R   0.479386 0.953128 0.248916 -0.124935
C77   C     C_R   0.981772 0.544563 0.251501 -0.110190
C78   C     C_R   0.979382 0.453129 0.248912 -0.124934
C79   C     C_R   0.392892 0.998016 0.513502 0.137426
C80   C     C_R   0.892881 0.498017 0.513496 0.137430
C81   C     C_R   0.232252 0.952356 0.731417 -0.106199
C82   C     C_R   0.230971 0.044443 0.735122 -0.149025
C83   C     C_R   0.732245 0.452360 0.731428 -0.106043
C84   C     C_R   0.730972 0.544445 0.735160 -0.149112
C85   C     C_R   0.357162 0.170824 0.005014 -0.076110
C86   C     C_R   0.397972 0.811551 0.008713 -0.089875
C87   C     C_R   0.857279 0.670882 0.005036 -0.076188
C88   C     C_R   0.897994 0.311547 0.008708 -0.089917
C89   C     C_R   0.449118 0.998188 0.276182 0.028202
C90   C     C_R   0.949106 0.498189 0.276168 0.028202
C91   C     C_R   0.174745 0.997142 0.699394 0.032226
C92   C     C_R   0.674740 0.497147 0.699430 0.032209
C93   C     C_R   0.445233 0.044465 0.692766 -0.117700
C94   C     C_R   0.446638 0.954433 0.694961 -0.117841
C95   C     C_R   0.945228 0.544464 0.692764 -0.117685
C96   C     C_R   0.946618 0.454434 0.694953 -0.117848
C97   C     C_R   0.753745 0.953935 0.300053 -0.153351
C98   C     C_R   0.755365 0.045850 0.301979 -0.165463
C99   C     C_R   0.253746 0.453934 0.300054 -0.153315
C100  C     C_R   0.255364 0.545850 0.301980 -0.165482
H1    H     H_    0.014094 0.944595 0.675236 0.042344
H2    H     H_    0.034392 0.037126 0.710064 -0.003275
H3    H     H_    0.514068 0.444660 0.675322 0.042335
H4    H     H_    0.534398 0.537212 0.710041 -0.003249
H5    H     H_    0.873910 0.930787 0.527526 0.165330
H6    H     H_    0.880853 0.026273 0.576040 0.147238
H7    H     H_    0.373878 0.430838 0.527616 0.165356
H8    H     H_    0.380854 0.526340 0.576031 0.147237
H9    H     H_    0.911725 0.910224 0.445485 0.189076
H10   H     H_    0.891815 0.081892 0.505811 0.199667
H11   H     H_    0.411692 0.410215 0.445609 0.189060
H12   H     H_    0.391823 0.581923 0.505738 0.199659
H13   H     H_    0.103156 0.975601 0.489314 0.151890
H14   H     H_    0.109116 0.045604 0.513268 0.194434
H15   H     H_    0.603133 0.475522 0.489375 0.151889
H16   H     H_    0.609133 0.545541 0.513244 0.194460
H17   H     H_    0.321323 0.732617 0.845341 0.182332
H18   H     H_    0.362325 0.267489 0.924379 0.141702
H19   H     H_    0.821301 0.232624 0.845317 0.182291
H20   H     H_    0.861793 0.767446 0.923634 0.141994
H21   H     H_    0.722658 0.158962 0.840094 0.151441
H22   H     H_    0.783013 0.850091 0.921217 0.134595
H23   H     H_    0.222689 0.658946 0.840109 0.151445
H24   H     H_    0.283612 0.350168 0.922003 0.134529
H25   H     H_    0.855067 0.174184 0.185916 0.132805
H26   H     H_    0.684680 0.762548 0.094196 0.136519
H27   H     H_    0.355070 0.674169 0.185924 0.132790
H28   H     H_    0.183922 0.262399 0.093358 0.136602
H29   H     H_    0.388008 0.908792 0.500119 0.110692
H30   H     H_    0.382816 0.086625 0.490955 0.110441
H31   H     H_    0.887998 0.408793 0.500113 0.110694
H32   H     H_    0.882812 0.586625 0.490953 0.110451
H33   H     H_    0.500533 0.836447 0.178599 0.156903
H34   H     H_    0.471173 0.161454 0.176663 0.131559
H35   H     H_    0.000528 0.336444 0.178601 0.156900
H36   H     H_    0.971311 0.661488 0.176674 0.131557
H37   H     H_    0.396841 0.908425 0.344615 0.109809
H38   H     H_    0.389871 0.085996 0.333912 0.108300
H39   H     H_    0.896830 0.408427 0.344606 0.109812
H40   H     H_    0.889876 0.585997 0.333918 0.108451
H41   H     H_    0.475268 0.086658 0.266555 0.090456
H42   H     H_    0.467977 0.910198 0.257806 0.098837
H43   H     H_    0.975226 0.586662 0.266497 0.090494
H44   H     H_    0.967975 0.410199 0.257806 0.098838
H45   H     H_    0.217368 0.911047 0.703315 0.218180
H46   H     H_    0.211278 0.085882 0.711318 0.228441
H47   H     H_    0.717347 0.411052 0.703309 0.218125
H48   H     H_    0.711283 0.585886 0.711396 0.228492
H49   H     H_    0.419711 0.084717 0.661043 0.096620
H50   H     H_    0.422564 0.913154 0.666690 0.106475
H51   H     H_    0.919708 0.584717 0.661041 0.096611
H52   H     H_    0.922521 0.413157 0.666667 0.106463
H53   H     H_    0.763960 0.911413 0.324917 0.096422
H54   H     H_    0.770249 0.088011 0.329509 0.099881
H55   H     H_    0.263967 0.411411 0.324911 0.096417
H56   H     H_    0.270247 0.588012 0.329504 0.099865
H57   H     H_    0.743203 0.129553 0.176506 0.115206
H58   H     H_    0.738920 0.865913 0.176536 0.123357
H59   H     H_    0.243210 0.629539 0.176506 0.115213
H60   H     H_    0.238884 0.365877 0.176531 0.123394
N1    N     N_R   0.392140 0.102630 0.941800 -0.104156
N2    N     N_R   0.392140 0.897370 0.941800 -0.096166
N3    N     N_R   0.892140 0.602630 0.941800 -0.104144
N4    N     N_R   0.892140 0.397370 0.941800 -0.096162
N5    N     N_R   0.450890 0.896450 0.057150 -0.067916
N6    N     N_R   0.450890 0.103550 0.057150 -0.059961
N7    N     N_R   0.950890 0.396450 0.057150 -0.067907
N8    N     N_R   0.950890 0.603550 0.057150 -0.060007
N9    N     N_R   0.525160 0.027960 0.206160 -0.034729
N10   N     N_R   0.525160 0.972040 0.206160 -0.035632
N11   N     N_R   0.025160 0.527960 0.206160 -0.034741
N12   N     N_R   0.025160 0.472040 0.206160 -0.035630
N13   N     N_R   0.317870 0.971120 0.792790 -0.052864
N14   N     N_R   0.317870 0.028880 0.792790 -0.058162
N15   N     N_R   0.817870 0.471120 0.792790 -0.052877
N16   N     N_R   0.817870 0.528880 0.792790 -0.058152
N17   N     N_R   0.473480 0.027920 0.793480 -0.039810
N18   N     N_R   0.473480 0.972080 0.793480 -0.039649
N19   N     N_R   0.973480 0.527920 0.793480 -0.039810
N20   N     N_R   0.973480 0.472080 0.793480 -0.039638
N21   N     N_R   0.681610 0.971120 0.207570 -0.034446
N22   N     N_R   0.681610 0.028880 0.207570 -0.034862
N23   N     N_R   0.181610 0.471120 0.207570 -0.034446
N24   N     N_R   0.181610 0.528880 0.207570 -0.034862
N25   N     N_R   0.605410 0.102620 0.056870 -0.051826
N26   N     N_R   0.605410 0.897380 0.056870 -0.053182
N27   N     N_R   0.105410 0.602620 0.056870 -0.051826
N28   N     N_R   0.105410 0.397380 0.056870 -0.053202
N29   N     N_R   0.549680 0.896430 0.944180 -0.066391
N30   N     N_R   0.549680 0.103570 0.944180 -0.067040
N31   N     N_R   0.049680 0.396430 0.944180 -0.066421
N32   N     N_R   0.049680 0.603570 0.944180 -0.067040
Ni1   Ni    Ni4+2 0.433410 0.064680 0.868830 0.193851
Ni2   Ni    Ni4+2 0.433410 0.935320 0.868830 0.220410
Ni3   Ni    Ni4+2 0.933410 0.564680 0.868830 0.193863
Ni4   Ni    Ni4+2 0.933410 0.435320 0.868830 0.220371
Ni5   Ni    Ni4+2 0.565650 0.934380 0.131170 0.196784
Ni6   Ni    Ni4+2 0.565650 0.065620 0.131170 0.202284
Ni7   Ni    Ni4+2 0.065650 0.434380 0.131170 0.196777
Ni8   Ni    Ni4+2 0.065650 0.565620 0.131170 0.202262
O1    O     O_3   0.280839 0.167704 0.808404 -0.640337
C101  C     C_3   0.331690 0.174741 0.761591 -0.320961
H61   H     H_    0.347672 0.134481 0.742556 0.145929
H62   H     H_    0.395983 0.199944 0.815085 0.147390
H63   H     H_    0.288521 0.197186 0.683508 0.186654
O2    O     O_3   0.283051 0.829912 0.813274 -0.666853
C102  C     C_3   0.203528 0.824806 0.816871 -0.247447
H64   H     H_    0.181316 0.865803 0.824770 0.177408
H65   H     H_    0.213596 0.798688 0.884677 0.129841
H66   H     H_    0.146646 0.804778 0.740868 0.207638
O3    O     O_3   0.780879 0.667720 0.808403 -0.640394
C103  C     C_3   0.831701 0.674726 0.761548 -0.321284
H67   H     H_    0.847678 0.634455 0.742545 0.146043
H68   H     H_    0.895996 0.699936 0.814997 0.147404
H69   H     H_    0.788515 0.697151 0.683442 0.186686
O4    O     O_3   0.783005 0.329921 0.813298 -0.666875
C104  C     C_3   0.703530 0.324833 0.816994 -0.247216
H70   H     H_    0.681350 0.365839 0.824909 0.177435
H71   H     H_    0.713644 0.298727 0.884836 0.129797
H72   H     H_    0.646608 0.304801 0.741028 0.207571
C105  C     C_3   0.944548 0.976270 0.311079 -1.024590
H73   H     H_    0.874674 0.983825 0.236468 0.265629
H74   H     H_    0.995694 0.984631 0.289860 0.254933
H75   H     H_    0.947249 0.932124 0.330001 0.226032
C106  C     C_3   0.953323 0.073940 0.361350 -0.973383
H76   H     H_    0.960368 0.105381 0.418735 0.274074
H77   H     H_    0.006735 0.083927 0.344344 0.242860
H78   H     H_    0.885900 0.078987 0.282471 0.238043
C107  C     C_3   0.444541 0.476190 0.311125 -1.024658
H79   H     H_    0.374684 0.483754 0.236493 0.265638
H80   H     H_    0.495711 0.484509 0.289927 0.254926
H81   H     H_    0.447194 0.432051 0.330075 0.226030
C108  C     C_3   0.453339 0.573880 0.361297 -0.973340
H82   H     H_    0.460402 0.605345 0.418651 0.274089
H83   H     H_    0.506747 0.583836 0.344270 0.242872
H84   H     H_    0.385910 0.578919 0.282420 0.238044
C109  C     C_3   0.495452 0.737396 0.224117 -1.074973
H85   H     H_    0.551448 0.752005 0.214541 0.251146
H86   H     H_    0.483895 0.766902 0.271568 0.251708
H87   H     H_    0.520242 0.698541 0.271434 0.262139
C110  C     C_3   0.255892 0.164031 0.107704 -1.030108
H88   H     H_    0.225452 0.130789 0.045679 0.253715
H89   H     H_    0.324311 0.151341 0.178930 0.245918
H90   H     H_    0.209479 0.169549 0.135982 0.252132
C111  C     C_3   0.995486 0.237375 0.224089 -1.074988
H91   H     H_    0.051459 0.252008 0.214491 0.251140
H92   H     H_    0.983953 0.266856 0.271596 0.251731
H93   H     H_    0.020291 0.198507 0.271356 0.262139
C112  C     C_3   0.756873 0.664252 0.108820 -1.030365
H94   H     H_    0.726555 0.630854 0.047123 0.253910
H95   H     H_    0.825437 0.651775 0.180065 0.245711
H96   H     H_    0.710557 0.669779 0.137224 0.252128
C113  C     C_3   0.545788 0.839461 0.802072 -1.055747
H97   H     H_    0.470101 0.836086 0.765251 0.251175
H98   H     H_    0.560409 0.861735 0.747246 0.252532
H99   H     H_    0.570940 0.796912 0.812803 0.261591
C114  C     C_3   0.557292 0.154907 0.799995 -1.120356
H100  H     H_    0.482018 0.158923 0.758105 0.244100
H101  H     H_    0.585002 0.197414 0.807717 0.258139
H102  H     H_    0.572256 0.129810 0.749979 0.259767
C115  C     C_3   0.045819 0.339497 0.802049 -1.055631
H103  H     H_    0.970140 0.336072 0.765246 0.251125
H104  H     H_    0.060395 0.361819 0.747224 0.252547
H105  H     H_    0.071038 0.296969 0.812728 0.261583
C116  C     C_3   0.057312 0.654895 0.799995 -1.120341
H106  H     H_    0.982038 0.658914 0.758096 0.244101
H107  H     H_    0.085027 0.697400 0.807716 0.258138
H108  H     H_    0.072281 0.629793 0.749988 0.259770
O5    O     O_3   0.067821 0.890830 0.627214 -0.637259
C117  C     C_3   0.060505 0.864410 0.538232 -0.296064
H109  H     H_    0.060388 0.892764 0.479962 0.144226
H110  H     H_    0.998598 0.836474 0.496764 0.156247
H111  H     H_    0.121693 0.838201 0.570043 0.180866
O6    O     O_3   0.056655 0.097377 0.622884 -0.623578
C118  C     C_3   0.054395 0.134483 0.693713 -0.200512
H112  H     H_    0.106053 0.123314 0.780309 0.145800
H113  H     H_    0.983870 0.136311 0.677333 0.118301
H114  H     H_    0.073427 0.176170 0.680192 0.194917
O7    O     O_3   0.567800 0.390853 0.627374 -0.637229
C119  C     C_3   0.560439 0.364377 0.538413 -0.296143
H115  H     H_    0.560287 0.392695 0.480071 0.144224
H116  H     H_    0.498534 0.336438 0.497025 0.156252
H117  H     H_    0.621624 0.338164 0.570232 0.180901
O8    O     O_3   0.556660 0.597403 0.622766 -0.623593
C120  C     C_3   0.554383 0.634559 0.693514 -0.200629
H118  H     H_    0.606025 0.623424 0.780134 0.145899
H119  H     H_    0.483850 0.636408 0.677106 0.118312
H120  H     H_    0.573422 0.676229 0.679929 0.194902

loop_
_geom_bond_atom_site_label_1
_geom_bond_atom_site_label_2
_ccdc_geom_bond_type
C68   C80   A    
N11   N12   A    
C98   H54   S    
C58   C62   A    
C106  H77   S    
C65   C79   A    
C83   N15   A    
C63   C88   S    
C55   C57   A    
O1    C101  S    
C14   C95   A    
C37   C88   A    
C93   H49   S    
C118  H112  S    
N22   Ni6   S    
C119  H117  S    
C5    N25   A    
C29   H14   S    
N21   Ni5   S    
C2    N2    A    
C13   C79   S    
C53   C59   A    
C43   C63   A    
N25   N30   A    
C37   N7    A    
C1    C85   A    
N19   Ni3   S    
N13   N14   A    
C44   C64   A    
C104  H72   S    
C38   N8    A    
C83   C92   A    
N18   Ni2   S    
C112  H94   S    
C10   N30   A    
N17   Ni1   S    
N28   N31   A    
C34   C40   S    
C50   C54   A    
C107  H81   S    
C7    N27   A    
O8    C120  S    
C118  H113  S    
C119  H116  S    
C28   H12   S    
C110  H88   S    
C120  H120  S    
N5    Ni5   S    
C115  H103  S    
C35   C86   A    
C78   C90   A    
C7    H59   S    
C46   H22   S    
C44   H20   S    
C10   C17   A    
C96   H52   S    
C106  H78   S    
C42   C48   A    
C97   N21   A    
C51   C55   A    
N12   Ni7   S    
O6    C118  S    
C94   N18   A    
C22   O6    S    
C57   C61   A    
C68   H32   S    
C105  H73   S    
C12   C116  S    
C21   C25   S    
C75   H41   S    
N30   Ni1   S    
C82   H46   S    
N31   Ni4   S    
N29   Ni2   S    
C33   C39   S    
C23   H3    S    
C61   C86   S    
C24   O8    S    
C77   N11   A    
N24   Ni8   S    
C101  H63   S    
C99   H55   S    
C75   N9    A    
C102  H66   S    
O7    C119  S    
C4    N4    A    
N26   Ni5   S    
C69   C73   A    
C2    O2    S    
C38   H36   S    
N25   Ni6   S    
C108  H82   S    
C26   H10   S    
C64   C87   S    
C11   N31   A    
N1    N6    A    
N20   Ni4   S    
C3    N3    A    
C76   C89   A    
C30   H15   S    
C81   H45   S    
C21   H1    S    
C100  H56   S    
C11   C115  S    
N3    Ni3   S    
N27   Ni8   S    
C27   H11   S    
N2    Ni2   S    
C103  H67   S    
C77   H43   S    
O5    C117  S    
C3    O3    S    
C117  H111  S    
C35   H33   S    
C6    C18   A    
C15   C97   A    
C1    N1    A    
C9    N29   A    
C22   H2    S    
C14   C96   A    
C6    H58   S    
C44   C46   A    
C46   C50   A    
C106  H76   S    
C23   C27   S    
C84   H48   S    
C27   C34   S    
C69   H37   S    
C12   N32   A    
C62   C85   S    
C9    C113  S    
C77   C90   A    
C112  H95   S    
C101  H61   S    
C105  H74   S    
C21   O5    S    
C102  H64   S    
N32   Ni3   S    
C82   N14   A    
C120  H118  S    
C118  H114  S    
C48   C52   A    
O4    C104  S    
C72   C74   A    
C37   H35   S    
C22   C31   S    
C17   C49   S    
C115  H104  S    
C111  H91   S    
C23   O7    S    
O2    C102  S    
C16   C100  A    
C54   C60   A    
N28   Ni7   S    
C45   H21   S    
C104  H70   S    
N21   N22   A    
C3    C87   A    
C11   C20   A    
C8    N28   A    
C41   C61   A    
C30   H16   S    
N13   Ni2   S    
C13   C93   A    
C24   H4    S    
C81   N13   A    
C98   N22   A    
C58   C110  S    
N23   N24   A    
C24   C32   S    
C101  H62   S    
C107  H79   S    
C66   C79   A    
C65   H29   S    
C78   H44   S    
C26   H6    S    
C71   C74   A    
N2    N5    A    
C43   C45   A    
C9    C18   A    
C26   C33   S    
C47   H23   S    
O3    C103  S    
C32   C92   S    
C103  H69   S    
C27   H7    S    
C68   C72   A    
C16   C34   S    
C29   C39   S    
C70   C73   A    
C78   N12   A    
C45   C49   A    
C41   C47   A    
C10   C114  S    
C30   C40   S    
N6    Ni6   S    
C59   C111  S    
N9    N10   A    
C8    C20   A    
C96   N20   A    
C76   N10   A    
C108  H83   S    
C42   H18   S    
N27   N32   A    
C53   H25   S    
C42   C62   A    
C83   H47   S    
C95   N19   A    
C103  H68   S    
C70   H38   S    
C7    C19   A    
C14   C80   S    
C109  H86   S    
C60   C112  S    
C107  H80   S    
C97   H53   S    
C117  H110  S    
C59   C63   A    
C111  H93   S    
N11   Ni8   S    
C95   H51   S    
C15   C98   A    
C8    H60   S    
N15   Ni4   S    
C114  H100  S    
C18   C50   S    
C113  H98   S    
C116  H106  S    
C75   C89   A    
C29   H13   S    
C112  H96   S    
C93   N17   A    
N8    Ni8   S    
C116  H108  S    
C99   N23   A    
C13   C94   A    
N4    N7    A    
C67   H31   S    
C67   C80   A    
C24   C28   S    
C31   C91   S    
C55   H27   S    
C40   C108  S    
C21   C31   S    
N17   N18   A    
C36   H34   S    
C48   H24   S    
C113  H99   S    
C47   C51   A    
N4    Ni4   S    
C16   C99   A    
C71   H39   S    
C4    C88   A    
C25   H9    S    
C36   C85   A    
C105  H75   S    
C1    O1    S    
C6    N26   A    
C5    H57   S    
C115  H105  S    
C60   C64   A    
C38   C87   A    
C20   C52   S    
C110  H90   S    
C41   H17   S    
C23   C32   S    
C114  H102  S    
N26   N29   A    
C111  H92   S    
N3    N8    A    
C73   C89   S    
C119  H115  S    
C120  H119  S    
C116  H107  S    
C84   N16   A    
C30   C32   S    
C54   H26   S    
C74   C90   S    
C113  H97   S    
C28   H8    S    
C65   C69   A    
C12   C19   A    
C35   N5    A    
C56   C58   A    
C2    C86   A    
N15   N16   A    
C67   C71   A    
C56   H28   S    
N16   Ni3   S    
C104  H71   S    
C100  N24   A    
C108  H84   S    
N23   Ni7   S    
C25   H5    S    
C39   C106  S    
C49   C53   A    
C25   C33   S    
N1    Ni1   S    
C82   C91   A    
C28   C34   S    
N19   N20   A    
C81   C91   A    
C19   C51   S    
C94   H50   S    
C72   H40   S    
C5    C17   A    
C66   C70   A    
N14   Ni1   S    
C29   C31   S    
C36   N6    A    
C22   C26   S    
C109  H87   S    
C114  H101  S    
C4    O4    S    
C102  H65   S    
N7    Ni7   S    
C117  H109  S    
C39   C105  S    
C84   C92   A    
C110  H89   S    
C40   C107  S    
C109  H85   S    
C15   C33   S    
N10   Ni5   S    
C57   C109  S    
C52   C56   A    
C43   H19   S    
N9    Ni6   S    
C66   H30   S    
C76   H42   S    
