data_mof_unit_34718.cif
_audit_creation_date              2012-10-26T19:57:52-0400
_audit_creation_method            fapswitch 2.2
_symmetry_space_group_name_H-M    P1
_symmetry_Int_Tables_number       1
_space_group_crystal_system       triclinic
_cell_length_a                    7.463222
_cell_length_b                    8.68173
_cell_length_c                    12.961022
_cell_angle_alpha                 88.078976
_cell_angle_beta                  79.322769
_cell_angle_gamma                 102.76689
_cell_volume                      802.416899969

loop_
_atom_site_label
_atom_site_type_symbol
_atom_type_description
_atom_site_fract_x
_atom_site_fract_y
_atom_site_fract_z
_atom_type_partial_charge
Br1   Br    Br    0.015516 0.292490 0.069221 -0.494784
Br2   Br    Br    0.984484 0.707509 0.930779 -0.494784
C1    C     C_R   0.452833 0.199732 0.503204 0.555442
C2    C     C_R   0.725028 0.587766 0.120855 -0.052490
C3    C     C_R   0.602298 0.547053 0.858542 -0.105238
C4    C     C_R   0.397702 0.452947 0.141458 -0.105238
C5    C     C_R   0.587530 0.537413 0.967260 0.037008
C6    C     C_R   0.412470 0.462587 0.032740 0.037008
C7    C     C_2   0.426255 0.031884 0.504762 -0.134828
C8    C     C_2   0.573744 0.968116 0.495238 -0.134828
C9    C     C_R   0.547167 0.800268 0.496796 0.555442
C10   C     C_R   0.466482 0.494355 0.701272 0.553063
C11   C     C_R   0.533518 0.505645 0.298728 0.553063
C12   C     C_R   0.552806 0.514778 0.185220 -0.029430
C13   C     C_R   0.447194 0.485221 0.814780 -0.029430
C14   C     C_R   0.256497 0.399454 0.987767 0.185262
C15   C     C_R   0.743503 0.600545 0.012233 0.185262
C16   C     C_R   0.274972 0.412234 0.879145 -0.052490
Cu1   Cu    Cu3+1 0.686350 0.517570 0.488220 0.996330
Cu2   Cu    Cu3+1 0.313650 0.482430 0.511780 0.996330
H1    H     H_    0.266366 0.396644 0.193028 0.185223
H2    H     H_    0.733634 0.603356 0.806972 0.185223
H3    H     H_    0.845131 0.637225 0.155047 0.176631
H4    H     H_    0.154869 0.362775 0.844952 0.176631
H5    H     H_    0.934104 0.376553 0.583110 0.242890
H6    H     H_    0.065896 0.623447 0.416890 0.242890
H7    H     H_    0.284038 0.960416 0.513756 0.141329
H8    H     H_    0.715962 0.039584 0.486244 0.141329
N1    N     N_2   0.033570 0.455950 0.529530 -0.252926
N2    N     N_2   0.966430 0.544050 0.470470 -0.252926
O1    O     O_R   0.621060 0.286250 0.492350 -0.503026
O2    O     O_R   0.378940 0.713750 0.507650 -0.503026
O3    O     O_R   0.306310 0.256580 0.512240 -0.497111
O4    O     O_R   0.693690 0.743420 0.487760 -0.497111
O5    O     O_R   0.631800 0.512400 0.642670 -0.510738
O6    O     O_R   0.368200 0.487600 0.357330 -0.510738
O7    O     O_R   0.317060 0.482730 0.662570 -0.492606
O8    O     O_R   0.682940 0.517270 0.337430 -0.492606

loop_
_geom_bond_atom_site_label_1
_geom_bond_atom_site_label_2
_ccdc_geom_bond_type
C13   C16   A    
N1    N2    D    
C1    C7    S    
Cu1   O8    S    
C4    C12   A    
C7    C8    D    
Cu1   Cu2   S    
C10   C13   S    
Cu1   O1    S    
C2    C12   A    
C5    C6    A    
C6    C14   A    
Br1   C14   S    
Cu1   O5    S    
C11   C12   S    
Br2   C15   S    
C1    O1    A    
Cu2   O7    S    
Cu1   N2    S    
C11   O8    A    
C16   H4    S    
C2    C15   A    
C9    O2    A    
H6    N2    S    
Cu2   N1    S    
H5    N1    S    
C10   O5    A    
C3    C13   A    
C8    C9    S    
Cu2   O3    S    
Cu2   O6    S    
C7    H7    S    
C11   O6    A    
C14   C16   A    
Cu2   O2    S    
C8    H8    S    
C10   O7    A    
C3    C5    A    
C2    H3    S    
C1    O3    A    
C4    C6    A    
C4    H1    S    
C9    O4    A    
C3    H2    S    
C5    C15   A    
Cu1   O4    S    
