data_mof_unit_62166.cif
_audit_creation_date              2012-12-10T20:09:42-0500
_audit_creation_method            fapswitch 2.2
_symmetry_space_group_name_H-M    P1
_symmetry_Int_Tables_number       1
_space_group_crystal_system       triclinic
_cell_length_a                    22.522628
_cell_length_b                    22.523961
_cell_length_c                    21.262996
_cell_angle_alpha                 90.012025
_cell_angle_beta                  58.049479
_cell_angle_gamma                 90.006717
_cell_volume                      9152.56644663

loop_
_atom_site_label
_atom_site_type_symbol
_atom_type_description
_atom_site_fract_x
_atom_site_fract_y
_atom_site_fract_z
_atom_type_partial_charge
C1    C     C_R   0.400255 0.250092 0.699709 0.822649
C2    C     C_3   0.287023 0.750401 0.926956 0.066369
C3    C     C_3   0.625263 0.590170 0.911790 -0.952421
C4    C     C_3   0.156540 0.873975 0.002197 0.072327
C5    C     C_3   0.099593 0.921367 0.039025 -0.293261
C6    C     C_3   0.101771 0.963974 0.982123 -1.008121
C7    C     C_3   0.854621 0.136387 0.004257 0.071724
C8    C     C_3   0.921070 0.154834 0.002107 -0.337491
C9    C     C_3   0.924722 0.126143 0.064999 -0.969613
C10   C     C_3   0.855940 0.863414 0.998363 0.071752
C11   C     C_3   0.913963 0.909937 0.961704 -0.292680
C12   C     C_3   0.918134 0.947297 0.019083 -1.004568
C13   C     C_3   0.286775 0.250109 0.926826 0.071623
C14   C     C_3   0.137472 0.136459 0.005117 0.080704
C15   C     C_3   0.131022 0.161793 0.941896 -0.385853
C16   C     C_3   0.121976 0.112545 0.898368 -0.954099
C17   C     C_3   0.713111 0.750334 0.072978 0.065574
C18   C     C_3   0.214960 0.748579 0.073201 0.070700
C19   C     C_3   0.786617 0.250115 0.926915 0.064909
C20   C     C_3   0.784992 0.748762 0.926867 0.072391
C21   C     C_3   0.213048 0.249633 0.073049 0.065509
C22   C     C_1   0.672484 0.250531 0.154211 0.004893
C23   C     C_1   0.327434 0.750268 0.845853 0.004944
C24   C     C_1   0.327619 0.250462 0.845767 0.000659
C25   C     C_R   0.599853 0.750020 0.300262 0.821709
C26   C     C_1   0.672748 0.750256 0.154111 0.006714
C27   C     C_1   0.173989 0.748862 0.154262 0.007637
C28   C     C_1   0.827511 0.249791 0.845829 0.000719
C29   C     C_1   0.825920 0.749029 0.845784 0.005539
C30   C     C_1   0.172248 0.249392 0.154153 0.003414
C31   C     C_1   0.276628 0.249996 0.499995 -0.150776
C32   C     C_1   0.723369 0.750000 0.500012 -0.150598
C33   C     C_1   0.723371 0.250002 0.500006 -0.149551
C34   C     C_1   0.276629 0.749998 0.499993 -0.149765
C35   C     C_1   0.776628 0.749996 0.499994 -0.150542
C36   C     C_R   0.599759 0.250077 0.300285 0.821520
C37   C     C_1   0.223369 0.250000 0.500012 -0.150829
C38   C     C_1   0.223372 0.750000 0.500004 -0.149859
C39   C     C_1   0.776628 0.250000 0.499996 -0.149451
C40   C     C_1   0.499996 0.026625 0.499997 -0.152828
C41   C     C_1   0.499999 0.973375 0.500006 -0.152787
C42   C     C_1   0.999993 0.526625 0.500000 -0.152381
C43   C     C_1   0.999996 0.473375 0.500009 -0.152367
C44   C     C_R   0.660139 0.250011 0.500005 0.841383
C45   C     C_R   0.339861 0.749989 0.499994 0.841724
C46   C     C_R   0.339859 0.250007 0.499993 0.841901
C47   C     C_R   0.400177 0.750012 0.699731 0.821606
C48   C     C_R   0.660139 0.749990 0.500010 0.841479
C49   C     C_R   0.160139 0.750010 0.500005 0.841454
C50   C     C_R   0.839860 0.249990 0.499995 0.841868
C51   C     C_R   0.839859 0.750008 0.499993 0.841626
C52   C     C_R   0.160139 0.249990 0.500010 0.841581
C53   C     C_R   0.499998 0.089859 0.499998 0.839666
C54   C     C_R   0.500000 0.910141 0.500004 0.839148
C55   C     C_R   0.999996 0.589859 0.499999 0.839682
C56   C     C_R   0.999998 0.410141 0.500006 0.839578
C57   C     C_R   0.499999 0.410150 0.500001 0.843996
C58   C     C_R   0.900069 0.749921 0.699715 0.822296
C59   C     C_R   0.500001 0.589850 0.500000 0.844402
C60   C     C_R   0.999999 0.910150 0.500000 0.843584
C61   C     C_R   0.000001 0.089850 0.499999 0.843847
C62   C     C_1   0.499999 0.473377 0.500001 -0.147346
C63   C     C_1   0.500001 0.526623 0.500000 -0.147422
C64   C     C_1   0.999999 0.973377 0.500000 -0.148331
C65   C     C_1   0.000001 0.026623 0.499999 -0.148343
C66   C     C_3   0.284612 0.802359 0.975948 -0.325753
C67   C     C_3   0.719605 0.196421 0.024976 -0.320180
C68   C     C_3   0.720419 0.804130 0.024232 -0.321166
C69   C     C_R   0.099736 0.249893 0.300272 0.821363
C70   C     C_3   0.271814 0.193801 0.974686 -0.333415
C71   C     C_3   0.780270 0.304088 0.975219 -0.300357
C72   C     C_3   0.217369 0.696686 0.024273 -0.317038
C73   C     C_3   0.228153 0.305810 0.025149 -0.317223
C74   C     C_3   0.777813 0.694903 0.975596 -0.332175
C75   C     C_3   0.701047 0.291536 0.023673 0.607395
C76   C     C_3   0.297162 0.706233 0.975192 0.594654
C77   C     C_3   0.304660 0.284690 0.976593 0.582856
C78   C     C_3   0.698910 0.709386 0.024761 0.605712
C79   C     C_3   0.204793 0.792817 0.025075 0.580305
C80   C     C_R   0.099908 0.749915 0.300295 0.821457
C81   C     C_3   0.798710 0.209175 0.976478 0.598636
C82   C     C_3   0.799082 0.789579 0.975045 0.580978
C83   C     C_3   0.195076 0.214890 0.023258 0.608737
C84   C     C_1   0.639195 0.250341 0.220918 -0.137177
C85   C     C_1   0.360604 0.750102 0.779128 -0.136882
C86   C     C_1   0.360854 0.250360 0.779067 -0.135732
C87   C     C_1   0.639516 0.750118 0.220847 -0.136371
C88   C     C_1   0.140128 0.749338 0.220953 -0.136392
C89   C     C_1   0.860780 0.249796 0.779113 -0.135233
C90   C     C_1   0.859812 0.749415 0.779081 -0.134950
C91   C     C_R   0.900239 0.249936 0.699726 0.822684
C92   C     C_1   0.139072 0.249558 0.220877 -0.137837
C93   C     C_3   0.792842 0.262313 0.025225 -0.315057
C94   C     C_3   0.206769 0.741767 0.975626 -0.312985
C95   C     C_3   0.209672 0.270574 0.974932 -0.295461
C96   C     C_3   0.792349 0.736609 0.024324 -0.319867
C97   C     C_3   0.295131 0.757276 0.024680 -0.308256
C98   C     C_3   0.706950 0.238177 0.974884 -0.335544
C99   C     C_3   0.705811 0.762565 0.975585 -0.296182
C100  C     C_3   0.290190 0.229157 0.025081 -0.325614
C101  C     C_3   0.626447 0.353296 0.007669 0.086754
C102  C     C_3   0.713328 0.250434 0.073135 0.063216
C103  C     C_3   0.680792 0.391227 0.942292 -0.382708
C104  C     C_3   0.649767 0.418889 0.900436 -0.948333
C105  C     C_3   0.348289 0.627273 0.000072 0.071743
C106  C     C_3   0.416718 0.638285 0.997232 -0.332043
C107  C     C_3   0.419512 0.602428 0.056508 -0.966755
C108  C     C_3   0.369948 0.344928 0.005054 0.072758
C109  C     C_3   0.429442 0.390232 0.973388 -0.297659
C110  C     C_3   0.437906 0.416856 0.034216 -1.004803
C111  C     C_3   0.649264 0.623316 0.009875 0.089295
C112  C     C_3   0.633056 0.643267 0.951475 -0.384900
H1    H     H_    0.311938 0.845548 0.955294 0.157381
H2    H     H_    0.826867 0.271920 0.047177 0.158903
H3    H     H_    0.827171 0.726900 0.045298 0.159216
H4    H     H_    0.177067 0.287110 0.953719 0.159388
H5    H     H_    0.673482 0.227439 0.952542 0.157214
H6    H     H_    0.330403 0.762877 0.045931 0.157539
H7    H     H_    0.322543 0.212772 0.046669 0.157905
H8    H     H_    0.670895 0.772814 0.954885 0.157766
H9    H     H_    0.578463 0.380443 0.041098 0.179100
H10   H     H_    0.610183 0.314420 0.988106 0.123677
H11   H     H_    0.699863 0.427169 0.963065 0.234278
H12   H     H_    0.695481 0.152194 0.046274 0.160935
H13   H     H_    0.725945 0.363241 0.902903 0.215467
H14   H     H_    0.629055 0.383818 0.880364 0.267862
H15   H     H_    0.690926 0.444111 0.851982 0.266348
H16   H     H_    0.606950 0.449942 0.937022 0.264647
H17   H     H_    0.345468 0.579526 0.988755 0.167125
H18   H     H_    0.302972 0.636077 0.057304 0.121743
H19   H     H_    0.461741 0.625602 0.941732 0.236285
H20   H     H_    0.421490 0.686217 0.006043 0.217805
H21   H     H_    0.375152 0.614661 0.112549 0.267616
H22   H     H_    0.469128 0.611881 0.053883 0.275223
H23   H     H_    0.697168 0.848697 0.044997 0.157924
H24   H     H_    0.417065 0.554195 0.047366 0.267442
H25   H     H_    0.382012 0.308761 0.032283 0.140615
H26   H     H_    0.320754 0.367731 0.047085 0.133929
H27   H     H_    0.479234 0.368373 0.931502 0.227085
H28   H     H_    0.418225 0.426482 0.945659 0.227934
H29   H     H_    0.388559 0.438650 0.077027 0.267311
H30   H     H_    0.480067 0.450706 0.009934 0.263480
H31   H     H_    0.452032 0.381709 0.060664 0.265567
H32   H     H_    0.611110 0.588290 0.044602 0.179207
H33   H     H_    0.701625 0.602033 0.983343 0.122049
H34   H     H_    0.291569 0.148727 0.952273 0.154946
H35   H     H_    0.583825 0.669525 0.978496 0.238329
H36   H     H_    0.676250 0.671553 0.909402 0.214041
H37   H     H_    0.674223 0.563591 0.883820 0.268986
H38   H     H_    0.614451 0.606066 0.869389 0.269439
H39   H     H_    0.581093 0.561566 0.951825 0.264706
H40   H     H_    0.147517 0.847513 0.963736 0.136466
H41   H     H_    0.208305 0.896508 0.970285 0.138195
H42   H     H_    0.047419 0.899588 0.069956 0.224931
H43   H     H_    0.106901 0.947083 0.079082 0.229896
H44   H     H_    0.153125 0.986990 0.951358 0.266009
H45   H     H_    0.804860 0.348185 0.954038 0.159489
H46   H     H_    0.059991 0.997797 0.011100 0.266009
H47   H     H_    0.092955 0.939565 0.942361 0.276461
H48   H     H_    0.856910 0.087817 0.994024 0.168249
H49   H     H_    0.807860 0.143975 0.060930 0.123932
H50   H     H_    0.967650 0.141444 0.948125 0.236174
H51   H     H_    0.922264 0.203824 0.007039 0.220947
H52   H     H_    0.878775 0.139419 0.119497 0.269940
H53   H     H_    0.972878 0.140930 0.062565 0.278431
H54   H     H_    0.925966 0.077058 0.060009 0.264538
H55   H     H_    0.867198 0.833333 0.032359 0.138800
H56   H     H_    0.190700 0.653220 0.044777 0.160175
H57   H     H_    0.805309 0.886682 0.034861 0.135959
H58   H     H_    0.965051 0.887440 0.925457 0.226578
H59   H     H_    0.903790 0.939683 0.926697 0.230211
H60   H     H_    0.867766 0.970616 0.055695 0.263110
H61   H     H_    0.960058 0.981010 0.990215 0.269424
H62   H     H_    0.930610 0.918822 0.053239 0.274131
H63   H     H_    0.093114 0.105505 0.037997 0.178485
H64   H     H_    0.185557 0.109135 0.983156 0.125662
H65   H     H_    0.085399 0.192294 0.964986 0.237879
H66   H     H_    0.178978 0.187060 0.902842 0.216946
H67   H     H_    0.210575 0.351508 0.046527 0.158554
H68   H     H_    0.167652 0.082072 0.873829 0.267632
H69   H     H_    0.118039 0.132332 0.852884 0.269230
H70   H     H_    0.073472 0.086951 0.934982 0.271652
H71   H     H_    0.802855 0.651035 0.953968 0.155878
H72   H     H_    0.171096 0.736354 0.954824 0.158838
O1    O     O_3   0.500000 0.250010 0.500000 -0.490170
O2    O     O_R   0.116800 0.215380 0.335590 -0.635455
O3    O     O_R   0.116800 0.784620 0.335590 -0.632982
O4    O     O_R   0.883200 0.215380 0.664410 -0.632892
O5    O     O_R   0.610480 0.215400 0.543100 -0.634767
O6    O     O_R   0.389520 0.784600 0.456900 -0.634261
O7    O     O_R   0.389520 0.215400 0.456900 -0.635009
O8    O     O_R   0.610480 0.784600 0.543100 -0.634817
O9    O     O_R   0.110480 0.715400 0.543100 -0.634676
O10   O     O_R   0.889520 0.284600 0.456900 -0.634064
O11   O     O_R   0.889520 0.715400 0.456900 -0.634658
O12   O     O_3   0.500000 0.749990 0.500000 -0.490138
O13   O     O_R   0.110480 0.284600 0.543100 -0.634752
O14   O     O_R   0.513060 0.117980 0.543100 -0.636097
O15   O     O_R   0.486940 0.882020 0.456900 -0.636403
O16   O     O_R   0.486940 0.117980 0.456900 -0.636447
O17   O     O_R   0.513060 0.882020 0.543100 -0.636456
O18   O     O_R   0.013060 0.617980 0.543100 -0.636088
O19   O     O_R   0.986940 0.382020 0.456900 -0.636126
O20   O     O_R   0.986940 0.617980 0.456900 -0.636293
O21   O     O_R   0.013060 0.382020 0.543100 -0.636235
O22   O     O_R   0.443850 0.382040 0.543100 -0.634376
O23   O     O_3   1.000000 0.750010 0.500000 -0.490144
O24   O     O_R   0.556150 0.617960 0.456900 -0.634060
O25   O     O_R   0.556150 0.382040 0.456900 -0.633867
O26   O     O_R   0.443850 0.617960 0.543100 -0.633893
O27   O     O_R   0.943850 0.882040 0.543100 -0.634147
O28   O     O_R   0.056150 0.117960 0.456900 -0.634672
O29   O     O_R   0.056150 0.882040 0.456900 -0.634357
O30   O     O_R   0.943850 0.117960 0.543100 -0.633985
O31   O     O_R   0.653580 0.284630 0.456900 -0.635500
O32   O     O_R   0.346420 0.715370 0.543100 -0.635909
O33   O     O_R   0.346420 0.284630 0.543100 -0.635663
O34   O     O_3   1.000000 0.249990 0.500000 -0.490111
O35   O     O_R   0.653580 0.715370 0.456900 -0.635877
O36   O     O_R   0.153580 0.784630 0.456900 -0.635652
O37   O     O_R   0.846420 0.215370 0.543100 -0.635891
O38   O     O_R   0.846420 0.784630 0.543100 -0.635874
O39   O     O_R   0.153580 0.215370 0.456900 -0.636111
O40   O     O_R   0.452420 0.215390 0.664410 -0.634213
O41   O     O_R   0.547580 0.784610 0.335590 -0.634350
O42   O     O_R   0.547580 0.215390 0.335590 -0.636364
O43   O     O_R   0.452420 0.784610 0.664410 -0.635960
O44   O     O_R   0.952420 0.715390 0.664410 -0.634729
O45   O     O_R   0.383200 0.284620 0.664410 -0.634569
O46   O     O_R   0.047580 0.284610 0.335590 -0.633258
O47   O     O_R   0.047580 0.715390 0.335590 -0.635776
O48   O     O_R   0.952420 0.284610 0.664410 -0.635762
O49   O     O_3   0.649665 0.336677 0.055295 -0.645392
O50   O     O_3   0.347858 0.660723 0.943958 -0.641100
O51   O     O_3   0.364171 0.321642 0.946895 -0.639536
O52   O     O_3   0.641084 0.670182 0.058121 -0.644918
O53   O     O_3   0.153206 0.837459 0.057806 -0.641013
O54   O     O_3   0.851791 0.165569 0.946928 -0.640890
O55   O     O_3   0.854279 0.831138 0.942497 -0.640340
O56   O     O_R   0.616800 0.715380 0.335590 -0.634023
O57   O     O_3   0.132687 0.181268 0.054251 -0.645229
O58   O     O_R   0.616800 0.284620 0.335590 -0.632274
O59   O     O_R   0.383200 0.715380 0.664410 -0.632690
O60   O     O_R   0.883200 0.784620 0.664410 -0.633871
Zn1   Zn    Zn3+2 0.580250 0.299470 0.438420 0.986590
Zn2   Zn    Zn3+2 0.481330 0.799450 0.438420 0.982574
Zn3   Zn    Zn3+2 0.481330 0.200550 0.438420 0.981104
Zn4   Zn    Zn3+2 0.518670 0.799450 0.561580 0.981139
Zn5   Zn    Zn3+2 0.018670 0.700550 0.561580 0.982499
Zn6   Zn    Zn3+2 0.981330 0.299450 0.438420 0.983524
Zn7   Zn    Zn3+2 0.981330 0.700550 0.438420 0.981698
Zn8   Zn    Zn3+2 0.018670 0.299450 0.561580 0.981883
Zn9   Zn    Zn3+2 0.419750 0.700530 0.561580 0.986384
Zn10  Zn    Zn3+2 0.419750 0.299470 0.561580 0.985286
Zn11  Zn    Zn3+2 0.580250 0.700530 0.438420 0.985569
Zn12  Zn    Zn3+2 0.080250 0.799470 0.438420 0.985577
Zn13  Zn    Zn3+2 0.919750 0.200530 0.561580 0.986247
Zn14  Zn    Zn3+2 0.919750 0.799470 0.561580 0.985399
Zn15  Zn    Zn3+2 0.080250 0.200530 0.438420 0.983777
Zn16  Zn    Zn3+2 0.518670 0.200550 0.561580 0.982647

loop_
_geom_bond_atom_site_label_1
_geom_bond_atom_site_label_2
_ccdc_geom_bond_type
C59   O24   A    
C8    C9    S    
O39   Zn15  S    
C91   O4    A    
C50   O37   A    
C11   H59   S    
O32   Zn9   S    
C66   H1    S    
C20   C82   S    
O33   Zn10  S    
C9    H52   S    
C44   O31   A    
O34   Zn6   S    
C105  O50   S    
C73   C95   S    
C19   C71   S    
C111  C112  S    
O23   Zn12  S    
C25   C87   S    
C46   O7    A    
C72   C76   S    
O47   Zn7   S    
C67   H12   S    
O14   Zn16  S    
O45   Zn10  S    
C2    C76   S    
C57   C62   S    
C12   H60   S    
C56   O19   A    
C108  C109  S    
C10   H57   S    
C106  H20   S    
C66   C79   S    
C7    H49   S    
O12   Zn11  S    
C53   O14   A    
C33   C39   T    
O35   Zn11  S    
C13   C95   S    
C1    O40   A    
C17   C26   S    
C47   C85   S    
C66   C97   S    
C12   H62   S    
C9    H54   S    
C107  H22   S    
C50   O10   A    
C111  H33   S    
C5    C6    S    
C42   C55   S    
C16   H70   S    
C104  H15   S    
C13   C70   S    
C51   O38   A    
C16   H68   S    
C15   C16   S    
C14   O57   S    
C21   C73   S    
C79   O53   S    
C77   O51   S    
C45   O32   A    
O7    Zn3   S    
C81   O54   S    
C77   C100  S    
C24   C86   T    
C97   H6    S    
C110  H30   S    
C14   H64   S    
O46   Zn6   S    
C67   C98   S    
O43   Zn4   S    
O20   Zn7   S    
O23   Zn5   S    
C56   O21   A    
C21   C83   S    
C10   H55   S    
C3    H38   S    
C31   C46   S    
O11   Zn7   S    
O4    Zn13  S    
C75   C102  S    
C4    O53   S    
O10   Zn6   S    
O30   Zn13  S    
C28   C89   T    
O48   Zn8   S    
O24   Zn11  S    
O9    Zn5   S    
C89   C91   S    
C69   C92   S    
C42   C43   T    
C95   H4    S    
C91   O48   A    
O15   Zn2   S    
C59   O26   A    
O1    Zn3   S    
O12   Zn9   S    
C72   C94   S    
C4    H41   S    
C99   H8    S    
C108  O51   S    
C103  H11   S    
C10   O55   S    
C101  C103  S    
C46   O33   A    
O12   Zn4   S    
C72   H56   S    
C109  H27   S    
C18   C79   S    
C94   H72   S    
O37   Zn13  S    
O16   Zn3   S    
C29   C90   T    
C6    H46   S    
C19   C98   S    
C70   C100  S    
C6    H47   S    
C17   C96   S    
C13   C77   S    
C20   C29   S    
C18   C72   S    
C106  H19   S    
C71   H45   S    
C57   O25   A    
O6    Zn2   S    
O58   Zn1   S    
C3    H37   S    
C49   O36   A    
C20   C74   S    
C32   C35   T    
C74   C96   S    
C7    C8    S    
C82   C96   S    
C17   C68   S    
C79   C94   S    
C30   C92   T    
C19   C81   S    
O1    Zn10  S    
C38   C49   S    
C37   C52   S    
C16   H69   S    
C26   C87   T    
C105  H17   S    
C74   H71   S    
O34   Zn13  S    
C25   O56   A    
C76   C97   S    
C5    H43   S    
C55   O18   A    
C57   O22   A    
C75   C98   S    
C101  H9    S    
C54   O15   A    
C112  H36   S    
C13   C24   S    
C61   O28   A    
C22   C84   T    
C110  H29   S    
C60   O29   A    
O26   Zn9   S    
C107  H24   S    
C19   C28   S    
C1    O45   A    
C44   O5    A    
O19   Zn6   S    
C81   C93   S    
C43   C56   S    
O1    Zn16  S    
C104  H16   S    
C7    O54   S    
C2    C94   S    
C3    C112  S    
C83   C95   S    
C82   O55   S    
C53   O16   A    
C62   C63   T    
C111  O52   S    
O13   Zn8   S    
C35   C51   S    
O60   Zn14  S    
C96   H3    S    
C100  H7    S    
C106  C107  S    
C4    H40   S    
C58   O60   A    
C70   C83   S    
C58   C90   S    
O2    Zn15  S    
O38   Zn14  S    
C34   C45   S    
C111  H32   S    
C52   O39   A    
C78   O52   S    
C70   H34   S    
C109  H28   S    
C40   C41   T    
C18   C97   S    
O31   Zn1   S    
C15   H65   S    
C101  O49   S    
C59   C63   S    
C61   O30   A    
O34   Zn15  S    
C80   O47   A    
O22   Zn10  S    
O25   Zn1   S    
C2    C23   S    
C58   O44   A    
C98   H5    S    
O1    Zn1   S    
O44   Zn5   S    
C105  C106  S    
O41   Zn2   S    
C21   C100  S    
C14   H63   S    
O56   Zn11  S    
C36   O42   A    
O5    Zn16  S    
O12   Zn2   S    
C34   C38   T    
C33   C44   S    
O34   Zn8   S    
C68   H23   S    
C18   C27   S    
C4    C5    S    
C2    C66   S    
C8    H51   S    
C22   C102  S    
C93   C102  S    
C76   O50   S    
C11   C12   S    
C67   C81   S    
C105  H18   S    
C71   C93   S    
C78   C99   S    
C54   O17   A    
C21   C30   S    
C83   O57   S    
O28   Zn15  S    
C3    H39   S    
C101  H10   S    
O59   Zn9   S    
C112  H35   S    
O40   Zn16  S    
O8    Zn4   S    
C60   C64   S    
C108  H25   S    
C36   O58   A    
C64   C65   T    
C110  H31   S    
C9    H53   S    
C11   H58   S    
C47   O43   A    
C68   C99   S    
C23   C85   T    
C39   C50   S    
C107  H21   S    
O21   Zn8   S    
C51   O11   A    
C69   O46   A    
C71   C75   S    
O23   Zn14  S    
C32   C48   S    
C20   C99   S    
C49   O9    A    
C36   C84   S    
C55   O20   A    
O36   Zn12  S    
C25   O41   A    
C17   C78   S    
C47   O59   A    
C80   O3    A    
C75   O49   S    
C68   C82   S    
C93   H2    S    
C61   C65   S    
C27   C88   T    
C103  H13   S    
C60   O27   A    
C6    H44   S    
C41   C54   S    
C48   O8    A    
C10   C11   S    
C73   H67   S    
C31   C37   T    
C45   O6    A    
C1    C86   S    
O18   Zn5   S    
C104  H14   S    
O27   Zn14  S    
C80   C88   S    
C40   C53   S    
C74   C78   S    
C15   H66   S    
C103  C104  S    
O17   Zn4   S    
C73   C77   S    
C14   C15   S    
O29   Zn12  S    
C8    H50   S    
C52   O13   A    
O3    Zn12  S    
C109  C110  S    
O23   Zn7   S    
C69   O2    A    
C7    H48   S    
C5    H42   S    
C67   C102  S    
C12   H61   S    
C108  H26   S    
C48   O35   A    
O42   Zn3   S    
