data_mof_unit_49072.cif
_audit_creation_date              2013-03-05T16:14:47-0500
_audit_creation_method            fapswitch 2.2
_symmetry_space_group_name_H-M    P1
_symmetry_Int_Tables_number       1
_space_group_crystal_system       triclinic
_cell_length_a                    8.309676
_cell_length_b                    17.369403
_cell_length_c                    19.156319
_cell_angle_alpha                 103.778114
_cell_angle_beta                  91.961864
_cell_angle_gamma                 98.06871
_cell_volume                      2652.1770431

loop_
_atom_site_label
_atom_site_type_symbol
_atom_site_description
_atom_site_fract_x
_atom_site_fract_y
_atom_site_fract_z
_atom_type_partial_charge
P1    P     P_3+3 0.040700 0.421000 0.332140 0.421724
O1    O     O_2   0.873520 0.443690 0.322540 -0.379350
O2    O     O_3   0.122020 0.450920 0.411670 -0.436018
O3    O     O_3   0.663590 0.591680 0.375790 -0.365288
O4    O     O_2   0.720764 0.520253 0.247151 -0.424727
O5    O     O_3   0.994892 0.316418 0.316276 -0.594958
O6    O     O_3   0.716377 0.675136 0.265938 -0.535621
H1    H     H_    0.680852 0.746202 0.366024 0.115801
C1    C     C_3   0.705070 0.816010 0.287141 -0.965013
H2    H     H_    0.837619 0.834397 0.301375 0.264994
H3    H     H_    0.680006 0.808383 0.228372 0.261341
P2    P     P_3+3 0.677490 0.686860 0.568200 0.482389
P3    P     P_3+3 0.140748 0.736519 0.421604 0.477287
O7    O     O_2   0.853350 0.696990 0.547450 -0.302171
O8    O     O_3   0.086060 0.635230 0.414460 -0.365128
O9    O     O_2   0.051392 0.782025 0.484215 -0.363749
O10   O     O_3   0.704287 0.712704 0.662414 -0.551839
O11   O     O_3   0.060163 0.755978 0.343233 -0.537164
C2    C     C_3   0.105537 0.700278 0.283695 0.329043
H4    H     H_    0.019867 0.643028 0.274235 0.101825
H5    H     H_    0.230967 0.687379 0.291806 0.011159
C3    C     C_3   0.099614 0.732710 0.216349 0.134021
H6    H     H_    0.980694 0.753406 0.208757 0.115732
C4    C     C_3   0.249224 0.731531 0.664006 1.199970
H7    H     H_    0.285552 0.696377 0.612048 -0.066826
C5    C     C_3   0.400527 0.774040 0.713787 -1.080707
H8    H     H_    0.457731 0.729197 0.734245 0.261298
H9    H     H_    0.490427 0.805940 0.684857 0.230082
H10   H     H_    0.365217 0.817705 0.761038 0.256063
Ba1   Ba    Ba6+2 0.854170 0.535040 0.467640 1.563684
C6    C     C_3   0.122209 0.279674 0.283005 0.410165
H11   H     H_    0.153323 0.236174 0.313436 0.129333
H12   H     H_    0.235523 0.321741 0.282730 0.063857
C7    C     C_3   0.064795 0.233388 0.206287 -1.032873
H13   H     H_    0.955725 0.188538 0.206669 0.278651
H14   H     H_    0.162869 0.201551 0.180855 0.231040
H15   H     H_    0.033164 0.274972 0.173971 0.258059
C8    C     C_3   0.727770 0.644692 0.686569 0.472923
H16   H     H_    0.827998 0.616885 0.659338 0.097255
H17   H     H_    0.614917 0.600148 0.675865 0.121340
C9    C     C_3   0.770983 0.669257 0.767551 -1.024073
H18   H     H_    0.891790 0.707860 0.779513 0.291651
H19   H     H_    0.774520 0.615241 0.788501 0.221024
H20   H     H_    0.678492 0.702733 0.796003 0.257791
P4    P     P_3+3 0.149010 0.579070 0.667870 0.445631
O12   O     O_2   0.316180 0.556340 0.677510 -0.402033
O13   O     O_3   0.067690 0.549150 0.588340 -0.423325
O14   O     O_3   0.526120 0.408390 0.624220 -0.335765
O15   O     O_3   0.159941 0.682993 0.702355 -0.614722
P5    P     P_3+3 0.066775 0.260382 0.578415 0.461926
O16   O     O_3   0.608980 0.401570 0.457310 -0.371809
O17   O     O_3   0.103650 0.364840 0.585560 -0.392096
O18   O     O_2   0.192148 0.222969 0.528482 -0.386787
O19   O     O_3   0.118631 0.239210 0.660381 -0.501784
Ba2   Ba    Ba6+2 0.335670 0.465030 0.532370 1.549729
P6    P     P_3+3 0.625521 0.586201 0.285266 0.413922
C10   C     C_3   0.645866 0.738111 0.307851 0.459890
H21   H     H_    0.511107 0.726458 0.298352 0.040661
H22   H     H_    0.640362 0.864210 0.316814 0.226205
O20   O     O_3   0.580730 0.598500 0.542710 -0.422596
C11   C     C_3   0.582327 0.320624 0.302191 0.251665
H23   H     H_    0.557512 0.383375 0.320455 0.108033
H24   H     H_    0.708576 0.316022 0.317225 0.155052
C12   C     C_3   0.559980 0.295852 0.219994 -0.422606
H25   H     H_    0.431685 0.295083 0.201410 0.163567
H26   H     H_    0.638186 0.341655 0.199189 0.188738
P7    P     P_3+3 0.513461 0.299533 0.426752 0.449758
O21   O     O_2   0.336360 0.303040 0.452600 -0.338304
O22   O     O_3   0.478079 0.269230 0.332677 -0.617429
H27   H     H_    0.105170 0.682194 0.168861 0.067948
C13   C     C_3   0.075749 0.298776 0.716751 0.519620
H28   H     H_    0.149059 0.358003 0.718427 0.135234
H29   H     H_    0.944116 0.301932 0.710542 0.009211
C14   C     C_3   0.109339 0.277471 0.787901 -0.994194
H30   H     H_    0.239806 0.271824 0.795343 0.294613
H31   H     H_    0.079668 0.325016 0.833379 0.223869
H32   H     H_    0.033504 0.219697 0.788572 0.247489
P8    P     P_3+3 0.569893 0.400944 0.711072 0.443743
C15   C     C_3   0.551547 0.248421 0.665514 0.488844
H33   H     H_    0.683618 0.266263 0.660957 -0.062727
O23   O     O_2   0.467245 0.458481 0.756942 -0.426804
O24   O     O_3   0.489024 0.305036 0.718838 -0.527795
H34   H     H_    0.485850 0.242007 0.612481 0.115269
H35   H     H_    0.604760 0.126617 0.650157 0.154779
C16   C     C_3   0.532516 0.167577 0.685305 -0.464721
H36   H     H_    0.584185 0.177255 0.741625 0.163403
C17   C     C_R   0.058970 0.542128 0.802191 -0.324792
H37   H     H_    0.148809 0.593498 0.827314 0.153186
C18   C     C_R   0.023826 0.526361 0.726588 0.325137
C19   C     C_R   0.854671 0.430431 0.805787 -0.354251
H38   H     H_    0.800679 0.382074 0.828021 0.148595
C20   C     C_R   0.787660 0.434738 0.738941 0.235542
C21   C     C_R   0.337512 0.566017 0.194418 -0.361309
H39   H     H_    0.390230 0.617431 0.175962 0.160268
C22   C     C_R   0.408410 0.554415 0.257803 0.227553
C23   C     C_R   0.124212 0.456719 0.194790 -0.321858
H40   H     H_    0.023648 0.410823 0.169993 0.140580
C24   C     C_R   0.168865 0.465210 0.268933 0.286063
C25   C     C_R   0.984414 0.489366 0.843429 0.101723
C26   C     C_R   0.881455 0.475440 0.696624 -0.420666
H41   H     H_    0.837472 0.472094 0.642054 0.185481
C27   C     C_R   0.204388 0.510601 0.155375 0.102270
C28   C     C_R   0.318497 0.509012 0.297229 -0.404517
H42   H     H_    0.366849 0.506642 0.349750 0.163077
C29   C     C_R   0.758805 0.453608 0.957049 -0.179171
C30   C     C_R   0.654882 0.426414 0.004290 -0.118344
C31   C     C_R   0.704860 0.443743 0.076431 -0.117360
C32   C     C_R   0.861784 0.482716 0.099080 -0.164484
C33   C     C_R   0.982128 0.489202 0.050146 0.056921
C34   C     C_R   0.928089 0.478749 0.975671 0.098086
C35   C     C_R   0.149860 0.509999 0.076023 -0.080473
C36   C     C_R   0.261914 0.528441 0.024394 0.098226
C37   C     C_R   0.207931 0.518977 0.949893 0.062321
C38   C     C_R   0.040143 0.495378 0.923651 -0.074165
C39   C     C_R   0.430676 0.555153 0.043460 -0.169755
C40   C     C_R   0.534431 0.584144 0.997109 -0.105285
C41   C     C_R   0.484822 0.569041 0.925219 -0.113046
C42   C     C_R   0.328602 0.529971 0.901708 -0.153689
H43   H     H_    0.698471 0.459075 0.908656 0.150722
H44   H     H_    0.528649 0.402351 0.986842 0.136617
H45   H     H_    0.617976 0.433109 0.115172 0.140821
H46   H     H_    0.889426 0.508833 0.155215 0.183851
H47   H     H_    0.492073 0.549336 0.091248 0.145822
H48   H     H_    0.660361 0.608484 0.014990 0.134152
H49   H     H_    0.571191 0.581828 0.886893 0.140923
H50   H     H_    0.304390 0.507474 0.845185 0.187994
C43   C     C_2   0.436178 0.719022 0.486472 -0.390006
C44   C     C_3   0.367100 0.759540 0.433270 0.126116
C45   C     C_2   0.426395 0.847824 0.450200 -0.258195
C46   C     C_2   0.559909 0.880232 0.495536 0.118016
C47   C     C_2   0.638123 0.828196 0.534137 -0.291196
C48   C     C_1   0.574487 0.751943 0.525326 0.268358
C49   C     C_R   0.806160 0.132769 0.521951 -0.351451
C50   C     C_R   0.859244 0.215020 0.536677 0.111366
C51   C     C_R   0.616283 0.231704 0.469129 0.172909
C52   C     C_R   0.563754 0.149198 0.454216 -0.386084
C53   C     C_R   0.656083 0.099671 0.482177 0.148833
C54   C     C_2   0.626834 0.966682 0.510319 -0.185157
C55   C     C_2   0.596858 0.012943 0.465505 -0.146033
C56   C     C_R   0.760419 0.263756 0.512350 0.220198
H51   H     H_    0.522481 0.987879 0.415521 0.119600
H52   H     H_    0.744931 0.853881 0.570969 0.157239
H53   H     H_    0.884098 0.094934 0.539334 0.165252
H54   H     H_    0.702243 0.992653 0.560028 0.128448
H55   H     H_    0.360941 0.883337 0.423116 0.140047
H56   H     H_    0.452229 0.123646 0.420825 0.166394
H57   H     H_    0.378218 0.659112 0.486748 0.170223
N1    N     N_2   0.607733 0.217731 0.192568 -0.068775
H58   H     H_    0.540161 0.172382 0.210174 0.221026
C57   C     C_3   0.625443 0.196682 0.115845 -0.881679
H59   H     H_    0.670492 0.138117 0.100597 0.243659
H60   H     H_    0.715409 0.242574 0.100728 0.258632
H61   H     H_    0.506076 0.191736 0.085818 0.245080
N2    N     N_2   0.362224 0.132116 0.679492 -0.040748
H62   H     H_    0.327595 0.109335 0.722676 0.192881
C58   C     C_3   0.302516 0.078269 0.610704 -0.742605
H63   H     H_    0.167937 0.062975 0.609160 0.229451
H64   H     H_    0.356733 0.022154 0.603046 0.204297
H65   H     H_    0.333410 0.106916 0.565943 0.261474
O25   O     O_3   0.810231 0.344232 0.528078 -0.662768
C59   C     C_3   0.912637 0.359377 0.474781 0.182495
H66   H     H_    0.844731 0.358434 0.424761 0.104361
H67   H     H_    0.002239 0.317248 0.459598 0.094249
H68   H     H_    0.979666 0.419136 0.498676 0.226343
O26   O     O_3   0.237451 0.791378 0.218010 -0.590209
C60   C     C_3   0.197411 0.869250 0.241376 -0.160766
H69   H     H_    0.152611 0.879548 0.296326 0.155331
H70   H     H_    0.106144 0.880633 0.202670 0.127263
H71   H     H_    0.309142 0.913332 0.243862 0.147848
O27   O     O_3   0.146060 0.786269 0.651099 -0.592365
C61   C     C_3   0.229578 0.851457 0.628166 -0.232493
H72   H     H_    0.297632 0.896753 0.674435 0.135382
H73   H     H_    0.138865 0.881939 0.605848 0.198077
H74   H     H_    0.312245 0.831757 0.585784 0.129617

loop_
_geom_bond_atom_site_label_1
_geom_bond_atom_site_label_2
_geom_bond_distance
_ccdc_geom_bond_type
O14   Ba2   2.763915 S    
C8    H17   1.108004 S    
C61   H72   1.110423 S    
C49   C53   1.411134 A    
O26   C60   1.410212 S    
C23   C27   1.444249 A    
P6    C22   1.831253 S    
C7    H15   1.108663 S    
C9    H18   1.109944 S    
O4    P6    1.538591 D    
C35   C36   1.441536 A    
C29   C34   1.419767 A    
C44   C45   1.496498 S    
C25   C38   1.564691 S    
C59   H66   1.090739 S    
C10   H21   1.110371 S    
C51   C52   1.395258 A    
P4    O12   1.513530 D    
C40   C41   1.376217 A    
C61   H73   1.108647 S    
C5    H8    1.105791 S    
C21   H39   1.079619 S    
C14   H31   1.109466 S    
P3    O11   1.747256 S    
C58   H63   1.110254 S    
C2    H5    1.109831 S    
Ba1   O16   2.827148 S    
N1    C57   1.445482 S    
C7    H13   1.110563 S    
P1    O2    1.581633 S    
C33   C35   1.430016 A    
C50   C56   1.401776 A    
C8    H16   1.105319 S    
O27   C61   1.412049 S    
C24   C28   1.382226 A    
P2    C48   1.830529 S    
C32   C33   1.405097 A    
P1    O1    1.513203 D    
O14   P8    1.729567 S    
C11   H24   1.097152 S    
C43   C48   1.325170 D    
C26   H41   1.081043 S    
C3    O26   1.416243 S    
O2    Ba2   2.808018 S    
O19   C13   1.400411 S    
C2    H4    1.111338 S    
C14   H32   1.110611 S    
C23   C24   1.423204 A    
O12   Ba2   2.876542 S    
P5    O17   1.768436 S    
C31   C32   1.385804 A    
C6    H12   1.108853 S    
C4    H7    1.112416 S    
C5    H10   1.110970 S    
P4    C18   1.867823 S    
C1    H2    1.108486 S    
C34   C38   1.438264 A    
C45   H55   1.082957 S    
O17   Ba2   2.796624 S    
C16   N2    1.451225 S    
P2    Ba1   3.417751 S    
C37   C42   1.409809 A    
O5    C6    1.405277 S    
C21   C22   1.401048 A    
Ba2   O20   2.826468 S    
C12   N1    1.449318 S    
C60   H70   1.112405 S    
C9    H19   1.108362 S    
C27   C35   1.568452 S    
O6    P6    1.748571 S    
O7    Ba1   2.864939 S    
C36   C37   1.445240 A    
C59   H67   1.113923 S    
C22   C28   1.381122 A    
Ba2   O21   2.865133 S    
C17   C25   1.437594 A    
P4    O13   1.581633 S    
C51   C56   1.398338 A    
C61   H74   1.104516 S    
C49   H53   1.082194 S    
P5    O18   1.544275 D    
C39   H47   1.065408 S    
C14   H30   1.109610 S    
C18   C26   1.388998 A    
P7    O21   1.573323 D    
Ba1   O13   2.807379 S    
C2    C3    1.527643 S    
H35   C16   1.113237 S    
C8    C9    1.523517 S    
P5    C50   1.859606 S    
C32   H46   1.066018 S    
C13   H29   1.106636 S    
O11   C2    1.408986 S    
O16   Ba2   2.934592 S    
P8    C20   1.841343 S    
C16   H36   1.112763 S    
C57   H61   1.111567 S    
O3    Ba1   2.764564 S    
P1    O5    1.752720 S    
Ba1   O20   2.935585 S    
P7    O22   1.754872 S    
C12   H26   1.112525 S    
P2    O10   1.751262 S    
O2    Ba1   2.927198 S    
P7    C51   1.862192 S    
H1    C10   1.112602 S    
C15   O24   1.407716 S    
C53   C55   1.471536 S    
P8    O24   1.749140 S    
C19   C20   1.401408 A    
C6    H11   1.109898 S    
P4    O15   1.756378 S    
C23   H40   1.079309 S    
C6    C7    1.521623 S    
O16   P7    1.786866 S    
N1    H58   1.031910 S    
C1    H3    1.110634 S    
N2    H62   1.031495 S    
C47   H52   1.086561 S    
C60   H71   1.109321 S    
P2    O7    1.524919 D    
C17   C18   1.420382 A    
C49   C50   1.392050 A    
C9    H20   1.108621 S    
C57   H60   1.111581 S    
C31   H45   1.081975 S    
C47   C48   1.324052 D    
C46   C54   1.482063 S    
C19   C25   1.419704 A    
C15   C16   1.528372 S    
C59   H68   1.091370 S    
C4    O27   1.423476 S    
C20   C26   1.387791 A    
O8    Ba1   2.795858 S    
O13   Ba2   2.928108 S    
C37   C38   1.434619 A    
Ba1   Ba2   4.557363 S    
C11   O22   1.397949 S    
C4    O15   1.399138 S    
C40   H48   1.083230 S    
C30   H44   1.083097 S    
C3    H6    1.114307 S    
N2    C58   1.447499 S    
C58   H65   1.109574 S    
C4    C5    1.535333 S    
C52   C53   1.411437 A    
C21   C27   1.418133 A    
C13   C14   1.521761 S    
C43   C44   1.509456 S    
C29   C30   1.389405 A    
C5    H9    1.109330 S    
P3    C44   1.861500 S    
O1    Ba1   2.875935 S    
C12   H25   1.109603 S    
P3    O8    1.725430 S    
C46   C47   1.495477 S    
C45   C46   1.351974 D    
P1    C24   1.868567 S    
C13   H28   1.112404 S    
P5    O19   1.749139 S    
C54   H54   1.085395 S    
C33   C34   1.442172 A    
C56   O25   1.358109 S    
C11   C12   1.527682 S    
C15   H34   1.110665 S    
C55   H51   1.083387 S    
P8    O23   1.539721 D    
C19   H38   1.079763 S    
C60   H69   1.111057 S    
C58   H64   1.110944 S    
P1    Ba1   3.428117 S    
C7    H14   1.110269 S    
C3    H27   1.110676 S    
C1    C10   1.520652 S    
O10   C8    1.402352 S    
C11   H23   1.113243 S    
O25   C59   1.400113 S    
C52   H56   1.083382 S    
C54   C55   1.347141 D    
C15   H33   1.109989 S    
P2    O20   1.584345 S    
P4    Ba2   3.428720 S    
C17   H37   1.081168 S    
C30   C31   1.378534 A    
P3    O9    1.545574 D    
C28   H42   1.082626 S    
C57   H59   1.110437 S    
C29   H43   1.069211 S    
C42   H50   1.061627 S    
C1    H22   1.110752 S    
C41   C42   1.384059 A    
C41   H49   1.082799 S    
O6    C10   1.406487 S    
C36   C39   1.420155 A    
O3    P6    1.729641 S    
C39   C40   1.388810 A    
C43   H57   1.084879 S    
