data_mof_unit_9362.cif
_audit_creation_date              2012-12-10T18:47:01-0500
_audit_creation_method            fapswitch 2.2
_symmetry_space_group_name_H-M    P1
_symmetry_Int_Tables_number       1
_space_group_crystal_system       triclinic
_cell_length_a                    10.700927
_cell_length_b                    9.84595
_cell_length_c                    14.940696
_cell_angle_alpha                 90.062262
_cell_angle_beta                  90.190171
_cell_angle_gamma                 90.008035
_cell_volume                      1574.15394992

loop_
_atom_site_label
_atom_site_type_symbol
_atom_type_description
_atom_site_fract_x
_atom_site_fract_y
_atom_site_fract_z
_atom_type_partial_charge
C1    C     C_R   0.259901 0.499978 0.500000 0.883138
C2    C     C_R   0.740086 0.500001 0.500019 0.882875
C3    C     C_R   0.273349 0.468253 0.045581 -0.233332
C4    C     C_R   0.724651 0.541753 0.954265 -0.233304
C5    C     C_R   0.063826 0.377533 0.487406 -0.209574
C6    C     C_R   0.936124 0.622224 0.513563 -0.198035
C7    C     C_R   0.935964 0.377587 0.487205 -0.219648
C8    C     C_R   0.063999 0.622219 0.513534 -0.214225
C9    C     C_R   0.872520 0.499971 0.500142 -0.006385
C10   C     C_R   0.127449 0.499911 0.500295 0.002079
C11   C     C_R   0.588754 0.072034 0.546506 -0.074140
C12   C     C_R   0.411161 0.927965 0.453609 -0.072900
C13   C     C_R   0.411048 0.071790 0.453736 -0.074232
C14   C     C_R   0.588710 0.928166 0.546548 -0.071326
C15   C     C_R   0.499858 0.499937 0.327303 0.956177
C16   C     C_R   0.499479 0.500057 0.672660 0.954306
C17   C     C_R   0.612208 0.522558 0.812593 0.110659
C18   C     C_R   0.386109 0.484455 0.187238 0.107294
C19   C     C_R   0.499092 0.500135 0.767784 -0.160833
C20   C     C_R   0.500176 0.499960 0.232125 -0.162426
C21   C     C_R   0.385434 0.482793 0.812637 0.090424
C22   C     C_R   0.613909 0.516707 0.187227 0.090962
C23   C     C_R   0.385315 0.485185 0.905960 0.098197
C24   C     C_R   0.613323 0.519797 0.093898 0.097553
C25   C     C_R   0.499113 0.504554 0.952955 0.003577
C26   C     C_R   0.499146 0.503440 0.046900 0.003617
C27   C     C_R   0.612922 0.523915 0.906273 0.068085
C28   C     C_R   0.385111 0.485768 0.093568 0.070681
C29   C     C_R   0.273683 0.466720 0.953132 -0.189747
C30   C     C_R   0.724739 0.539977 0.046747 -0.188983
H1    H     H_    0.185499 0.450517 0.918998 0.177232
H2    H     H_    0.813154 0.554286 0.080947 0.176442
H3    H     H_    0.184533 0.453856 0.078471 0.154066
H4    H     H_    0.813544 0.555560 0.921353 0.153235
H5    H     H_    0.112397 0.282334 0.476779 0.154304
H6    H     H_    0.887539 0.717345 0.524439 0.154619
H7    H     H_    0.887253 0.282446 0.476412 0.159525
H8    H     H_    0.112724 0.717341 0.524376 0.157311
H9    H     H_    0.659670 0.126575 0.583755 0.123646
H10   H     H_    0.340122 0.873450 0.416475 0.129165
H11   H     H_    0.339650 0.126027 0.416987 0.118267
H12   H     H_    0.659583 0.873783 0.583845 0.126617
N1    N     N_R   0.500000 0.857200 0.500000 -0.082839
N2    N     N_R   0.500000 0.142800 0.500000 -0.081250
O1    O     O_R   0.316770 0.614620 0.499990 -0.635585
O2    O     O_R   0.683230 0.385380 0.500010 -0.637063
O3    O     O_R   0.683230 0.614620 0.500010 -0.632662
O4    O     O_R   0.316770 0.385380 0.499990 -0.633716
O5    O     O_R   0.499980 0.614680 0.367850 -0.628829
O6    O     O_R   0.500020 0.385320 0.632150 -0.633446
O7    O     O_R   0.500020 0.614680 0.632150 -0.612665
O8    O     O_R   0.499980 0.385320 0.367850 -0.618725
Zn1   Zn    Zn3+2 0.500000 0.653120 0.500000 0.946278
Zn2   Zn    Zn3+2 0.500000 0.346880 0.500000 0.937163
N3    N     N_2   0.723097 0.546125 0.761889 -0.310433
H13   H     H_    0.776698 0.627066 0.783070 0.221686
C31   C     C_3   0.794910 0.425571 0.741492 -0.792779
H14   H     H_    0.830783 0.378269 0.803947 0.238041
H15   H     H_    0.875576 0.453272 0.698694 0.240851
H16   H     H_    0.736530 0.350806 0.704570 0.255522
N4    N     N_2   0.273538 0.472913 0.237825 -0.310613
H17   H     H_    0.202437 0.536723 0.217729 0.223014
C32   C     C_3   0.232739 0.335171 0.254600 -0.787796
H18   H     H_    0.205458 0.284260 0.191148 0.233825
H19   H     H_    0.150745 0.336670 0.299877 0.233583
H20   H     H_    0.308289 0.275743 0.287070 0.260241
N5    N     N_2   0.271517 0.462241 0.764207 -0.316156
H21   H     H_    0.278470 0.398322 0.709755 0.237108
C33   C     C_3   0.203209 0.585379 0.744169 -0.812377
H22   H     H_    0.256597 0.649336 0.696499 0.253065
H23   H     H_    0.185203 0.644178 0.806299 0.249922
H24   H     H_    0.111856 0.558863 0.713328 0.243000
N6    N     N_2   0.728471 0.532558 0.235639 -0.316627
H25   H     H_    0.723131 0.594192 0.291318 0.235304
C34   C     C_3   0.794480 0.407058 0.253032 -0.807707
H26   H     H_    0.740025 0.342137 0.299516 0.253905
H27   H     H_    0.886432 0.430060 0.284217 0.243573
H28   H     H_    0.811153 0.350867 0.189667 0.250223

loop_
_geom_bond_atom_site_label_1
_geom_bond_atom_site_label_2
_ccdc_geom_bond_type
N3    H13   S    
C32   H19   S    
N6    H25   S    
C16   O7    A    
C6    C9    A    
C13   H11   S    
C2    O2    A    
O4    Zn2   S    
O6    Zn2   S    
C23   C29   A    
C3    C28   A    
C19   C21   A    
C16   O6    A    
C12   N1    A    
C11   C14   A    
C31   H15   S    
C3    H3    S    
N4    C32   S    
C3    C29   A    
N1    Zn1   S    
C17   N3    S    
C14   H12   S    
C23   C25   A    
C32   H20   S    
O1    Zn1   S    
C21   N5    S    
N6    C34   S    
N4    H17   S    
C8    H8    S    
O8    Zn2   S    
C15   C20   S    
C4    H4    S    
C33   H23   S    
N5    H21   S    
C17   C27   A    
C18   C28   A    
C5    C7    A    
C31   H16   S    
C6    C8    A    
C25   C26   A    
N5    C33   S    
C12   H10   S    
C33   H24   S    
C34   H26   S    
O2    Zn2   S    
C7    H7    S    
C11   N2    A    
C1    O4    A    
C15   O8    A    
C11   H9    S    
C34   H27   S    
C20   C22   A    
N3    C31   S    
C22   C24   A    
C4    C27   A    
C7    C9    A    
C1    C10   S    
C24   C26   A    
C18   N4    S    
C2    O3    A    
C25   C27   A    
C26   C28   A    
O3    Zn1   S    
C21   C23   A    
C5    C10   A    
C29   H1    S    
C30   H2    S    
C1    O1    A    
C31   H14   S    
C16   C19   S    
O5    Zn1   S    
C5    H5    S    
C17   C19   A    
C6    H6    S    
C18   C20   A    
C15   O5    A    
C33   H22   S    
C34   H28   S    
C24   C30   A    
C32   H18   S    
N2    Zn2   S    
C12   C13   A    
C8    C10   A    
C22   N6    S    
O7    Zn1   S    
C2    C9    S    
C13   N2    A    
C4    C30   A    
C14   N1    A    
