data_mof_unit_33323.cif
_audit_creation_date              2012-12-11T15:42:47-0500
_audit_creation_method            fapswitch 2.2
_symmetry_space_group_name_H-M    P1
_symmetry_Int_Tables_number       1
_space_group_crystal_system       triclinic
_cell_length_a                    6.939565
_cell_length_b                    14.797213
_cell_length_c                    16.14949
_cell_angle_alpha                 90.60037
_cell_angle_beta                  89.500104
_cell_angle_gamma                 90.47601
_cell_volume                      1658.11996949

loop_
_atom_site_label
_atom_site_type_symbol
_atom_type_description
_atom_site_fract_x
_atom_site_fract_y
_atom_site_fract_z
_atom_type_partial_charge
O1    O     O_R   0.505810 0.583360 0.413880 -0.512238
O2    O     O_R   0.175870 0.595480 0.585520 -0.540585
O3    O     O_R   0.005540 0.416640 0.586120 -0.542934
C1    C     C_R   0.344848 0.616556 0.615073 0.737124
O4    O     O_R   0.176100 0.594390 0.414490 -0.521228
O5    O     O_R   0.005770 0.415540 0.413870 -0.532253
C2    C     C_R   0.346318 0.617388 0.386521 0.833712
O6    O     O_R   0.505580 0.584460 0.586130 -0.556193
O7    O     O_3   0.339190 0.441320 0.500000 -0.358768
V1    V     V_3+5 0.064350 0.510890 0.500000 1.625389
O8    O     O_R   0.676050 0.404520 0.414480 -0.504363
C3    C     C_R   0.844889 0.382294 0.385559 0.835690
O9    O     O_R   0.675830 0.405610 0.585510 -0.530886
C4    C     C_R   0.842592 0.383694 0.612424 0.765588
V2    V     V_3+5 0.564340 0.489110 0.500000 1.659018
O10   O     O_3   0.839370 0.558680 0.500000 -0.366596
C5    C     C_2   0.855752 0.254485 0.818530 0.236655
C6    C     C_2   0.899353 0.165641 0.812115 0.239217
C7    C     C_2   0.893841 0.320727 0.750639 0.279911
C8    C     C_2   0.838871 0.309070 0.670826 0.159782
C9    C     C_R   0.035551 0.241065 0.202694 0.336873
C10   C     C_R   0.013759 0.312922 0.260500 0.326220
C11   C     C_R   0.854719 0.313627 0.316841 -0.358421
C12   C     C_R   0.710375 0.246005 0.308574 0.335204
C13   C     C_R   0.720723 0.181822 0.243944 0.283355
C14   C     C_R   0.881158 0.179757 0.189320 -0.352380
C15   C     C_R   0.205029 0.742348 0.701083 -0.131867
H1    H     H_    0.080059 0.741552 0.661288 0.177260
C16   C     C_R   0.212778 0.804572 0.766989 0.360101
C17   C     C_R   0.375467 0.808468 0.820526 -0.217533
C18   C     C_R   0.522596 0.743627 0.806859 0.406701
C19   C     C_R   0.513702 0.683367 0.739105 -0.151967
H2    H     H_    0.628343 0.634857 0.730166 0.178750
C20   C     C_R   0.355776 0.682394 0.685328 -0.167266
C21   C     C_R   0.217986 0.754378 0.311184 0.292994
C22   C     C_R   0.229896 0.818340 0.247132 0.353152
C23   C     C_R   0.379192 0.813889 0.186734 -0.358115
C24   C     C_R   0.519419 0.745600 0.193804 0.334893
C25   C     C_R   0.512301 0.684436 0.260070 0.323785
C26   C     C_R   0.359759 0.686699 0.319105 -0.339042
O11   O     O_R   0.230120 0.912300 0.917180 -0.520624
O12   O     O_R   0.559740 0.902430 0.088770 -0.501568
O13   O     O_R   0.729930 0.081310 0.089370 -0.519009
C27   C     C_R   0.389958 0.880797 0.117703 0.852325
O14   O     O_R   0.559840 0.901330 0.917750 -0.503959
O15   O     O_R   0.730030 0.080210 0.917120 -0.546287
C28   C     C_R   0.389905 0.878017 0.889274 0.767193
O16   O     O_R   0.230020 0.913400 0.089430 -0.526832
O17   O     O_3   0.396460 0.055470 0.003290 -0.396391
V3    V     V_3+5 0.671360 0.985960 0.003250 1.689186
O18   O     O_R   0.059740 0.091300 0.917690 -0.575716
C29   C     C_R   0.894105 0.107458 0.886128 0.711498
O19   O     O_R   0.059640 0.092400 0.088720 -0.532176
C30   C     C_R   0.891068 0.112254 0.119542 0.814920
V4    V     V_3+5 0.171350 0.007820 0.003190 1.569096
O20   O     O_3   0.896380 0.938200 0.003220 -0.326150
Cl1   Cl    Cl    0.783091 0.300305 0.915364 -0.717747
Cl2   Cl    Cl    0.009500 0.874325 0.777965 -0.643925
Cl3   Cl    Cl    0.712223 0.728011 0.877114 -0.490453
Cl4   Cl    Cl    0.022292 0.763234 0.381611 -0.592210
O21   O     O_3   0.090360 0.884557 0.243756 -0.528347
C31   C     C_3   0.156657 0.963935 0.284694 0.135422
H3    H     H_    0.184476 0.015821 0.236938 0.185834
H4    H     H_    0.291774 0.954963 0.320924 0.147866
C32   C     C_3   0.000180 0.999387 0.343506 -0.315505
H5    H     H_    0.868815 0.013697 0.307655 0.236758
H6    H     H_    0.962863 0.947588 0.390189 0.258372
C33   C     C_3   0.066131 0.085031 0.388958 -0.678973
H7    H     H_    0.188926 0.069864 0.430086 0.263011
H8    H     H_    0.945670 0.111944 0.427357 0.255160
H9    H     H_    0.111878 0.137489 0.344233 0.263702
Cl5   Cl    Cl    0.698409 0.729902 0.116026 -0.522272
Cl6   Cl    Cl    0.689362 0.599645 0.262723 -0.660247
O22   O     O_3   0.951851 0.129698 0.735320 -0.535856
C34   C     C_3   0.132336 0.086241 0.734055 0.126402
H10   H     H_    0.129371 0.037881 0.680996 0.174262
H11   H     H_    0.162874 0.044230 0.788297 0.137460
C35   C     C_3   0.297074 0.152591 0.717338 -0.332776
H12   H     H_    0.255750 0.200493 0.668092 0.248442
H13   H     H_    0.421392 0.112295 0.694854 0.231509
C36   C     C_3   0.359431 0.204845 0.794639 -0.657373
H14   H     H_    0.411084 0.157845 0.842589 0.219233
H15   H     H_    0.240739 0.245884 0.820309 0.229394
H16   H     H_    0.477020 0.252465 0.778300 0.262073
Cl7   Cl    Cl    0.000186 0.425139 0.780778 -0.620048
Cl8   Cl    Cl    0.705672 0.215634 0.633236 -0.628998
O23   O     O_3   0.217205 0.216301 0.173769 -0.519896
C37   C     C_3   0.304140 0.277810 0.118153 0.181448
H17   H     H_    0.431293 0.242709 0.091112 0.165932
H18   H     H_    0.365927 0.336445 0.151737 0.153356
C38   C     C_3   0.174197 0.305079 0.045959 -0.431386
H19   H     H_    0.105434 0.244055 0.018560 0.237012
H20   H     H_    0.058694 0.350834 0.068470 0.216327
C39   C     C_3   0.290245 0.352075 0.978090 -0.651337
H21   H     H_    0.387409 0.302717 0.947666 0.255657
H22   H     H_    0.378191 0.408701 0.003359 0.243921
H23   H     H_    0.191322 0.379016 0.931096 0.302661
O24   O     O_3   0.148356 0.382614 0.260217 -0.548060
C40   C     C_3   0.062905 0.461330 0.227398 0.067629
H24   H     H_    0.020130 0.505901 0.279745 0.196061
H25   H     H_    0.933364 0.447081 0.188447 0.138645
C41   C     C_3   0.208648 0.513366 0.174535 -0.386097
H26   H     H_    0.334965 0.530814 0.212667 0.232827
H27   H     H_    0.258780 0.471458 0.122188 0.207409
C42   C     C_3   0.121442 0.598390 0.138375 -0.608984
H28   H     H_    0.067158 0.643410 0.188403 0.269579
H29   H     H_    0.000709 0.580020 0.096582 0.285222
H30   H     H_    0.232584 0.635348 0.101934 0.230564
Cl9   Cl    Cl    0.518733 0.235921 0.381502 -0.532193
Cl10  Cl    Cl    0.542515 0.095944 0.240383 -0.650706

loop_
_geom_bond_atom_site_label_1
_geom_bond_atom_site_label_2
_ccdc_geom_bond_type
O16   V4    S    
O23   C37   S    
C9    O23   S    
C10   O24   S    
C15   C16   A    
C21   C22   A    
C1    O6    A    
C36   H14   S    
C6    C29   S    
O19   C30   A    
C42   H29   S    
C3    C11   S    
C16   C17   A    
C22   C23   A    
O5    C3    A    
C17   C18   A    
C41   H27   S    
C35   H13   S    
V2    O10   S    
O15   C29   A    
C41   C42   S    
C18   Cl3   S    
O11   V4    S    
C31   H4    S    
O8    V2    S    
C31   H3    S    
C7    C8    D    
C33   H7    S    
C32   H6    S    
C8    Cl8   S    
C11   C12   A    
O1    V2    S    
O7    V1    S    
O21   C31   S    
O19   V4    S    
C6    O22   S    
O9    C4    A    
C41   H26   S    
O12   C27   A    
C14   C30   S    
C36   H15   S    
C9    C14   A    
C1    C20   S    
O14   C28   A    
C15   C20   A    
C42   H30   S    
C24   Cl5   S    
O22   C34   S    
O18   C29   A    
C4    C8    S    
C17   C28   S    
C12   C13   A    
C38   H19   S    
O4    C2    A    
C35   H12   S    
C39   H23   S    
C13   C14   A    
O17   V4    S    
V3    O20   S    
C21   Cl4   S    
C19   C20   A    
O2    C1    A    
C34   H10   S    
C23   C24   A    
C38   H20   S    
O13   C30   A    
C40   H24   S    
C37   C38   S    
C2    C26   S    
C32   C33   S    
V4    O20   S    
C5    C6    D    
O11   C28   A    
C16   Cl2   S    
C39   H22   S    
C34   H11   S    
O3    C4    A    
C13   Cl10  S    
O12   V3    S    
C40   H25   S    
C37   H18   S    
O17   V3    S    
O6    V2    S    
O9    V2    S    
C22   O21   S    
O2    V1    S    
C25   C26   A    
C36   H16   S    
C31   C32   S    
O1    C2    A    
C18   C19   A    
C12   Cl9   S    
C7    Cl7   S    
O5    V1    S    
O8    C3    A    
O13   V3    S    
C42   H28   S    
O15   V3    S    
C19   H2    S    
C23   C27   S    
C21   C26   A    
O7    V2    S    
O4    V1    S    
C32   H5    S    
O3    V1    S    
V1    O10   S    
C38   C39   S    
C35   C36   S    
C24   C25   A    
O14   V3    S    
C33   H9    S    
C5    C7    S    
O18   V4    S    
C25   Cl6   S    
C39   H21   S    
C34   C35   S    
C40   C41   S    
C37   H17   S    
C33   H8    S    
O24   C40   S    
C15   H1    S    
C10   C11   A    
C9    C10   A    
C27   O16   A    
C5    Cl1   S    
