data_mof_unit_16366.cif
_audit_creation_date              2012-12-11T16:37:41-0500
_audit_creation_method            fapswitch 2.2
_symmetry_space_group_name_H-M    P1
_symmetry_Int_Tables_number       1
_space_group_crystal_system       triclinic
_cell_length_a                    8.317644
_cell_length_b                    17.318424
_cell_length_c                    19.010419
_cell_angle_alpha                 99.141898
_cell_angle_beta                  92.424581
_cell_angle_gamma                 95.873881
_cell_volume                      2684.65725656

loop_
_atom_site_label
_atom_site_type_symbol
_atom_type_description
_atom_site_fract_x
_atom_site_fract_y
_atom_site_fract_z
_atom_type_partial_charge
Ba1   Ba    Ba6+2 0.849990 0.533510 0.465310 1.661401
Ba2   Ba    Ba6+2 0.339840 0.466550 0.534700 1.654901
C1    C     C_3   0.668905 0.807334 0.273100 -0.373789
C2    C     C_3   0.642641 0.729885 0.301220 0.360737
C3    C     C_3   0.608837 0.285746 0.301366 0.241500
C4    C     C_3   0.645372 0.201145 0.277990 -0.121700
C5    C     C_3   0.060500 0.298258 0.726130 0.297084
C6    C     C_3   0.066599 0.270000 0.798345 -0.240038
C7    C     C_3   0.546524 0.257366 0.676895 0.368070
C8    C     C_3   0.510095 0.174499 0.693332 -0.305414
C9    C     C_R   0.058518 0.543115 0.799742 -0.153761
C10   C     C_R   0.020133 0.525795 0.725687 0.062334
C11   C     C_R   0.851905 0.440745 0.817527 -0.157932
C12   C     C_3   0.105643 0.701077 0.272688 0.350846
C13   C     C_R   0.788463 0.439717 0.747695 0.001011
C14   C     C_R   0.355991 0.557101 0.183668 -0.193812
C15   C     C_R   0.424093 0.539523 0.246762 0.019516
C16   C     C_R   0.106110 0.481957 0.202347 -0.157401
C17   C     C_R   0.171999 0.469883 0.270074 0.047755
C18   C     C_R   0.983140 0.497080 0.847602 -0.009565
C19   C     C_R   0.882488 0.474922 0.700296 -0.253107
C20   C     C_R   0.196139 0.528023 0.156792 -0.008075
C21   C     C_R   0.337134 0.491436 0.287303 -0.065750
C22   C     C_R   0.746778 0.496627 0.963204 -0.078738
C23   C     C_3   0.085136 0.729848 0.201671 -0.372766
C24   C     C_R   0.636148 0.484439 0.014087 -0.076856
C25   C     C_R   0.686784 0.500515 0.085380 -0.045944
C26   C     C_R   0.847298 0.528150 0.105162 -0.072407
C27   C     C_R   0.966415 0.522289 0.055980 0.008559
C28   C     C_R   0.915788 0.508680 0.981258 0.044388
C29   C     C_R   0.131332 0.541052 0.080924 -0.016205
C30   C     C_R   0.232473 0.568269 0.029101 0.037285
C31   C     C_R   0.195631 0.539802 0.954845 0.016132
C32   C     C_R   0.032950 0.511675 0.928286 -0.009921
C33   C     C_R   0.356344 0.631530 0.046483 -0.083492
C34   C     C_3   0.291404 0.718144 0.666194 0.343074
C35   C     C_R   0.467781 0.648711 0.996817 -0.049633
C36   C     C_R   0.456152 0.603302 0.929213 -0.026122
C37   C     C_R   0.323173 0.547063 0.909248 -0.105172
C38   C     C_R   0.401881 0.718449 0.473159 -0.270249
C39   C     C_R   0.551068 0.745945 0.509169 0.044137
C40   C     C_R   0.611703 0.825349 0.514475 -0.125693
C41   C     C_R   0.520918 0.877301 0.484400 -0.001765
C42   C     C_R   0.367588 0.849628 0.450462 -0.131546
C43   C     C_R   0.308088 0.770079 0.445507 0.007208
C44   C     C_R   0.591403 0.160570 0.472697 -0.134623
C45   C     C_3   0.258288 0.791239 0.634883 -0.424109
C46   C     C_R   0.641866 0.241071 0.480202 0.013983
C47   C     C_R   0.884836 0.224044 0.549282 -0.000259
C48   C     C_R   0.835048 0.142968 0.541600 -0.127246
C49   C     C_R   0.686720 0.111345 0.504235 0.008921
C50   C     C_1   0.631687 0.028460 0.497306 -0.005955
C51   C     C_1   0.582009 0.959481 0.491277 -0.001116
C52   C     C_R   0.784473 0.272669 0.521046 -0.256877
C53   C     C_3   0.013416 0.288270 0.382852 0.377758
C54   C     C_3   0.062889 0.205153 0.369554 -0.342674
C55   C     C_3   0.712285 0.637450 0.678366 0.290344
C56   C     C_3   0.761289 0.662116 0.757559 -0.407115
H1    H     H_    0.708338 0.736932 0.354414 0.082126
H2    H     H_    0.190896 0.830326 0.672252 0.129851
H3    H     H_    0.373503 0.824633 0.624346 0.049608
H4    H     H_    0.183499 0.773601 0.584054 0.135650
H5    H     H_    0.887351 0.284847 0.397722 -0.107641
H6    H     H_    0.088787 0.322014 0.428773 0.087190
H7    H     H_    0.985857 0.168145 0.325345 0.114535
H8    H     H_    0.049255 0.177832 0.418221 0.069252
H9    H     H_    0.190894 0.206506 0.355282 0.142128
H10   H     H_    0.811594 0.609138 0.651568 0.030419
H11   H     H_    0.602536 0.594493 0.672664 0.077617
H12   H     H_    0.800105 0.824599 0.269494 0.146225
H13   H     H_    0.882702 0.696487 0.764655 0.147851
H14   H     H_    0.764173 0.609464 0.783721 0.063822
H15   H     H_    0.673126 0.698532 0.784660 0.138799
H16   H     H_    0.510692 0.717174 0.307262 -0.071932
H17   H     H_    0.618859 0.854183 0.309878 0.071485
H18   H     H_    0.576044 0.310531 0.252951 0.039598
H19   H     H_    0.715008 0.323931 0.327554 0.073017
H20   H     H_    0.532778 0.164171 0.254360 0.097069
H21   H     H_    0.688728 0.177075 0.325245 0.068087
H22   H     H_    0.606395 0.801466 0.219408 0.108707
H23   H     H_    0.125662 0.687202 0.158367 0.070044
H24   H     H_    0.126631 0.358291 0.731252 0.046132
H25   H     H_    0.931558 0.300834 0.710708 -0.050384
H26   H     H_    0.985933 0.302299 0.834515 0.002328
H27   H     H_    0.021361 0.206373 0.791102 0.126922
H28   H     H_    0.677396 0.266997 0.668151 -0.089913
H29   H     H_    0.476153 0.261857 0.627125 0.093039
H30   H     H_    0.543625 0.131151 0.648326 0.053083
H31   H     H_    0.379087 0.161916 0.701090 0.170772
H32   H     H_    0.031748 0.643274 0.269505 0.073709
H33   H     H_    0.580970 0.168258 0.742559 0.128922
H34   H     H_    0.146611 0.592992 0.818885 0.121703
H35   H     H_    0.790794 0.401352 0.849070 0.081427
H36   H     H_    0.438424 0.590271 0.155827 0.079961
H37   H     H_    0.987175 0.452431 0.185682 0.104614
H38   H     H_    0.841265 0.467967 0.644679 0.062078
H39   H     H_    0.694894 0.499259 0.911132 0.074214
H40   H     H_    0.509019 0.468317 0.998638 0.081782
H41   H     H_    0.600258 0.494957 0.124955 0.080926
H42   H     H_    0.235502 0.694066 0.282482 -0.062559
H43   H     H_    0.880716 0.558048 0.158251 0.123677
H44   H     H_    0.362372 0.671146 0.096749 0.062528
H45   H     H_    0.564668 0.696044 0.011276 0.073708
H46   H     H_    0.547152 0.613166 0.891592 0.085735
H47   H     H_    0.316012 0.512496 0.856977 0.123551
H48   H     H_    0.479794 0.136437 0.441999 0.068291
H49   H     H_    0.294123 0.889705 0.429194 0.077491
H50   H     H_    0.911616 0.104873 0.563934 0.079040
H51   H     H_    0.727095 0.846786 0.543109 0.091130
H52   H     H_    0.354223 0.657443 0.470356 0.087318
H53   H     H_    0.956009 0.736186 0.189458 0.146602
H54   H     H_    0.823404 0.335039 0.526979 0.060997
H55   H     H_    0.158441 0.787540 0.203572 0.113323
H56   H     H_    0.361061 0.682081 0.627658 -0.031936
O1    O     O_2   0.880230 0.446130 0.326290 -0.465095
O2    O     O_3   0.680943 0.703964 0.648854 -0.651463
O3    O     O_3   0.052488 0.756431 0.326228 -0.600495
O4    O     O_2   0.309470 0.553890 0.673760 -0.484500
O5    O     O_3   0.061830 0.547010 0.585070 -0.470562
O6    O     O_3   0.537040 0.412370 0.630320 -0.471062
O7    O     O_3   0.141399 0.678512 0.677300 -0.612519
O8    O     O_3   0.620720 0.405850 0.463860 -0.460284
O9    O     O_3   0.119760 0.370720 0.594550 -0.483544
O10   O     O_2   0.218580 0.231290 0.545987 -0.490966
O11   O     O_3   0.129250 0.245380 0.675271 -0.591946
O12   O     O_3   0.127880 0.453050 0.414940 -0.483754
O13   O     O_3   0.568990 0.594210 0.536150 -0.486284
O14   O     O_2   0.359830 0.311600 0.465710 -0.445928
O15   O     O_3   0.474926 0.286727 0.343464 -0.664525
O16   O     O_2   0.462203 0.462040 0.759623 -0.508932
O17   O     O_3   0.503068 0.311871 0.733954 -0.583664
O18   O     O_3   0.652660 0.587690 0.369690 -0.455004
O19   O     O_2   0.747494 0.520800 0.249222 -0.510880
O20   O     O_3   0.025493 0.320893 0.319834 -0.623130
O21   O     O_3   0.701810 0.670010 0.253557 -0.612203
O22   O     O_2   0.829870 0.688430 0.534340 -0.431103
O23   O     O_3   0.069940 0.629350 0.405460 -0.483150
O24   O     O_2   0.978450 0.769734 0.458109 -0.480490
P1    P     P_3+3 0.050120 0.424430 0.337400 0.994563
P2    P     P_3+3 0.655220 0.678730 0.555760 0.986714
P3    P     P_3+3 0.102549 0.731686 0.409362 0.955049
P4    P     P_3+3 0.139590 0.575630 0.662610 1.018785
P5    P     P_3+3 0.085941 0.268000 0.590392 0.940899
P6    P     P_3+3 0.631467 0.579968 0.277948 0.933848
P7    P     P_3+3 0.532149 0.308114 0.435114 0.923685
P8    P     P_3+3 0.574168 0.406320 0.719705 0.937519
N1    N     N_3   0.768842 0.198557 0.225608 -0.485957
H57   H     H_    0.718804 0.212640 0.178472 0.179268
H58   H     H_    0.794862 0.140292 0.213438 0.178755
C57   C     C_2   0.234415 0.284445 0.833081 0.586259
H59   H     H_    0.293670 0.344140 0.846798 -0.004875
O25   O     O_2   0.304626 0.229630 0.846801 -0.566202
N2    N     N_3   0.419092 0.464054 0.345448 -0.426528
H60   H     H_    0.528120 0.445370 0.327886 0.185262
H61   H     H_    0.359128 0.411194 0.354228 0.186885
C58   C     C_2   0.388094 0.743719 0.736220 0.488700
H62   H     H_    0.498868 0.783247 0.738654 -0.018124
O26   O     O_2   0.342873 0.721758 0.790792 -0.596862

loop_
_geom_bond_atom_site_label_1
_geom_bond_atom_site_label_2
_ccdc_geom_bond_type
O18   P6    S    
C5    H25   S    
C53   C54   S    
O6    P8    S    
O16   P8    D    
C39   C40   A    
C17   C21   A    
N1    H57   S    
O22   P2    D    
C33   H44   S    
C34   H56   S    
C45   H4    S    
Ba2   O4    S    
C5    C6    S    
Ba2   O9    S    
C42   C43   A    
C46   C52   A    
C25   H41   S    
C24   C25   A    
C31   C37   A    
O17   P8    S    
C15   P6    S    
C6    H27   S    
C26   C27   A    
N1    H58   S    
C40   H51   S    
C22   C24   A    
C16   C17   A    
O21   P6    S    
C36   C37   A    
O14   P7    D    
C4    H20   S    
C47   C52   A    
C47   P5    S    
C34   C45   S    
Ba1   Ba2   S    
Ba1   O5    S    
O8    P7    S    
Ba1   O8    S    
C12   H32   S    
C39   P2    S    
C36   H46   S    
C45   H2    S    
C26   H43   S    
C41   C51   S    
C8    H31   S    
C14   C15   A    
C53   H5    S    
Ba2   O8    S    
O10   P5    D    
N2    H61   S    
Ba1   O22   S    
C1    H17   S    
C7    C8    S    
C2    H16   S    
C23   H23   S    
C18   C32   S    
Ba2   O13   S    
Ba1   O18   S    
C3    O15   S    
C16   C20   A    
C46   P7    S    
C43   P3    S    
C16   H37   S    
C1    H22   S    
C9    H34   S    
C48   C49   A    
C55   O2    S    
C7    O17   S    
C38   C43   A    
O12   P1    S    
C44   C46   A    
C9    C18   A    
C20   C29   S    
C28   C32   A    
C49   C50   S    
C30   C33   A    
C1    H12   S    
Ba1   O12   S    
O20   P1    S    
C35   H45   S    
Ba2   O6    S    
C38   H52   S    
C44   C49   A    
C22   H39   S    
C11   H35   S    
C6    C57   S    
C41   C42   A    
C35   C36   A    
C23   H55   S    
C7    H28   S    
C29   C30   A    
C27   C28   A    
Ba2   O5    S    
C12   O3    S    
C8    H30   S    
C53   H6    S    
C31   C32   A    
C52   H54   S    
C15   C21   A    
C5    O11   S    
Ba1   P2    S    
C24   H40   S    
C2    O21   S    
Ba2   O12   S    
C38   C39   A    
O1    P1    D    
C8    H33   S    
C11   C13   A    
Ba2   P4    S    
C57   O25   D    
C40   C41   A    
C55   H10   S    
C3    H19   S    
C1    C2    S    
C54   H9    S    
Ba1   O23   S    
C50   C51   T    
C34   C58   S    
C42   H49   S    
C37   H47   S    
O23   P3    S    
C58   H62   S    
O19   P6    D    
C14   C20   A    
C11   C18   A    
C33   C35   A    
C6    H26   S    
O15   P7    S    
O7    P4    S    
C48   H50   S    
Ba1   O13   S    
O4    P4    D    
O24   P3    D    
Ba1   P1    S    
C45   H3    S    
C13   P8    S    
C9    C10   A    
C12   H42   S    
C19   H38   S    
C53   O20   S    
C14   H36   S    
C57   H59   S    
C30   C31   A    
C3    H18   S    
C21   N2    S    
C34   O7    S    
C27   C29   A    
C7    H29   S    
C4    N1    S    
C56   H14   S    
C55   C56   S    
C3    C4    S    
O11   P5    S    
C54   H8    S    
C44   H48   S    
C2    H1    S    
C58   O26   D    
C10   P4    S    
C12   C23   S    
C56   H13   S    
C22   C28   A    
C23   H53   S    
C4    H21   S    
C10   C19   A    
C13   C19   A    
C5    H24   S    
C17   P1    S    
C47   C48   A    
O13   P2    S    
O9    P5    S    
C25   C26   A    
O5    P4    S    
O3    P3    S    
Ba1   O1    S    
C55   H11   S    
N2    H60   S    
C54   H7    S    
C56   H15   S    
O2    P2    S    
Ba2   O14   S    
