data_mof_unit_38629.cif
_audit_creation_date              2013-03-05T16:19:45-0500
_audit_creation_method            fapswitch 2.2
_symmetry_space_group_name_H-M    P1
_symmetry_Int_Tables_number       1
_space_group_crystal_system       triclinic
_cell_length_a                    10.663197
_cell_length_b                    9.755553
_cell_length_c                    27.582751
_cell_angle_alpha                 90.401639
_cell_angle_beta                  91.352542
_cell_angle_gamma                 89.803824
_cell_volume                      2868.421101

loop_
_atom_site_label
_atom_site_type_symbol
_atom_site_description
_atom_site_fract_x
_atom_site_fract_y
_atom_site_fract_z
_atom_type_partial_charge
O1    O     O_R   0.314910 0.616040 0.499990 -0.622291
O2    O     O_R   0.314910 0.383960 0.499990 -0.647256
C1    C     C_R   0.257971 0.500060 0.500572 0.872610
O3    O     O_R   0.500140 0.616020 0.428740 -0.593170
O4    O     O_R   0.500140 0.383980 0.428740 -0.631417
C2    C     C_R   0.499622 0.499394 0.405994 0.954997
Zn1   Zn    Zn3+2 0.500150 0.654960 0.499980 0.947256
Zn2   Zn    Zn3+2 0.500150 0.345040 0.499980 0.916001
O5    O     O_R   0.685320 0.616040 0.499970 -0.633015
O6    O     O_R   0.685320 0.383960 0.499970 -0.666375
O7    O     O_R   0.500090 0.616050 0.571230 -0.613257
O8    O     O_R   0.500090 0.383950 0.571230 -0.629896
C3    C     C_R   0.742190 0.499889 0.504025 0.879249
C4    C     C_R   0.496133 0.500529 0.594039 0.950464
C5    C     C_R   0.465873 0.387459 0.178914 0.569340
O9    O     O_2   0.377398 0.323197 0.204508 -0.555255
N1    N     N_R   0.555976 0.463633 0.202448 -0.332966
C6    C     C_R   0.648655 0.528153 0.178141 0.575639
C7    C     C_R   0.611729 0.384281 0.284925 0.044235
C8    C     C_R   0.592386 0.395256 0.334552 -0.364767
C9    C     C_R   0.450014 0.589153 0.322027 -0.019155
C10   C     C_R   0.472450 0.580483 0.272454 -0.238698
C11   C     C_R   0.550333 0.478182 0.253800 0.316032
C12   C     C_R   0.557293 0.444938 0.102334 -0.054502
C13   C     C_R   0.464716 0.376747 0.128357 -0.073437
C14   C     C_R   0.375696 0.296115 0.103649 -0.137936
C15   C     C_R   0.652043 0.518666 0.127527 -0.011780
C16   C     C_R   0.512031 0.495589 0.353434 -0.051345
H1    H     H_    0.424303 0.649335 0.247500 0.137006
H2    H     H_    0.310943 0.233956 0.123707 0.199614
C17   C     C_R   0.486873 0.501975 0.646936 -0.087767
C18   C     C_R   0.433450 0.404534 0.976358 0.047724
C19   C     C_R   0.646123 0.501217 0.973908 0.044351
C20   C     C_R   0.533601 0.459390 0.949927 0.075601
C21   C     C_R   0.315451 0.389837 0.952751 -0.227462
C22   C     C_R   0.301074 0.410011 0.903142 -0.138722
C23   C     C_R   0.403637 0.448875 0.875815 -0.019510
C24   C     C_R   0.519977 0.475291 0.899223 -0.052126
C25   C     C_R   0.622396 0.518429 0.871991 -0.029398
C26   C     C_R   0.607932 0.528815 0.821634 0.515751
N2    N     N_R   0.494295 0.502005 0.799683 -0.353428
C27   C     C_R   0.392569 0.464019 0.825521 0.503539
C28   C     C_R   0.475095 0.629117 0.722903 0.225183
C29   C     C_R   0.476115 0.626778 0.672234 -0.134729
C30   C     C_R   0.487117 0.378487 0.672548 -0.165313
C31   C     C_R   0.487380 0.379840 0.722785 -0.125381
C32   C     C_R   0.484295 0.504329 0.748051 0.299004
O10   O     O_2   0.281716 0.439895 0.802446 -0.541784
C33   C     C_R   0.451756 0.376704 0.026325 0.021481
C34   C     C_R   0.553647 0.441671 0.051155 0.035195
C35   C     C_R   0.650680 0.505399 0.025188 0.057957
C36   C     C_R   0.371928 0.289593 0.053065 0.172045
H3    H     H_    0.468381 0.722212 0.652652 0.185900
H4    H     H_    0.209230 0.395074 0.886343 0.194011
H5    H     H_    0.231958 0.367379 0.972547 0.171058
O11   O     O_2   0.736576 0.601153 0.202938 -0.551926
C37   C     C_R   0.746406 0.582643 0.101743 -0.127337
H6    H     H_    0.640683 0.324654 0.358881 0.143622
H7    H     H_    0.820142 0.639970 0.120334 0.191195
C38   C     C_R   0.748296 0.541537 0.945682 -0.218368
C39   C     C_R   0.736804 0.548458 0.895465 -0.126457
O12   O     O_2   0.706608 0.564180 0.794663 -0.526690
C40   C     C_R   0.746553 0.575255 0.051436 -0.210404
H8    H     H_    0.839266 0.565167 0.961469 0.144818
H9    H     H_    0.487735 0.280754 0.653951 0.207410
H10   H     H_    0.817584 0.579534 0.875180 0.195333
H11   H     H_    0.491807 0.283936 0.742312 0.157741
H12   H     H_    0.819775 0.630950 0.033902 0.145006
C41   C     C_3   0.078427 0.608873 0.540028 -0.479385
C42   C     C_3   0.075766 0.356226 0.518482 -0.364584
H13   H     H_    0.120479 0.710884 0.532964 0.167340
H14   H     H_    0.094935 0.279842 0.489310 0.153139
H15   H     H_    0.111432 0.577226 0.576950 0.182788
H16   H     H_    0.130507 0.320992 0.550869 0.212132
C43   C     C_3   0.934637 0.623954 0.537093 -0.181014
C44   C     C_3   0.933689 0.360391 0.526795 -0.211845
H17   H     H_    0.913181 0.719661 0.516682 0.122629
H18   H     H_    0.891988 0.273866 0.505507 0.112264
H19   H     H_    0.089558 0.638838 0.441789 0.211997
H20   H     H_    0.103857 0.461714 0.424233 0.184164
H21   H     H_    0.877686 0.608158 0.436258 0.180847
H22   H     H_    0.893396 0.425583 0.431322 0.177904
C45   C     C_3   0.065398 0.532205 0.452163 -0.364783
C46   C     C_3   0.122053 0.499700 0.502762 0.122778
C47   C     C_3   0.879433 0.499746 0.506679 0.088138
C48   C     C_3   0.922402 0.516610 0.453418 -0.469178
C49   C     C_3   0.374571 0.081400 0.484655 -0.271434
C50   C     C_3   0.374961 0.919010 0.484108 -0.252041
H23   H     H_    0.345246 0.120196 0.448266 0.166686
H24   H     H_    0.347729 0.880905 0.447252 0.195645
H25   H     H_    0.302431 0.118620 0.510126 0.149996
H26   H     H_    0.301664 0.881502 0.508730 0.144717
H27   H     H_    0.562684 0.115050 0.426334 0.167615
H28   H     H_    0.567168 0.879420 0.426889 0.173977
C51   C     C_3   0.589032 0.079797 0.463489 -0.274882
C52   C     C_3   0.590403 0.918326 0.464019 -0.275622
C53   C     C_3   0.530494 0.081882 0.548062 -0.094721
C54   C     C_3   0.528914 0.919216 0.548179 -0.143006
N3    N     N_3   0.499750 0.138610 0.498940 -0.074817
N4    N     N_3   0.499750 0.861390 0.498940 -0.080993
H29   H     H_    0.456117 0.116809 0.573140 0.141630
H30   H     H_    0.452297 0.887915 0.572598 0.133270
H31   H     H_    0.685108 0.119666 0.470118 0.131099
H32   H     H_    0.686827 0.880747 0.471971 0.128506
C55   C     C_2   0.356050 0.691353 0.338138 0.376895
H33   H     H_    0.335766 0.780389 0.315863 0.074332
O13   O     O_2   0.295718 0.674537 0.374665 -0.601497
C56   C     C_2   0.694772 0.272489 0.267562 0.438112
H34   H     H_    0.738468 0.203115 0.293579 0.049244
O14   O     O_2   0.715883 0.255619 0.224638 -0.553120
C57   C     C_2   0.885315 0.648525 0.587581 0.409802
H35   H     H_    0.934170 0.720298 0.611549 0.109017
O15   O     O_2   0.790082 0.594445 0.601696 -0.558014
C58   C     C_2   0.901241 0.336423 0.579381 0.476604
H36   H     H_    0.805238 0.348822 0.590075 0.155391
O16   O     O_2   0.979541 0.304425 0.610334 -0.548889
C59   C     C_2   0.651655 0.138752 0.569001 0.470965
H37   H     H_    0.733735 0.145801 0.547028 0.001349
O17   O     O_2   0.661673 0.164051 0.612303 -0.577863
C60   C     C_2   0.647373 0.858358 0.570321 0.559420
H38   H     H_    0.729818 0.843389 0.548911 0.011420
O18   O     O_2   0.654636 0.836922 0.613838 -0.541923
C61   C     C_3   0.463781 0.763318 0.749717 -0.831384
H39   H     H_    0.452614 0.850834 0.724409 0.241543
H40   H     H_    0.380603 0.760884 0.773161 0.240295
H41   H     H_    0.549093 0.781483 0.772625 0.267715
C62   C     C_3   0.295237 0.174821 0.030458 -0.911836
H42   H     H_    0.324051 0.150376 0.993002 0.256622
H43   H     H_    0.310207 0.079117 0.051464 0.249949
H44   H     H_    0.193881 0.201015 0.031031 0.241849

loop_
_geom_bond_atom_site_label_1
_geom_bond_atom_site_label_2
_geom_bond_distance
_ccdc_geom_bond_type
H19   C45   1.113510 S    
C49   C50   1.584162 S    
C10   H1    1.084393 S    
C49   H25   1.112296 S    
N2    C27   1.365583 A    
C51   C52   1.575427 S    
C12   C15   1.409189 A    
C4    C17   1.464678 S    
C58   H36   1.078189 S    
C61   H39   1.110914 S    
C47   C48   1.559130 S    
Zn1   O7    2.004223 S    
C55   O13   1.220462 D    
N1    C11   1.425216 S    
C22   C23   1.397753 A    
Zn2   N3    2.013861 S    
C44   H18   1.112799 S    
C59   O17   1.220204 D    
O4    C2    1.292697 A    
O7    C4    1.295828 A    
C51   N3    1.491328 S    
C61   H40   1.110336 S    
C5    O9    1.350239 S    
C26   O12   1.350045 S    
C56   H34   1.085799 S    
N1    C6    1.365195 A    
C23   C27   1.398305 A    
C41   H13   1.113241 S    
O5    C3    1.287659 A    
C31   C32   1.396654 A    
C29   H3    1.081544 S    
C43   C47   1.576661 S    
C2    C16   1.459099 S    
C7    C8    1.392438 A    
C51   H31   1.107771 S    
C42   H16   1.111403 S    
C44   C58   1.518963 S    
C41   H15   1.114929 S    
C42   C46   1.553721 S    
H21   C48   1.114161 S    
C6    O11   1.349590 S    
H28   C52   1.112443 S    
C7    C56   1.486255 S    
H27   C51   1.112725 S    
O1    Zn1   2.012694 S    
C9    C10   1.395626 A    
H20   C45   1.113618 S    
C39   H10   1.083439 S    
C53   N3    1.495943 S    
C36   C62   1.511172 S    
C60   O18   1.220457 D    
C53   C54   1.587064 S    
C49   N3    1.491864 S    
C12   C34   1.411398 A    
C25   C39   1.398516 A    
C17   C29   1.404748 A    
C21   H5    1.079224 S    
C18   C21   1.410322 A    
C50   H26   1.111968 S    
C35   C40   1.413026 A    
C12   C13   1.406023 A    
O3    C2    1.295369 A    
Zn1   N4    2.014234 S    
C25   C26   1.398232 A    
C61   H41   1.109326 S    
C8    C16   1.404151 A    
C34   C35   1.419758 A    
C13   C14   1.396894 A    
H22   C48   1.114030 S    
C38   C39   1.389756 A    
O1    C1    1.286264 A    
C21   C22   1.388637 A    
C18   C20   1.415808 A    
C7    C11   1.408962 A    
C28   C29   1.397932 A    
C62   H43   1.111347 S    
C23   C24   1.408649 A    
C14   C36   1.395887 A    
C45   C46   1.542210 S    
Zn2   O8    1.998997 S    
C33   C36   1.426229 A    
C19   C20   1.416254 A    
N2    C32   1.425960 S    
C57   O15   1.219159 D    
C27   O10   1.349812 S    
C15   C37   1.397189 A    
C43   H17   1.113956 S    
C50   N4    1.492101 S    
C26   N2    1.366965 A    
C9    C16   1.414498 A    
C50   H24   1.112420 S    
C14   H2    1.084523 S    
C19   C38   1.412496 A    
C54   N4    1.493334 S    
C52   H32   1.107966 S    
C30   H9    1.079573 S    
C37   H7    1.083458 S    
C8    H6    1.085207 S    
C62   H42   1.108911 S    
C28   C61   1.505030 S    
C60   H38   1.079509 S    
Zn1   O5    2.009407 S    
C40   H12   1.078502 S    
C57   H35   1.085560 S    
C20   C24   1.412237 A    
O2    Zn2   2.010140 S    
C6    C15   1.399796 A    
C37   C40   1.388995 A    
O8    C4    1.296894 A    
O6    C3    1.288035 A    
O4    Zn2   2.003989 S    
C58   O16   1.221362 D    
C54   C60   1.511480 S    
C19   C35   1.414433 A    
C55   H33   1.085655 S    
C43   C57   1.517364 S    
C38   H8    1.078831 S    
C49   H23   1.112713 S    
O2    C1    1.283442 A    
C62   H44   1.110177 S    
C31   H11   1.083157 S    
C41   C46   1.552784 S    
C54   H30   1.115770 S    
C59   H37   1.078951 S    
C42   C44   1.537944 S    
O3    Zn1   1.998760 S    
C24   C25   1.407242 A    
C52   N4    1.491926 S    
C56   O14   1.220298 D    
C41   C43   1.540089 S    
C53   C59   1.508551 S    
C53   H29   1.115496 S    
C18   C33   1.415457 A    
C22   H4    1.083361 S    
C30   C31   1.385568 A    
C45   C48   1.534110 S    
C5    C13   1.397464 A    
Zn2   O6    2.011961 S    
C33   C34   1.419403 A    
C17   C30   1.400778 A    
C3    C47   1.463552 S    
C1    C46   1.452025 S    
C10   C11   1.399189 A    
C42   H14   1.114824 S    
C5    N1    1.365790 A    
C28   C32   1.407335 A    
C44   C47   1.575070 S    
C9    C55   1.484392 S    
