data_mof_unit_56898.cif
_audit_creation_date              2012-12-11T14:51:49-0500
_audit_creation_method            fapswitch 2.2
_symmetry_space_group_name_H-M    P1
_symmetry_Int_Tables_number       1
_space_group_crystal_system       triclinic
_cell_length_a                    6.937674
_cell_length_b                    16.644115
_cell_length_c                    16.952797
_cell_angle_alpha                 101.372324
_cell_angle_beta                  90.063089
_cell_angle_gamma                 90.374507
_cell_volume                      1919.08348708

loop_
_atom_site_label
_atom_site_type_symbol
_atom_type_description
_atom_site_fract_x
_atom_site_fract_y
_atom_site_fract_z
_atom_type_partial_charge
O1    O     O_R   0.506340 0.439070 0.579550 -0.535710
O2    O     O_R   0.170010 0.404890 0.412100 -0.542192
O3    O     O_R   0.005010 0.560930 0.420450 -0.540901
C1    C     C_R   0.339649 0.381549 0.383197 0.670914
O4    O     O_R   0.176280 0.429360 0.578400 -0.539919
O5    O     O_R   0.011320 0.585570 0.587940 -0.530959
C2    C     C_R   0.343338 0.413945 0.605511 0.718329
O6    O     O_R   0.500030 0.414430 0.412060 -0.542627
O7    O     O_3   0.340950 0.551220 0.502940 -0.369268
V1    V     V_3+5 0.064020 0.490500 0.499460 1.418346
O8    O     O_R   0.681910 0.595110 0.587900 -0.544522
C3    C     C_R   0.851307 0.618659 0.616391 0.728642
O9    O     O_R   0.675640 0.570640 0.421600 -0.543555
C4    C     C_R   0.842758 0.585996 0.394417 0.713718
V2    V     V_3+5 0.564670 0.509500 0.500540 1.410503
O10   O     O_3   0.837610 0.448780 0.497060 -0.371304
C5    C     C_R   0.926895 0.861351 0.167275 -0.096172
C6    C     C_R   0.838820 0.638098 0.332240 -0.127574
C7    C     C_R   0.648011 0.693663 0.233520 0.380489
C8    C     C_R   0.669369 0.639352 0.286387 -0.253995
C9    C     C_R   0.989707 0.692147 0.323279 -0.231923
C10   C     C_R   0.968279 0.748599 0.271671 0.095582
C11   C     C_R   0.795822 0.750167 0.226897 0.052182
C12   C     C_R   0.775566 0.807380 0.175706 -0.228410
C13   C     C_R   0.095804 0.859705 0.213348 -0.151659
C14   C     C_R   0.115707 0.804589 0.265105 -0.094519
H1    H     H_    0.645902 0.808017 0.140162 0.159356
H2    H     H_    0.215097 0.900816 0.208662 0.124792
H3    H     H_    0.247855 0.805213 0.299369 0.134950
H4    H     H_    0.550065 0.598621 0.292302 0.143157
H5    H     H_    0.120151 0.692535 0.358633 0.134810
C15   C     C_3   0.838340 0.820793 0.728809 -0.115989
C16   C     C_3   0.003329 0.762762 0.692032 -0.189880
H6    H     H_    0.101431 0.773265 0.643320 0.116923
H7    H     H_    0.802474 0.879979 0.711685 0.103781
C17   C     C_3   0.864675 0.689105 0.686935 -0.056663
C18   C     C_3   0.699545 0.746305 0.722985 -0.163890
C19   C     C_3   0.760371 0.736671 0.808744 -0.222040
C20   C     C_3   0.925669 0.680236 0.771546 0.464932
C21   C     C_3   0.066657 0.753068 0.777531 -0.194395
C22   C     C_3   0.900479 0.810316 0.813550 -0.061868
H8    H     H_    0.549383 0.743496 0.699832 0.124579
H9    H     H_    0.660397 0.726706 0.857042 0.103185
H10   H     H_    0.216806 0.755247 0.800631 0.114456
C23   C     C_3   0.555185 0.281211 0.275845 -0.105617
C24   C     C_3   0.490032 0.191404 0.272327 -0.146925
H11   H     H_    0.579539 0.143034 0.290476 0.099967
H12   H     H_    0.698393 0.306826 0.297271 0.111825
C25   C     C_3   0.408316 0.189058 0.187531 -0.007433
C26   C     C_3   0.473001 0.278112 0.190312 -0.148806
C27   C     C_3   0.276072 0.308885 0.227429 -0.147625
C28   C     C_3   0.210918 0.219073 0.223905 -0.105154
C29   C     C_3   0.293104 0.222166 0.309434 -0.148332
C30   C     C_3   0.357787 0.311214 0.312227 -0.006254
H13   H     H_    0.548350 0.300889 0.141230 0.099765
H14   H     H_    0.186603 0.357267 0.209280 0.099061
H15   H     H_    0.067706 0.193465 0.202477 0.112675
H16   H     H_    0.217738 0.199400 0.358517 0.101043
C31   C     C_R   0.427832 0.139769 0.833550 -0.070897
C32   C     C_R   0.338834 0.361392 0.667291 -0.069306
C33   C     C_R   0.149013 0.303971 0.764949 -0.212965
C34   C     C_R   0.169324 0.358839 0.712797 -0.160130
C35   C     C_R   0.490542 0.308557 0.676749 -0.244101
C36   C     C_R   0.469927 0.252271 0.728683 0.159934
C37   C     C_R   0.297303 0.249544 0.772839 0.162785
C38   C     C_R   0.276502 0.193006 0.824544 -0.244399
C39   C     C_R   0.597558 0.142609 0.788236 -0.166198
C40   C     C_R   0.618257 0.197889 0.736545 -0.204111
H17   H     H_    0.145828 0.192275 0.859414 0.122765
H18   H     H_    0.716918 0.102323 0.793461 0.126725
H19   H     H_    0.016129 0.303570 0.798427 0.123669
H20   H     H_    0.751304 0.198491 0.703213 0.121442
H21   H     H_    0.049894 0.399026 0.707366 0.153929
H22   H     H_    0.621194 0.309206 0.641846 0.122795
O11   O     O_R   0.266070 0.085680 0.087850 -0.540675
O12   O     O_R   0.590090 0.070660 0.921580 -0.542526
O13   O     O_R   0.754780 0.914400 0.912080 -0.535706
C41   C     C_R   0.423052 0.086514 0.894747 0.702945
O14   O     O_R   0.596110 0.095130 0.087880 -0.539992
O15   O     O_R   0.760850 0.939050 0.079570 -0.539085
C42   C     C_R   0.426451 0.118610 0.116662 0.677408
O16   O     O_R   0.260010 0.061030 0.920360 -0.536643
O17   O     O_3   0.425070 0.948840 0.997010 -0.367527
V3    V     V_3+5 0.702100 0.009490 0.000550 1.395103
O18   O     O_R   0.090200 0.929250 0.078500 -0.541972
C43   C     C_R   0.923090 0.913919 0.105584 0.695065
O19   O     O_R   0.084180 0.904770 0.912200 -0.542297
C44   C     C_R   0.914605 0.880973 0.883900 0.697217
V4    V     V_3+5 0.201420 0.990350 0.999580 1.395676
O20   O     O_3   0.928580 0.051150 0.002990 -0.368306
O21   O     O_3   0.970937 0.602444 0.787464 -0.562708
C45   C     C_3   0.993083 0.607618 0.870934 0.082827
H23   H     H_    0.856724 0.627313 0.903311 0.112574
H24   H     H_    0.111440 0.651030 0.895228 0.114821
C46   C     C_3   0.042470 0.523137 0.886416 -0.719362
H25   H     H_    0.184817 0.503569 0.859681 0.226832
H26   H     H_    0.047798 0.524653 0.952129 0.171937
H27   H     H_    0.930789 0.477903 0.859250 0.224577
O22   O     O_3   0.475134 0.695670 0.193507 -0.559451
C47   C     C_3   0.483160 0.639056 0.119809 0.092602
H28   H     H_    0.479469 0.575176 0.130525 0.118237
H29   H     H_    0.615391 0.647949 0.084991 0.103016
C48   C     C_3   0.309379 0.651589 0.069030 -0.728361
H30   H     H_    0.306786 0.715732 0.059503 0.221465
H31   H     H_    0.318745 0.609531 0.009676 0.173551
H32   H     H_    0.174233 0.638740 0.099536 0.224938

loop_
_geom_bond_atom_site_label_1
_geom_bond_atom_site_label_2
_ccdc_geom_bond_type
O19   C44   A    
C29   H16   S    
C6    C9    A    
C4    C6    S    
O2    C1    A    
C7    C8    A    
C12   H1    S    
O15   V3    S    
O12   V3    S    
C46   H27   S    
C8    H4    S    
O18   C43   A    
C13   H2    S    
C9    H5    S    
C24   C25   S    
O16   V4    S    
C32   C35   A    
C36   C40   A    
C17   C18   S    
O12   C41   A    
C31   C38   A    
O5    C3    A    
O14   V3    S    
C38   H17   S    
C25   C42   S    
V2    O10   S    
C16   C17   S    
C27   C28   S    
C32   C34   A    
C27   H14   S    
C20   O21   S    
C18   H8    S    
C45   H23   S    
O15   C43   A    
C31   C39   A    
O8    V2    S    
O17   V3    S    
O13   C44   A    
C11   C12   A    
C34   H21   S    
O1    V2    S    
C3    C17   S    
O7    V1    S    
C1    O6    A    
C33   H19   S    
O9    C4    A    
V3    O20   S    
C31   C41   S    
C45   H24   S    
C16   H6    S    
O17   V4    S    
C16   C21   S    
C39   C40   A    
C5    C12   A    
C15   H7    S    
C19   C22   S    
O21   C45   S    
O14   C42   A    
C7    O22   S    
O11   C42   A    
O13   V3    S    
C13   C14   A    
C23   C24   S    
C45   C46   S    
C5    C43   S    
C40   H20   S    
C7    C11   A    
C18   C19   S    
C41   O16   A    
O22   C47   S    
C21   H10   S    
C15   C22   S    
C25   C28   S    
C47   H29   S    
C26   C27   S    
C48   H31   S    
C15   C18   S    
O3    C4    A    
C21   C22   S    
C23   C30   S    
C25   C26   S    
O6    V2    S    
O19   V4    S    
O2    V1    S    
C2    C32   S    
C20   C21   S    
C28   C29   S    
O4    C2    A    
C23   H12   S    
C22   C44   S    
C24   H11   S    
O18   V4    S    
C1    C30   S    
O1    C2    A    
C17   C20   S    
O5    V1    S    
O8    C3    A    
C46   H26   S    
C29   C30   S    
C35   H22   S    
C26   H13   S    
C27   C30   S    
C5    C13   A    
C36   C37   A    
C39   H18   S    
O9    V2    S    
O7    V2    S    
O4    V1    S    
O3    V1    S    
V1    O10   S    
C15   C16   S    
C19   C20   S    
C23   C26   S    
C24   C29   S    
C47   H28   S    
C48   H32   S    
C6    C8    A    
C47   C48   S    
C33   C34   A    
C28   H15   S    
O11   V4    S    
C35   C36   A    
C33   C37   A    
C19   H9    S    
C14   H3    S    
C37   C38   A    
C10   C14   A    
C48   H30   S    
C10   C11   A    
V4    O20   S    
C9    C10   A    
C46   H25   S    
