data_mof_unit_6579.cif
_audit_creation_date              2012-12-10T20:34:51-0500
_audit_creation_method            fapswitch 2.2
_symmetry_space_group_name_H-M    P1
_symmetry_Int_Tables_number       1
_space_group_crystal_system       triclinic
_cell_length_a                    10.652907
_cell_length_b                    10.67417
_cell_length_c                    9.9488
_cell_angle_alpha                 89.131726
_cell_angle_beta                  88.189832
_cell_angle_gamma                 92.198741
_cell_volume                      1129.7386784

loop_
_atom_site_label
_atom_site_type_symbol
_atom_type_description
_atom_site_fract_x
_atom_site_fract_y
_atom_site_fract_z
_atom_type_partial_charge
C1    C     C_R   0.508714 0.260201 0.499787 0.854878
C2    C     C_3   0.877947 0.508859 0.494642 0.082681
C3    C     C_3   0.928677 0.618841 0.582606 0.398241
C4    C     C_3   0.933088 0.525607 0.349023 -0.366544
C5    C     C_R   0.566220 0.064041 0.611765 0.125033
C6    C     C_R   0.540378 0.130261 0.495489 -0.103219
C7    C     C_R   0.549911 0.068347 0.371989 -0.216056
C8    C     C_R   0.547999 0.938192 0.371190 -0.210236
C9    C     C_R   0.540929 0.871780 0.494225 -0.078890
C10   C     C_R   0.568516 0.935715 0.611360 0.124612
C11   C     C_3   0.511406 0.923923 0.749884 -0.489935
C12   C     C_R   0.257602 0.503327 0.500685 0.856826
C13   C     C_3   0.504496 0.064597 0.746971 -0.496968
C14   C     C_R   0.486471 0.391241 0.075820 0.119039
C15   C     C_R   0.526937 0.606559 0.068758 -0.103229
C16   C     C_R   0.527717 0.606141 0.925515 -0.084521
C17   C     C_R   0.484153 0.390101 0.934249 0.077333
C18   C     C_3   0.376062 0.292448 0.951850 0.233463
C19   C     C_3   0.383265 0.298730 0.102341 -0.476446
C20   C     C_R   0.508979 0.740091 0.498603 0.885666
C21   C     C_R   0.741808 0.504870 0.497894 0.884675
C22   C     C_3   0.061289 0.387856 0.566009 -0.366900
C23   C     C_3   0.919375 0.381962 0.551157 -0.527261
C24   C     C_3   0.074115 0.623519 0.574948 -0.460361
C25   C     C_3   0.075606 0.517364 0.350725 -0.353867
C26   C     C_3   0.120384 0.508013 0.498559 0.053629
H1    H     H_    0.077260 0.392663 0.674625 0.286771
H2    H     H_    0.907955 0.617773 0.305775 0.212956
H3    H     H_    0.110850 0.710873 0.522413 0.194185
H4    H     H_    0.548339 0.118317 0.277143 0.165650
H5    H     H_    0.541057 0.891028 0.275948 0.162803
H6    H     H_    0.417580 0.874321 0.754666 0.224308
H7    H     H_    0.579964 0.892394 0.823684 0.186706
H8    H     H_    0.406173 0.094162 0.740595 0.226381
H9    H     H_    0.565733 0.111535 0.821039 0.197886
H10   H     H_    0.547063 0.693440 0.119662 0.133473
H11   H     H_    0.102865 0.302271 0.523646 0.189753
H12   H     H_    0.549838 0.691477 0.870114 0.129424
H13   H     H_    0.401369 0.198550 0.921872 0.079537
H14   H     H_    0.302499 0.340681 0.156228 0.244267
H15   H     H_    0.414424 0.210682 0.148176 0.156200
H16   H     H_    0.892615 0.304885 0.482162 0.199942
H17   H     H_    0.872726 0.359271 0.650862 0.204755
H18   H     H_    0.110242 0.625267 0.678640 0.187035
H19   H     H_    0.897294 0.597282 0.689191 0.093636
H20   H     H_    0.119801 0.601635 0.298296 0.193926
H21   H     H_    0.103741 0.433312 0.293748 0.207842
H22   H     H_    0.894786 0.451240 0.282614 0.192348
N1    N     N_R   0.499150 0.499140 0.142800 -0.091790
N2    N     N_R   0.499150 0.499180 0.857150 -0.076589
O1    O     O_R   0.500020 0.316790 0.614690 -0.634301
O2    O     O_R   0.500000 0.316760 0.385350 -0.620012
O3    O     O_R   0.314800 0.500000 0.614670 -0.562650
O4    O     O_R   0.314790 0.499960 0.385330 -0.628930
O5    O     O_R   0.500000 0.683240 0.614650 -0.626316
O6    O     O_R   0.499980 0.683210 0.385310 -0.629815
O7    O     O_R   0.685210 0.500040 0.614670 -0.639842
O8    O     O_R   0.685200 0.500000 0.385330 -0.624644
Zn1   Zn    Zn3+2 0.500010 0.500020 0.653130 0.981369
Zn2   Zn    Zn3+2 0.499990 0.499980 0.346870 0.950450
O9    O     O_3   0.882636 0.734051 0.535276 -0.618138
C27   C     C_3   0.870798 0.819094 0.641707 -0.312189
H23   H     H_    0.960610 0.832982 0.694669 0.173017
H24   H     H_    0.793900 0.786918 0.713821 0.159618
H25   H     H_    0.845960 0.911345 0.599488 0.205619
S1    S     S_3+6 0.224867 0.327867 0.895057 0.009423
O10   O     O_2   0.125491 0.291480 0.000614 -0.284821
O11   O     O_2   0.217016 0.465051 0.862243 -0.315281
O12   O     O_3   0.201049 0.238159 0.760277 -0.591279
H26   H     H_    0.270298 0.262645 0.695527 0.345674

loop_
_geom_bond_atom_site_label_1
_geom_bond_atom_site_label_2
_ccdc_geom_bond_type
C17   N2    A    
S1    O11   D    
C18   H13   S    
C21   O7    A    
C27   H23   S    
O5    Zn1   S    
C18   S1    S    
C11   C13   S    
C9    C10   A    
C25   H21   S    
C9    C20   S    
C2    C4    S    
C12   O3    A    
C20   O6    A    
C21   O8    A    
C2    C21   S    
C15   N1    A    
S1    O10   D    
O3    Zn1   S    
C10   C11   S    
N1    Zn2   S    
C13   H8    S    
C7    H4    S    
O4    Zn2   S    
C1    O1    A    
C14   C17   A    
C3    C24   S    
C6    C7    A    
C23   H16   S    
C20   O5    A    
C5    C6    A    
N2    Zn1   S    
C14   C19   S    
C5    C10   A    
C4    H2    S    
C24   C26   S    
C11   H6    S    
C4    C25   S    
C2    C3    S    
C22   H1    S    
C3    O9    S    
C22   C26   S    
O9    C27   S    
C24   H18   S    
C1    O2    A    
O12   H26   S    
O7    Zn1   S    
S1    O12   S    
O1    Zn1   S    
C19   H14   S    
O8    Zn2   S    
C15   C16   A    
C14   N1    A    
C19   H15   S    
C15   H10   S    
C11   H7    S    
C23   H17   S    
C17   C18   S    
C18   C19   S    
C4    H22   S    
C12   C26   S    
C2    C23   S    
C7    C8    A    
C22   C23   S    
C27   H24   S    
O2    Zn2   S    
C27   H25   S    
C16   H12   S    
C25   C26   S    
C24   H3    S    
C22   H11   S    
C5    C13   S    
C25   H20   S    
C3    H19   S    
C13   H9    S    
C12   O4    A    
C8    H5    S    
O6    Zn2   S    
C16   N2    A    
C8    C9    A    
C1    C6    S    
