data_mof_unit_42262.cif
_audit_creation_date              2012-12-10T21:07:40-0500
_audit_creation_method            fapswitch 2.2
_symmetry_space_group_name_H-M    P1
_symmetry_Int_Tables_number       1
_space_group_crystal_system       triclinic
_cell_length_a                    8.581387
_cell_length_b                    17.536277
_cell_length_c                    16.851118
_cell_angle_alpha                 89.163699
_cell_angle_beta                  97.686113
_cell_angle_gamma                 92.623564
_cell_volume                      2510.34119121

loop_
_atom_site_label
_atom_site_type_symbol
_atom_type_description
_atom_site_fract_x
_atom_site_fract_y
_atom_site_fract_z
_atom_type_partial_charge
C1    C     C_R   0.498405 0.353165 0.500355 0.887896
C2    C     C_R   0.498287 0.646756 0.499413 0.891442
C3    C     C_1   0.434797 0.964777 0.494982 -0.054960
C4    C     C_1   0.434506 0.032423 0.495899 -0.054927
C5    C     C_R   0.400504 0.456766 0.829776 -0.267428
C6    C     C_R   0.599437 0.543269 0.170224 -0.268064
C7    C     C_R   0.395526 0.454481 0.746107 0.556015
C8    C     C_R   0.604396 0.545563 0.253893 0.555831
C9    C     C_R   0.608450 0.546441 0.753085 -0.062781
C10   C     C_R   0.391622 0.453517 0.246923 -0.062992
C11   C     C_R   0.615028 0.548937 0.837799 -0.243981
C12   C     C_R   0.385047 0.451020 0.162211 -0.243870
C13   C     C_R   0.508970 0.503281 0.876827 0.058815
C14   C     C_R   0.491038 0.496716 0.123178 0.059172
C15   C     C_1   0.504882 0.501911 0.964032 0.001772
C16   C     C_1   0.495141 0.498078 0.035975 0.001723
C17   C     C_R   0.201055 0.499029 0.479471 0.984850
C18   C     C_R   0.798944 0.500927 0.520533 0.986253
C19   C     C_2   0.036532 0.494377 0.468614 -0.307397
C20   C     C_2   0.963473 0.505484 0.531415 -0.308752
C21   C     C_R   0.451919 0.845290 0.567676 -0.155344
C22   C     C_R   0.450764 0.152715 0.425573 -0.156154
C23   C     C_R   0.472196 0.767381 0.569214 -0.201758
C24   C     C_R   0.471205 0.231487 0.426862 -0.202562
C25   C     C_R   0.484852 0.729060 0.497917 -0.039654
C26   C     C_R   0.484465 0.270278 0.499945 -0.039247
C27   C     C_R   0.477405 0.769532 0.425134 -0.140942
C28   C     C_R   0.477087 0.229414 0.571683 -0.131365
C29   C     C_R   0.457269 0.847617 0.423855 -0.163070
C30   C     C_R   0.456640 0.150483 0.570146 -0.163182
C31   C     C_R   0.444271 0.884847 0.495100 0.155778
C32   C     C_R   0.443417 0.112762 0.497095 0.154245
N1    N     N_R   0.500040 0.500030 0.707230 -0.156823
N2    N     N_R   0.499960 0.499970 0.292770 -0.156717
O1    O     O_R   0.500000 0.389130 0.566570 -0.570897
O2    O     O_R   0.500000 0.610870 0.433430 -0.570193
O3    O     O_R   0.499990 0.389100 0.433480 -0.649420
O4    O     O_R   0.500010 0.610900 0.566520 -0.650292
O5    O     O_R   0.271750 0.500010 0.550980 -0.570897
O6    O     O_R   0.728250 0.499990 0.449020 -0.570305
O7    O     O_R   0.271740 0.499980 0.417890 -0.624489
O8    O     O_R   0.728260 0.500020 0.582110 -0.623538
Zn1   Zn    Zn3+2 0.500010 0.500020 0.588860 1.017443
Zn2   Zn    Zn3+2 0.499990 0.499980 0.411140 1.017860
H1    H     H_    0.975777 0.480156 0.409577 0.211270
H2    H     H_    0.024227 0.519648 0.590473 0.211254
H3    H     H_    0.443700 0.874756 0.622969 0.139612
H4    H     H_    0.442325 0.122949 0.369125 0.139857
H5    H     H_    0.477224 0.737285 0.626029 0.162576
H6    H     H_    0.476004 0.261847 0.370738 0.161814
H7    H     H_    0.486653 0.741008 0.369476 0.195587
H8    H     H_    0.486748 0.258253 0.628650 0.197723
H9    H     H_    0.453223 0.878980 0.367770 0.145413
H10   H     H_    0.452768 0.118899 0.625667 0.145788
H11   H     H_    0.316823 0.421822 0.858916 0.201832
H12   H     H_    0.683102 0.578216 0.141081 0.201617
S1    S     S_3+6 0.240253 0.391700 0.700990 0.003125
O9    O     O_2   0.087272 0.427682 0.708289 -0.345089
O10   O     O_2   0.242347 0.370621 0.615598 -0.294455
O11   O     O_3   0.246023 0.310307 0.755245 -0.587121
H13   H     H_    0.145233 0.282097 0.737009 0.386743
S2    S     S_3+6 0.759696 0.608308 0.299051 0.005132
O12   O     O_2   0.756904 0.629791 0.384280 -0.291649
O13   O     O_2   0.912607 0.572035 0.292295 -0.346448
O14   O     O_3   0.754890 0.689489 0.244445 -0.584982
H14   H     H_    0.856516 0.717207 0.262113 0.386985
H15   H     H_    0.690761 0.582066 0.724136 0.156619
H16   H     H_    0.309383 0.417852 0.275881 0.155815
H17   H     H_    0.701935 0.586290 0.872202 0.162007
H18   H     H_    0.298204 0.413633 0.127812 0.161877

loop_
_geom_bond_atom_site_label_1
_geom_bond_atom_site_label_2
_ccdc_geom_bond_type
C3    C31   S    
C19   H1    S    
S2    O12   D    
C28   H8    S    
C14   C16   S    
C10   H16   S    
C6    C14   A    
O1    Zn1   S    
C1    C26   S    
C2    O4    A    
C5    C13   A    
C19   C20   D    
S2    O14   S    
C13   C15   S    
C1    O3    A    
C22   C32   A    
C21   C31   A    
O3    Zn2   S    
C9    H15   S    
S2    O13   D    
C12   C14   A    
O4    Zn1   S    
C10   N2    A    
C8    N2    A    
C9    N1    A    
C9    C11   A    
C24   C26   A    
S1    O9    D    
C4    C32   S    
C10   C12   A    
C11   C13   A    
C5    H11   S    
C28   C30   A    
C17   C19   S    
C27   H7    S    
C22   H4    S    
C2    C25   S    
C18   C20   S    
C18   O8    A    
C21   C23   A    
C24   H6    S    
C11   H17   S    
O7    Zn2   S    
C22   C24   A    
C30   H10   S    
C23   H5    S    
S1    O10   D    
O2    Zn2   S    
O8    Zn1   S    
C7    N1    A    
C15   C16   T    
C30   C32   A    
O6    Zn2   S    
C23   C25   A    
N2    Zn2   S    
C27   C29   A    
C1    O1    A    
C29   C31   A    
O14   H14   S    
C17   O5    A    
C2    O2    A    
C5    C7    A    
C18   O6    A    
C12   H18   S    
S1    O11   S    
C6    C8    A    
C17   O7    A    
C21   H3    S    
O5    Zn1   S    
C26   C28   A    
C7    S1    S    
C20   H2    S    
C3    C4    T    
C8    S2    S    
C6    H12   S    
O11   H13   S    
C29   H9    S    
C25   C27   A    
N1    Zn1   S    
