data_mof_unit_67249.cif
_audit_creation_date              2012-12-11T18:15:43-0500
_audit_creation_method            fapswitch 2.2
_symmetry_space_group_name_H-M    P1
_symmetry_Int_Tables_number       1
_space_group_crystal_system       triclinic
_cell_length_a                    20.545149
_cell_length_b                    20.41974
_cell_length_c                    8.365578
_cell_angle_alpha                 90.081254
_cell_angle_beta                  93.618084
_cell_angle_gamma                 89.406457
_cell_volume                      3502.39844932

loop_
_atom_site_label
_atom_site_type_symbol
_atom_type_description
_atom_site_fract_x
_atom_site_fract_y
_atom_site_fract_z
_atom_type_partial_charge
Ba1   Ba    Ba6+2 0.999980 0.452130 0.155200 1.825529
Ba2   Ba    Ba6+2 0.999980 0.547870 0.655200 1.812674
Ba3   Ba    Ba6+2 0.499980 0.952130 0.155200 1.825646
Ba4   Ba    Ba6+2 0.499980 0.047870 0.655200 1.812697
C1    C     C_3   0.957596 0.139507 0.439192 -0.255100
C2    C     C_R   0.112483 0.662664 0.183817 -0.221451
C3    C     C_R   0.616338 0.841271 0.672684 -0.220376
C4    C     C_R   0.612483 0.162664 0.183817 -0.221472
C5    C     C_R   0.128126 0.288891 0.570450 -0.000458
C6    C     C_R   0.123832 0.714462 0.081659 0.009058
C7    C     C_R   0.628126 0.788891 0.570450 -0.000389
C8    C     C_R   0.623832 0.214462 0.081659 0.009012
C9    C     C_R   0.176702 0.243127 0.612704 0.001709
C10   C     C_R   0.171300 0.760759 0.124787 0.016393
C11   C     C_R   0.676702 0.743127 0.612704 0.001666
C12   C     C_3   0.954918 0.861937 0.917530 -0.231670
C13   C     C_R   0.671300 0.260759 0.124787 0.016639
C14   C     C_R   0.215163 0.249029 0.756744 0.087057
C15   C     C_R   0.211487 0.753617 0.266369 0.078267
C16   C     C_R   0.715163 0.749029 0.756744 0.086842
C17   C     C_R   0.711487 0.253617 0.266369 0.078257
C18   C     C_R   0.206577 0.304563 0.856739 0.011741
C19   C     C_R   0.204493 0.697304 0.364433 0.012472
C20   C     C_R   0.706577 0.804563 0.856739 0.011698
C21   C     C_R   0.704494 0.197304 0.364433 0.012200
C22   C     C_R   0.803408 0.704817 0.939367 -0.053189
C23   C     C_3   0.457596 0.639507 0.439192 -0.250903
C24   C     C_R   0.803202 0.295129 0.442234 -0.022918
C25   C     C_R   0.303407 0.204817 0.939367 -0.053249
C26   C     C_R   0.303202 0.795129 0.442234 -0.023182
C27   C     C_R   0.794300 0.759988 0.040511 -0.010797
C28   C     C_R   0.796258 0.238782 0.541107 0.009221
C29   C     C_R   0.294301 0.259988 0.040511 -0.010807
C30   C     C_R   0.296258 0.738782 0.541107 0.006540
C31   C     C_R   0.854100 0.657292 0.981211 0.048586
C32   C     C_R   0.854272 0.342105 0.481866 0.049283
C33   C     C_R   0.354100 0.157292 0.981211 0.048570
C34   C     C_3   0.454918 0.361936 0.917530 -0.231745
C35   C     C_R   0.354272 0.842105 0.481866 0.049072
C36   C     C_R   0.896079 0.670691 0.116917 -0.158591
C37   C     C_R   0.897097 0.327891 0.616394 -0.159541
C38   C     C_R   0.396079 0.170691 0.116917 -0.158578
C39   C     C_R   0.397097 0.827891 0.616394 -0.162521
C40   C     C_3   0.988666 0.162127 0.905227 0.835160
C41   C     C_3   0.973982 0.841286 0.395884 0.659062
C42   C     C_3   0.488666 0.662127 0.905227 0.878469
C43   C     C_3   0.473982 0.341286 0.395884 0.658981
C44   C     C_R   0.881825 0.721006 0.225839 0.031474
C45   C     C_R   0.155498 0.351364 0.813647 0.065284
C46   C     C_R   0.885319 0.276442 0.723932 0.049830
C47   C     C_R   0.381825 0.221006 0.225839 0.031485
C48   C     C_R   0.385319 0.776442 0.723932 0.059294
C49   C     C_R   0.830638 0.764365 0.187380 -0.110815
C50   C     C_R   0.835775 0.231943 0.683798 -0.122672
C51   C     C_R   0.330638 0.264364 0.187380 -0.110819
C52   C     C_R   0.335775 0.731943 0.683798 -0.118176
C53   C     C_R   0.760606 0.698950 0.802878 0.032240
C54   C     C_R   0.758194 0.302369 0.309504 0.010016
C55   C     C_R   0.260606 0.198950 0.802878 0.032347
C56   C     C_R   0.152602 0.651467 0.322595 0.063721
C57   C     C_R   0.258194 0.802369 0.309504 0.010467
C58   C     C_3   0.984746 0.092205 0.968413 0.292184
C59   C     C_3   0.954214 0.910882 0.444927 0.365294
C60   C     C_3   0.484746 0.592206 0.968414 0.298937
C61   C     C_3   0.454214 0.410882 0.444927 0.365376
C62   C     C_3   0.774298 0.486024 0.945527 0.695279
C63   C     C_3   0.774066 0.514560 0.445497 0.704292
C64   C     C_3   0.274298 0.986024 0.945527 0.695501
C65   C     C_3   0.274066 0.014560 0.445497 0.704295
C66   C     C_3   0.700926 0.487316 0.966900 -0.292220
C67   C     C_R   0.655498 0.851364 0.813647 0.065222
C68   C     C_3   0.700659 0.515287 0.466371 -0.281036
C69   C     C_3   0.200926 0.987316 0.966901 -0.292044
C70   C     C_3   0.200659 0.015287 0.466371 -0.281078
C71   C     C_3   0.178224 0.542194 0.992841 0.231928
C72   C     C_3   0.197452 0.468907 0.540423 0.323211
C73   C     C_3   0.678224 0.042194 0.992841 0.231900
C74   C     C_3   0.697452 0.968907 0.540423 0.323227
C75   C     C_3   0.235918 0.586827 0.013599 -0.239936
C76   C     C_3   0.194339 0.411673 0.426182 -0.280560
C77   C     C_3   0.735918 0.086827 0.013599 -0.239743
C78   C     C_R   0.652602 0.151467 0.322595 0.063778
C79   C     C_3   0.694339 0.911673 0.426182 -0.280554
C80   C     C_3   0.984170 0.208574 0.430430 0.330465
C81   C     C_3   0.984316 0.793273 0.923964 0.312973
C82   C     C_3   0.484170 0.708574 0.430430 0.326226
C83   C     C_3   0.484316 0.293273 0.923964 0.313016
C84   C     C_R   0.246604 0.308679 0.999170 -0.014820
C85   C     C_R   0.247677 0.691113 0.501882 -0.028951
C86   C     C_R   0.746604 0.808679 0.999170 -0.014787
C87   C     C_R   0.747677 0.191112 0.501882 -0.028928
C88   C     C_R   0.116338 0.341271 0.672684 -0.220558
H1    H     H_    0.946865 0.239962 0.364961 0.044196
H2    H     H_    0.688786 0.550335 0.562248 0.119816
H3    H     H_    0.313152 0.456504 0.224679 0.387118
H4    H     H_    0.719618 0.374746 0.692450 0.372151
H5    H     H_    0.734351 0.638848 0.180179 0.366594
H6    H     H_    0.219618 0.874747 0.692451 0.372131
H7    H     H_    0.234350 0.138848 0.180180 0.366575
H8    H     H_    0.173052 0.974627 0.853095 0.132705
H9    H     H_    0.188786 0.050335 0.562248 0.119874
H10   H     H_    0.688792 0.452050 0.061295 0.121019
H11   H     H_    0.684065 0.466095 0.499239 0.165547
H12   H     H_    0.188792 0.952050 0.061295 0.121018
H13   H     H_    0.184065 0.966095 0.499239 0.165561
H14   H     H_    0.153515 0.539645 0.106296 -0.003448
H15   H     H_    0.239948 0.462362 0.627784 0.135124
H16   H     H_    0.653515 0.039645 0.106296 -0.003477
H17   H     H_    0.947596 0.759026 0.868893 0.036770
H18   H     H_    0.739948 0.962362 0.627784 0.135174
H19   H     H_    0.144589 0.562591 0.896126 0.078054
H20   H     H_    0.153303 0.470784 0.610205 -0.039473
H21   H     H_    0.644589 0.062591 0.896126 0.078044
H22   H     H_    0.653303 0.970784 0.610205 -0.039494
H23   H     H_    0.267617 0.569383 0.117489 0.187890
H24   H     H_    0.217133 0.367553 0.482953 0.076132
H25   H     H_    0.767617 0.069383 0.117489 0.188010
H26   H     H_    0.717132 0.867553 0.482953 0.076164
H27   H     H_    0.221425 0.637913 0.034364 0.005960
H28   H     H_    0.446865 0.739962 0.364961 0.043638
H29   H     H_    0.142514 0.403544 0.390620 0.101444
H30   H     H_    0.721425 0.137913 0.034364 0.006015
H31   H     H_    0.642514 0.903544 0.390620 0.101491
H32   H     H_    0.261955 0.586316 0.901792 0.191734
H33   H     H_    0.219998 0.422080 0.317343 0.167608
H34   H     H_    0.761955 0.086316 0.901792 0.191795
H35   H     H_    0.719998 0.922080 0.317343 0.167606
H36   H     H_    0.993256 0.226904 0.555046 -0.006974
H37   H     H_    0.994876 0.780241 0.052141 -0.023764
H38   H     H_    0.493256 0.726904 0.555046 0.003189
H39   H     H_    0.447596 0.259026 0.868893 0.036762
H40   H     H_    0.494876 0.280241 0.052141 -0.023773
H41   H     H_    0.910300 0.140440 0.496203 0.071562
H42   H     H_    0.991515 0.898244 0.962774 0.162201
H43   H     H_    0.410300 0.640440 0.496203 0.076408
H44   H     H_    0.491515 0.398244 0.962774 0.162125
H45   H     H_    0.949821 0.118746 0.317397 0.185146
H46   H     H_    0.912276 0.864303 0.992582 0.118885
H47   H     H_    0.449821 0.618746 0.317397 0.183426
H48   H     H_    0.412276 0.364303 0.992582 0.118867
H49   H     H_    0.006154 0.057070 0.884132 0.037504
H50   H     H_    0.684744 0.536571 0.002186 0.182423
H51   H     H_    0.973912 0.946981 0.361662 0.056342
H52   H     H_    0.506154 0.557069 0.884132 0.038403
H53   H     H_    0.473911 0.446981 0.361662 0.056280
H54   H     H_    0.077475 0.375732 0.639450 0.037624
H55   H     H_    0.074394 0.628246 0.149472 0.026885
H56   H     H_    0.577475 0.875732 0.639450 0.037630
H57   H     H_    0.574394 0.128246 0.149472 0.026881
H58   H     H_    0.181585 0.201406 0.535445 0.129727
H59   H     H_    0.176498 0.802148 0.046671 0.126666
H60   H     H_    0.681585 0.701406 0.535445 0.129717
H61   H     H_    0.673055 0.529565 0.353006 0.138207
H62   H     H_    0.676498 0.302148 0.046671 0.126646
H63   H     H_    0.817933 0.800293 0.274885 0.160725
H64   H     H_    0.826920 0.192809 0.766612 0.088772
H65   H     H_    0.317933 0.300293 0.274886 0.160722
H66   H     H_    0.326920 0.692809 0.766612 0.090918
H67   H     H_    0.936026 0.637154 0.147521 0.062754
H68   H     H_    0.936293 0.361513 0.647038 0.055708
H69   H     H_    0.436026 0.137153 0.147521 0.062744
H70   H     H_    0.436293 0.861513 0.647038 0.055713
H71   H     H_    0.241070 0.349597 0.079333 0.110047
H72   H     H_    0.184745 0.036571 0.002186 0.182420
H73   H     H_    0.243748 0.649395 0.580201 0.097867
H74   H     H_    0.741070 0.849597 0.079333 0.110059
H75   H     H_    0.743748 0.149395 0.580201 0.097911
H76   H     H_    0.761561 0.654735 0.733753 0.145552
H77   H     H_    0.758744 0.346534 0.239993 0.140864
H78   H     H_    0.261562 0.154735 0.733753 0.145567
H79   H     H_    0.258744 0.846534 0.239993 0.140842
H80   H     H_    0.992417 0.107505 0.510467 0.150038
H81   H     H_    0.937977 0.874321 0.792967 0.163280
H82   H     H_    0.492417 0.607505 0.510467 0.152964
H83   H     H_    0.173055 0.029565 0.353005 0.138200
H84   H     H_    0.437977 0.374321 0.792967 0.163281
H85   H     H_    0.960534 0.165678 0.787829 -0.359545
H86   H     H_    0.951270 0.830815 0.275026 -0.139156
H87   H     H_    0.460534 0.665678 0.787829 -0.440468
H88   H     H_    0.451270 0.330815 0.275026 -0.139120
H89   H     H_    0.011975 0.087660 0.086951 0.047719
H90   H     H_    0.974724 0.922366 0.567482 0.045699
H91   H     H_    0.511975 0.587660 0.086951 0.042960
H92   H     H_    0.474724 0.422366 0.567482 0.045852
H93   H     H_    0.801739 0.492936 0.061671 0.067848
H94   H     H_    0.673052 0.474627 0.853095 0.132680
H95   H     H_    0.801181 0.507041 0.562021 0.059471
H96   H     H_    0.301739 0.992936 0.061671 0.067832
H97   H     H_    0.301181 0.007041 0.562021 0.059514
H98   H     H_    0.113362 0.164032 0.122400 0.365913
H99   H     H_    0.071141 0.750437 0.516923 0.376780
H100  H     H_    0.613363 0.664033 0.122401 0.365540
H101  H     H_    0.571141 0.250437 0.516923 0.376779
H102  H     H_    0.873604 0.084150 0.741927 0.324966
H103  H     H_    0.813152 0.956503 0.224679 0.387149
H104  H     H_    0.373604 0.584150 0.741927 0.328333
O1    O     O_2   0.130070 0.404060 0.104920 -0.473076
O2    O     O_3   0.958177 0.795214 0.513165 -0.617574
O3    O     O_3   0.467572 0.707356 0.019271 -0.588233
O4    O     O_3   0.458177 0.295214 0.513165 -0.617576
O5    O     O_3   0.924190 0.533610 0.949240 -0.470613
O6    O     O_3   0.924190 0.466390 0.449240 -0.467238
O7    O     O_3   0.424190 0.033610 0.949240 -0.470606
O8    O     O_3   0.424190 0.966390 0.449240 -0.467148
O9    O     O_3   0.075780 0.466370 0.861070 -0.504267
O10   O     O_3   0.075780 0.533630 0.361070 -0.496197
O11   O     O_3   0.575780 0.966370 0.861070 -0.504282
O12   O     O_2   0.130070 0.595940 0.604920 -0.480536
O13   O     O_3   0.575780 0.033630 0.361070 -0.496205
O14   O     O_3   0.022320 0.344950 0.359800 -0.511919
O15   O     O_3   0.022320 0.655050 0.859800 -0.517798
O16   O     O_3   0.522320 0.844950 0.359800 -0.512010
O17   O     O_3   0.522320 0.155050 0.859800 -0.517818
O18   O     O_2   0.124370 0.289220 0.234455 -0.451254
O19   O     O_2   0.129579 0.706489 0.751777 -0.480217
O20   O     O_2   0.624370 0.789220 0.234455 -0.451339
O21   O     O_2   0.629580 0.206489 0.751777 -0.480125
O22   O     O_3   0.201718 0.480260 0.952787 -0.629191
O23   O     O_2   0.630070 0.904060 0.104920 -0.473094
O24   O     O_3   0.207214 0.525263 0.451377 -0.619909
O25   O     O_3   0.701718 0.980260 0.952787 -0.629131
O26   O     O_3   0.707214 0.025263 0.451377 -0.619889
O27   O     O_3   0.041643 0.207340 0.347969 -0.576049
O28   O     O_3   0.041327 0.791269 0.838993 -0.542735
O29   O     O_3   0.541643 0.707340 0.347969 -0.576994
O30   O     O_3   0.541327 0.291268 0.838993 -0.542748
O31   O     O_2   0.869860 0.403670 0.205810 -0.416803
O32   O     O_2   0.869860 0.596330 0.705810 -0.414056
O33   O     O_2   0.369860 0.903670 0.205810 -0.416858
O34   O     O_2   0.630070 0.095940 0.604920 -0.480533
O35   O     O_2   0.369860 0.096330 0.705810 -0.414058
O36   O     O_3   0.977590 0.344880 0.951200 -0.408002
O37   O     O_3   0.977590 0.655120 0.451200 -0.440440
O38   O     O_3   0.477590 0.844880 0.951200 -0.408456
O39   O     O_3   0.477590 0.155120 0.451200 -0.440446
O40   O     O_2   0.875617 0.290175 0.052460 -0.394707
O41   O     O_2   0.873378 0.708079 0.553369 -0.387084
O42   O     O_2   0.375617 0.790175 0.052460 -0.395492
O43   O     O_2   0.373378 0.208079 0.553369 -0.387099
O44   O     O_2   0.088524 0.150897 0.719298 -0.362018
O45   O     O_3   0.788624 0.466745 0.334835 -0.661594
O46   O     O_2   0.081093 0.248171 0.892622 -0.352613
O47   O     O_3   0.119946 0.139057 0.023271 -0.564521
O48   O     O_2   0.078658 0.866846 0.229218 -0.348408
O49   O     O_2   0.091832 0.881293 0.520640 -0.328108
O50   O     O_3   0.085042 0.763511 0.411058 -0.556017
O51   O     O_2   0.588524 0.650897 0.719299 -0.359455
O52   O     O_2   0.581093 0.748171 0.892622 -0.352909
O53   O     O_3   0.619946 0.639057 0.023271 -0.566291
O54   O     O_2   0.578658 0.366846 0.229218 -0.348436
O55   O     O_2   0.591832 0.381293 0.520640 -0.328090
O56   O     O_3   0.789265 0.533235 0.834155 -0.660164
O57   O     O_3   0.585042 0.263511 0.411058 -0.556012
O58   O     O_2   0.904837 0.012363 0.104496 -0.271638
O59   O     O_2   0.867479 0.125728 0.061433 -0.364904
O60   O     O_3   0.868014 0.046578 0.814114 -0.480081
O61   O     O_2   0.838770 0.872947 0.543156 -0.346894
O62   O     O_2   0.854480 0.990363 0.499447 -0.281765
O63   O     O_3   0.838190 0.915611 0.248198 -0.562150
O64   O     O_2   0.404837 0.512363 0.104496 -0.272496
O65   O     O_2   0.367479 0.625728 0.061433 -0.364401
O66   O     O_3   0.368014 0.546578 0.814114 -0.479130
O67   O     O_3   0.288624 0.966745 0.334835 -0.661572
O68   O     O_2   0.338770 0.372947 0.543156 -0.346928
O69   O     O_2   0.354480 0.490363 0.499447 -0.281747
O70   O     O_3   0.338190 0.415611 0.248198 -0.562186
O71   O     O_2   0.867141 0.410836 0.856921 -0.322804
O72   O     O_2   0.773914 0.355207 0.964440 -0.371120
O73   O     O_3   0.758920 0.401334 0.678622 -0.618991
O74   O     O_2   0.774442 0.644793 0.461310 -0.386664
O75   O     O_2   0.868219 0.586929 0.357387 -0.317020
O76   O     O_3   0.760457 0.597928 0.176969 -0.623608
O77   O     O_2   0.367141 0.910836 0.856921 -0.323358
O78   O     O_3   0.289265 0.033235 0.834155 -0.660131
O79   O     O_2   0.273915 0.855207 0.964440 -0.371616
O80   O     O_3   0.258920 0.901334 0.678622 -0.619144
O81   O     O_2   0.274442 0.144793 0.461310 -0.386679
O82   O     O_2   0.368219 0.086929 0.357388 -0.317032
O83   O     O_3   0.260457 0.097928 0.176969 -0.623655
O84   O     O_3   0.967572 0.207356 0.019271 -0.587958
P1    P     P_3+3 0.136530 0.426510 0.931350 0.978292
P2    P     P_3+3 0.923975 0.722624 0.429927 1.099162
P3    P     P_3+3 0.427252 0.776267 0.930108 1.168546
P4    P     P_3+3 0.423975 0.222624 0.429927 1.099151
P5    P     P_3+3 0.080625 0.716411 0.882938 0.976475
P6    P     P_3+3 0.080629 0.282556 0.377466 0.992177
P7    P     P_3+3 0.580625 0.216411 0.882938 0.976521
P8    P     P_3+3 0.580629 0.782556 0.377466 0.991291
P9    P     P_3+3 0.136530 0.573490 0.431350 0.968201
P10   P     P_3+3 0.636530 0.926510 0.931350 0.978264
P11   P     P_3+3 0.636530 0.073490 0.431350 0.968215
P12   P     P_3+3 0.863410 0.426100 0.379280 1.070304
P13   P     P_3+3 0.863410 0.573900 0.879280 1.069979
P14   P     P_3+3 0.363410 0.926100 0.379280 1.070485
P15   P     P_3+3 0.363410 0.073900 0.879280 1.070009
P16   P     P_3+3 0.927252 0.276267 0.930108 1.163293
S1    S     S_3+6 0.071758 0.176080 0.880344 -0.135691
S2    S     S_3+6 0.795629 0.589023 0.361623 -0.133034
S3    S     S_3+6 0.294653 0.910283 0.862846 -0.126557
S4    S     S_3+6 0.295629 0.089023 0.361623 -0.133061
S5    S     S_3+6 0.060127 0.840840 0.387758 -0.125272
S6    S     S_3+6 0.571758 0.676079 0.880345 -0.133305
S7    S     S_3+6 0.560127 0.340841 0.387758 -0.125275
S8    S     S_3+6 0.903576 0.069271 0.991627 -0.128591
S9    S     S_3+6 0.868577 0.922749 0.438664 -0.115149
S10   S     S_3+6 0.403576 0.569271 0.991627 -0.126079
S11   S     S_3+6 0.368577 0.422749 0.438664 -0.115162
S12   S     S_3+6 0.794653 0.410283 0.862846 -0.125953

loop_
_geom_bond_atom_site_label_1
_geom_bond_atom_site_label_2
_ccdc_geom_bond_type
C12   H81   S    
C29   C51   A    
C30   C52   A    
C77   H34   S    
C69   H8    S    
O69   S11   D    
C38   H69   S    
Ba2   O32   S    
O22   P1    S    
C9    C14   A    
Ba2   P9    S    
O52   S6    D    
C29   C84   A    
C8    P7    S    
C50   H64   S    
C25   C29   A    
C5    C88   A    
C33   C38   A    
C5    C9    A    
O71   S12   D    
C61   S11   S    
C81   H37   S    
C60   H91   S    
C62   S12   S    
O82   S4    D    
C76   H24   S    
Ba2   O6    S    
C10   H59   S    
C19   C85   A    
Ba4   O17   S    
C34   H44   S    
C60   S10   S    
O74   S2    D    
C68   H2    S    
C56   P9    S    
H98   O47   S    
O6    P12   S    
Ba3   O8    S    
C6    P5    S    
C73   H21   S    
Ba1   O6    S    
C10   C15   A    
C63   H95   S    
C76   H29   S    
C11   C16   A    
C62   O56   S    
C21   C87   A    
C24   C28   A    
O10   P9    S    
H3    O70   S    
C13   C17   A    
H101  O57   S    
C23   C82   S    
C15   C19   A    
O78   P15   S    
Ba2   O37   S    
C34   H84   S    
O44   S1    D    
C27   C86   A    
C35   P14   S    
C65   C70   S    
H5    O76   S    
H6    O80   S    
O48   S5    D    
C70   H9    S    
C31   P13   S    
C72   H15   S    
C63   S2    S    
C12   C81   S    
O14   P6    S    
Ba2   O12   S    
O57   S7    S    
O80   S3    S    
O58   S8    D    
C36   C44   A    
C42   H87   S    
C12   H46   S    
Ba3   P14   S    
C80   O27   S    
C20   C86   A    
O23   P10   D    
C1    H45   S    
C68   H11   S    
C24   C54   A    
C34   C83   S    
C31   C36   A    
O40   P16   D    
Ba4   P11   S    
C58   H89   S    
Ba1   P1    S    
C62   C66   S    
C15   C57   A    
O67   P14   S    
C47   C51   A    
C80   H1    S    
O20   P8    D    
C22   C53   A    
O60   S8    S    
C78   P11   S    
C22   C31   A    
O5    P13   S    
C26   C57   A    
C42   C60   S    
O7    P15   S    
C71   C75   S    
O1    P1    D    
C80   H36   S    
O4    P4    S    
C77   H25   S    
C36   H67   S    
C12   H42   S    
O63   S9    S    
C65   O67   S    
C53   H76   S    
C1    H41   S    
Ba2   O15   S    
C87   H75   S    
C39   C48   A    
C63   C68   S    
C83   H39   S    
H7    O83   S    
O50   S5    S    
C65   S4    S    
O55   S7    D    
O8    P14   S    
C57   H79   S    
C41   S5    S    
O28   P5    S    
C33   P15   S    
Ba2   P13   S    
C7    C11   A    
C23   H82   S    
C81   O28   S    
O21   P7    D    
C44   C49   A    
C26   C30   A    
C88   H54   S    
O56   P13   S    
C54   H77   S    
C6    C10   A    
C1    C80   S    
C82   H38   S    
Ba4   O7    S    
O17   P7    S    
H4    O73   S    
C23   H47   S    
O19   P5    D    
C43   H88   S    
Ba1   O10   S    
O62   S9    D    
C37   H68   S    
C4    C8    A    
C83   O30   S    
O41   P2    D    
O68   S11   D    
C41   H86   S    
C74   O26   S    
C49   H63   S    
C47   P4    S    
Ba3   Ba4   S    
O76   S2    S    
O49   S5    D    
C17   C21   A    
C14   C18   A    
C73   H16   S    
Ba1   O1    S    
C72   C76   S    
O75   S2    D    
C79   H35   S    
C75   H32   S    
C23   H43   S    
C30   C85   A    
C17   C54   A    
C70   H13   S    
C2    H55   S    
C42   O3    S    
C40   O84   S    
C45   P1    S    
O84   P16   S    
C1    H80   S    
H102  O60   S    
O29   P8    S    
O33   P14   D    
C43   O4    S    
C66   H94   S    
C39   H70   S    
C14   C55   A    
C64   H96   S    
C82   O29   S    
C25   C55   A    
C82   H28   S    
Ba3   P10   S    
O61   S9    D    
C61   H92   S    
O24   P9    S    
Ba3   O13   S    
O46   S1    D    
H103  O63   S    
Ba3   O7    S    
Ba4   P15   S    
Ba1   O5    S    
Ba3   O33   S    
O18   P6    D    
C46   C50   A    
C4    C78   A    
C9    H58   S    
C81   H17   S    
O70   S11   S    
O42   P3    D    
O2    P2    S    
C74   C79   S    
O79   S3    D    
C75   H27   S    
C8    C13   A    
C67   P10   S    
C18   C84   A    
C86   H74   S    
C32   C37   A    
C74   H22   S    
Ba2   O5    S    
C13   H62   S    
C28   C50   A    
C11   H60   S    
C63   O45   S    
Ba4   O35   S    
O32   P13   D    
O77   S3    D    
O81   S4    D    
O53   S6    S    
C73   C77   S    
O47   S1    S    
O3    P3    S    
C75   H23   S    
O66   S10   S    
C21   C78   A    
O11   P10   S    
C37   C46   A    
C41   O2    S    
Ba4   O11   S    
O43   P4    D    
C68   H61   S    
O34   P11   D    
C2    C6    A    
C66   H10   S    
C71   H19   S    
O39   P4    S    
C77   H30   S    
C4    H57   S    
C58   S8    S    
C70   H83   S    
C48   P3    S    
Ba1   O36   S    
C72   O24   S    
C51   H65   S    
C64   O78   S    
C24   C32   A    
C71   H14   S    
Ba3   O23   S    
C62   H93   S    
C25   C33   A    
H99   O50   S    
C40   S1    S    
C79   H31   S    
H100  O53   S    
C59   S9    S    
O16   P8    S    
C3    C7    A    
C5    P6    S    
C79   H26   S    
C7    P8    S    
C69   H72   S    
Ba3   O38   S    
C3    C67   A    
Ba4   O8    S    
C28   C87   A    
C76   H33   S    
O54   S7    D    
O27   P6    S    
Ba1   Ba2   S    
O59   S8    D    
C52   H66   S    
C69   H12   S    
C16   C20   A    
C26   C35   A    
C55   H78   S    
C38   C47   A    
Ba1   O31   S    
O37   P2    S    
C22   C27   A    
C59   H90   S    
O13   P11   S    
O72   S12   D    
C19   C56   A    
C64   S3    S    
C66   H50   S    
O31   P12   D    
C2    C56   A    
O30   P7    S    
C65   H97   S    
C44   P2    S    
C35   C39   A    
C60   H52   S    
C71   O22   S    
C40   C58   S    
C64   C69   S    
O26   P11   S    
C41   C59   S    
O83   S4    S    
Ba1   P12   S    
O64   S10   D    
Ba4   O34   S    
C83   H40   S    
C42   S6    S    
O35   P15   D    
O36   P16   S    
O73   S12   S    
C72   H20   S    
C74   H18   S    
Ba2   O9    S    
C27   C49   A    
C85   H73   S    
C73   O25   S    
O15   P5    S    
C18   C45   A    
O51   S6    D    
Ba4   O39   S    
O65   S10   D    
C58   H49   S    
C61   H53   S    
C3    H56   S    
Ba3   O16   S    
C32   P12   S    
C59   H51   S    
O9    P1    S    
Ba1   O14   S    
C43   S7    S    
C40   H85   S    
C84   H71   S    
H104  O66   S    
O45   P12   S    
O25   P10   S    
C46   P16   S    
O12   P9    D    
O38   P3    S    
C34   H48   S    
C45   C88   A    
C16   C53   A    
C43   C61   S    
C48   C52   A    
C20   C67   A    
