data_mof_unit_30342.cif
_audit_creation_date              2012-12-10T20:00:33-0500
_audit_creation_method            fapswitch 2.2
_symmetry_space_group_name_H-M    P1
_symmetry_Int_Tables_number       1
_space_group_crystal_system       triclinic
_cell_length_a                    15.010845
_cell_length_b                    14.146035
_cell_length_c                    15.844868
_cell_angle_alpha                 89.999892
_cell_angle_beta                  90.010483
_cell_angle_gamma                 90.011423
_cell_volume                      3364.5615569

loop_
_atom_site_label
_atom_site_type_symbol
_atom_type_description
_atom_site_fract_x
_atom_site_fract_y
_atom_site_fract_z
_atom_type_partial_charge
C1    C     C_R   0.327722 0.499993 0.499953 0.859827
C2    C     C_R   0.526666 0.795584 0.570255 0.019953
C3    C     C_R   0.473271 0.204417 0.570226 0.019989
C4    C     C_R   0.473167 0.795848 0.429967 0.018368
C5    C     C_R   0.500091 0.053248 0.500388 0.140623
C6    C     C_R   0.499910 0.946753 0.500387 0.140621
C7    C     C_R   0.499971 0.500000 0.339325 0.909835
C8    C     C_R   0.500028 0.500000 0.660652 0.910564
C9    C     C_R   0.494204 0.586857 0.955689 -0.060926
C10   C     C_R   0.506097 0.413142 0.044144 -0.060669
C11   C     C_R   0.493860 0.586850 0.044139 -0.060673
C12   C     C_R   0.672277 0.500007 0.499927 0.859822
C13   C     C_R   0.505777 0.413135 0.955693 -0.060918
C14   C     C_R   0.499999 0.499996 0.912689 0.031182
C15   C     C_R   0.499974 0.499997 0.087184 0.031126
C16   C     C_1   0.500016 0.499998 0.823421 -0.038180
C17   C     C_1   0.499966 0.499998 0.176487 -0.038887
C18   C     C_1   0.499965 0.500000 0.251199 -0.180921
C19   C     C_1   0.500026 0.499999 0.748735 -0.180475
C20   C     C_R   0.094196 0.579268 0.469315 -0.183585
C21   C     C_R   0.905794 0.420737 0.469283 -0.183577
C22   C     C_R   0.906057 0.579405 0.528698 -0.182907
C23   C     C_R   0.048091 0.499932 0.498856 0.117334
C24   C     C_R   0.093951 0.420582 0.528690 -0.182904
C25   C     C_R   0.186158 0.579515 0.470136 -0.196370
C26   C     C_R   0.813832 0.420493 0.470093 -0.196373
C27   C     C_R   0.814092 0.579609 0.528616 -0.196350
C28   C     C_R   0.185916 0.420381 0.528619 -0.196352
C29   C     C_R   0.231972 0.499977 0.499606 -0.021217
C30   C     C_R   0.768027 0.500023 0.499579 -0.021208
C31   C     C_R   0.488476 0.677497 0.091601 0.141578
C32   C     C_R   0.412714 0.698704 0.140079 -0.150445
C33   C     C_R   0.407551 0.784084 0.184262 -0.153875
C34   C     C_R   0.951907 0.500063 0.498850 0.117332
C35   C     C_R   0.477694 0.848885 0.180106 -0.115999
C36   C     C_R   0.553256 0.828314 0.131982 -0.125894
C37   C     C_R   0.558835 0.742854 0.087932 -0.131868
C38   C     C_R   0.513177 0.322733 0.908095 0.141443
C39   C     C_R   0.440940 0.289318 0.860228 -0.150032
C40   C     C_R   0.448079 0.204466 0.815452 -0.154122
C41   C     C_R   0.527196 0.152490 0.818181 -0.106314
C42   C     C_R   0.599257 0.185203 0.865836 -0.126609
C43   C     C_R   0.592435 0.270070 0.910647 -0.133497
C44   C     C_R   0.486807 0.677258 0.908088 0.141462
C45   C     C_R   0.527019 0.104739 0.428739 -0.283178
C46   C     C_R   0.559061 0.710695 0.860281 -0.150028
C47   C     C_R   0.551924 0.795546 0.815501 -0.154155
C48   C     C_R   0.472792 0.847500 0.818166 -0.106342
C49   C     C_R   0.400714 0.814763 0.865762 -0.126596
C50   C     C_R   0.407535 0.729898 0.910576 -0.133499
C51   C     C_R   0.511465 0.322495 0.091610 0.141561
C52   C     C_R   0.587205 0.301294 0.140145 -0.150440
C53   C     C_R   0.592351 0.215916 0.184335 -0.153874
C54   C     C_R   0.522213 0.151112 0.180130 -0.115953
C55   C     C_R   0.446673 0.171677 0.131947 -0.125896
C56   C     C_R   0.526643 0.895003 0.571952 -0.285869
C57   C     C_R   0.441111 0.257134 0.087889 -0.131869
C58   C     C_R   0.473293 0.104997 0.571923 -0.285880
C59   C     C_R   0.473046 0.895262 0.428709 -0.283161
C60   C     C_R   0.526897 0.204154 0.429997 0.018411
H1    H     H_    0.059091 0.640414 0.445045 0.130513
H2    H     H_    0.548861 0.931010 0.628464 0.126642
H3    H     H_    0.451026 0.068990 0.628410 0.126643
H4    H     H_    0.450603 0.931534 0.372453 0.128125
H5    H     H_    0.548672 0.242589 0.374752 0.137169
H6    H     H_    0.548365 0.756907 0.625377 0.134508
H7    H     H_    0.451522 0.243095 0.625322 0.134456
H8    H     H_    0.451441 0.757414 0.374697 0.137225
H9    H     H_    0.357739 0.649242 0.143349 0.124042
H10   H     H_    0.349128 0.800089 0.221641 0.122763
H11   H     H_    0.473454 0.915024 0.214116 0.108340
H12   H     H_    0.940891 0.359598 0.445003 0.130509
H13   H     H_    0.607513 0.878593 0.128843 0.125697
H14   H     H_    0.617795 0.727538 0.050996 0.121573
H15   H     H_    0.379253 0.328925 0.857818 0.123335
H16   H     H_    0.392305 0.179019 0.778585 0.118254
H17   H     H_    0.532686 0.086923 0.783365 0.111087
H18   H     H_    0.660469 0.144860 0.867947 0.124365
H19   H     H_    0.648790 0.294903 0.947136 0.121965
H20   H     H_    0.620759 0.671105 0.857920 0.123331
H21   H     H_    0.607711 0.821010 0.778679 0.118277
H22   H     H_    0.467304 0.913067 0.783349 0.111080
H23   H     H_    0.941361 0.640524 0.552792 0.130660
H24   H     H_    0.339491 0.855089 0.867824 0.124362
H25   H     H_    0.351166 0.705046 0.947020 0.121957
H26   H     H_    0.642177 0.350758 0.143455 0.124043
H27   H     H_    0.650758 0.199915 0.221759 0.122733
H28   H     H_    0.526439 0.084975 0.214146 0.108340
H29   H     H_    0.392420 0.121394 0.128769 0.125699
H30   H     H_    0.382168 0.272445 0.050910 0.121581
H31   H     H_    0.058654 0.359454 0.552763 0.130658
H32   H     H_    0.221315 0.641098 0.446791 0.150888
H33   H     H_    0.778666 0.358918 0.446730 0.150864
H34   H     H_    0.779136 0.641171 0.552243 0.151061
H35   H     H_    0.220879 0.358812 0.552233 0.151056
H36   H     H_    0.549513 0.068467 0.372508 0.128125
N1    N     N_R   0.500000 0.252470 0.500000 -0.092689
N2    N     N_R   0.500000 0.747530 0.500000 -0.092695
O1    O     O_R   0.369060 0.579480 0.500010 -0.621441
O2    O     O_R   0.630940 0.420520 0.499990 -0.621453
O3    O     O_R   0.630940 0.579480 0.499990 -0.621858
O4    O     O_R   0.369060 0.420520 0.500010 -0.621874
O5    O     O_R   0.499980 0.579460 0.378020 -0.621848
O6    O     O_R   0.500020 0.420540 0.621980 -0.621832
O7    O     O_R   0.500020 0.579460 0.621980 -0.621857
O8    O     O_R   0.499980 0.420540 0.378020 -0.621825
Zn1   Zn    Zn3+2 0.500000 0.606140 0.500000 0.947145
Zn2   Zn    Zn3+2 0.500000 0.393860 0.500000 0.947155

loop_
_geom_bond_atom_site_label_1
_geom_bond_atom_site_label_2
_ccdc_geom_bond_type
O3    Zn1   S    
C46   H20   S    
C37   H14   S    
C45   C60   A    
C40   C41   A    
C4    N2    A    
C41   C42   A    
C35   C36   A    
C21   C26   A    
C8    O7    A    
C1    O1    A    
C53   C54   A    
O7    Zn1   S    
C59   H4    S    
C5    C58   A    
C28   H35   S    
C49   H24   S    
C36   C37   A    
C10   C15   A    
C41   H17   S    
C38   C39   A    
C20   C25   A    
C43   H19   S    
C20   H1    S    
C50   H25   S    
C46   C47   A    
N1    Zn2   S    
C11   C15   A    
C47   C48   A    
C25   H32   S    
C23   C24   A    
O4    Zn2   S    
C51   C57   A    
C39   H15   S    
C23   C34   S    
C26   H33   S    
C35   H11   S    
C7    O5    A    
C13   C14   A    
C27   C30   A    
C10   C51   S    
C44   C46   A    
C25   C29   A    
C22   C34   A    
O2    Zn2   S    
C8    C19   S    
C57   H30   S    
C21   H12   S    
C51   C52   A    
C60   N1    A    
C39   C40   A    
C4    H8    S    
C21   C34   A    
C5    C45   A    
N2    Zn1   S    
C31   C37   A    
C9    C14   A    
C9    C11   A    
C3    N1    A    
C31   C32   A    
C20   C23   A    
C7    C18   S    
C1    C29   S    
C17   C18   T    
C7    O8    A    
C53   H27   S    
C8    O6    A    
C13   C38   S    
C33   H10   S    
C48   C49   A    
C60   H5    S    
C26   C30   A    
C22   C27   A    
C55   C57   A    
C14   C16   S    
C42   C43   A    
C24   H31   S    
O6    Zn2   S    
C52   C53   A    
C44   C50   A    
C58   H3    S    
C15   C17   S    
C54   C55   A    
C28   C29   A    
C9    C44   S    
C12   C30   S    
C6    C59   A    
C3    H7    S    
C24   C28   A    
C6    C56   A    
C2    H6    S    
C10   C13   A    
C42   H18   S    
C32   H9    S    
O1    Zn1   S    
C32   C33   A    
C52   H26   S    
C38   C43   A    
C55   H29   S    
C2    C56   A    
C22   H23   S    
C54   H28   S    
C5    C6    S    
O8    Zn2   S    
C16   C19   T    
C4    C59   A    
C33   C35   A    
C48   H22   S    
C56   H2    S    
C47   H21   S    
C12   O2    A    
C36   H13   S    
C11   C31   S    
C3    C58   A    
C40   H16   S    
C12   O3    A    
C2    N2    A    
C49   C50   A    
C27   H34   S    
O5    Zn1   S    
C45   H36   S    
C1    O4    A    
