data_mof_unit_37100.cif
_audit_creation_date              2012-12-11T15:39:12-0500
_audit_creation_method            fapswitch 2.2
_symmetry_space_group_name_H-M    P1
_symmetry_Int_Tables_number       1
_space_group_crystal_system       triclinic
_cell_length_a                    17.254296
_cell_length_b                    24.216054
_cell_length_c                    14.865824
_cell_angle_alpha                 89.979723
_cell_angle_beta                  125.347731
_cell_angle_gamma                 89.957443
_cell_volume                      5066.36269392

loop_
_atom_site_label
_atom_site_type_symbol
_atom_type_description
_atom_site_fract_x
_atom_site_fract_y
_atom_site_fract_z
_atom_type_partial_charge
C1    C     C_R   0.351659 0.347893 0.908453 -0.144311
C2    C     C_R   0.690549 0.375989 0.092122 -0.126046
C3    C     C_R   0.851667 0.847891 0.908453 -0.144397
C4    C     C_R   0.190549 0.875989 0.092122 -0.126045
C5    C     C_R   0.383144 0.684753 0.999930 0.052548
C6    C     C_R   0.688744 0.636670 0.999922 0.036901
C7    C     C_R   0.883144 0.184753 0.999930 0.052543
C8    C     C_R   0.188744 0.136668 0.999921 0.036899
C9    C     C_R   0.448782 0.499946 0.274648 0.037996
C10   C     C_R   0.431764 0.499981 0.630534 0.047331
C11   C     C_R   0.948782 0.999946 0.274648 0.038003
C12   C     C_R   0.931764 0.999981 0.630534 0.047339
C13   C     C_R   0.174458 0.500997 0.723586 0.105534
C14   C     C_R   0.800723 0.501587 0.369028 0.132629
C15   C     C_R   0.674459 0.000996 0.723595 0.105681
C16   C     C_R   0.300724 0.001588 0.369026 0.132579
C17   C     C_R   0.026590 0.553398 0.606485 -0.180738
C18   C     C_R   0.931361 0.554872 0.522693 -0.183626
C19   C     C_R   0.526594 0.053398 0.606474 -0.180818
C20   C     C_R   0.431365 0.054874 0.522682 -0.183592
C21   C     C_R   0.071527 0.504523 0.662798 -0.164058
C22   C     C_R   0.879974 0.505601 0.485227 -0.186575
C23   C     C_R   0.571526 0.004524 0.662792 -0.163940
C24   C     C_R   0.379972 0.005603 0.485225 -0.186552
C25   C     C_R   0.013422 0.458928 0.647334 0.401983
C26   C     C_R   0.916489 0.459482 0.557597 0.412976
C27   C     C_R   0.513420 0.958931 0.647329 0.401932
C28   C     C_R   0.416483 0.959487 0.557601 0.412882
C29   C     C_3   0.944281 0.600834 0.462692 0.314500
C30   C     C_3   0.049814 0.598303 0.554851 0.370132
C31   C     C_3   0.444289 0.100827 0.462671 0.314506
C32   C     C_3   0.549823 0.098295 0.554830 0.370124
C33   C     C_R   0.292167 0.769160 0.899869 -0.170688
C34   C     C_R   0.843513 0.684994 0.099591 -0.165623
C35   C     C_R   0.792167 0.269160 0.899869 -0.170697
C36   C     C_R   0.343512 0.184994 0.099591 -0.165623
C37   C     C_R   0.744201 0.314992 0.899872 -0.170559
C38   C     C_R   0.390850 0.231120 0.099667 -0.159055
C39   C     C_R   0.244201 0.814992 0.899872 -0.170564
C40   C     C_R   0.890855 0.731118 0.099667 -0.159078
C41   C     C_R   0.762849 0.333968 0.999691 0.140064
C42   C     C_R   0.357941 0.257837 0.999851 0.134278
C43   C     C_R   0.262849 0.833968 0.999691 0.140063
C44   C     C_R   0.857948 0.757834 0.999851 0.134310
C45   C     C_R   0.443818 0.652420 0.091376 -0.136312
C46   C     C_R   0.598360 0.623968 0.907720 -0.119959
C47   C     C_R   0.943818 0.152420 0.091376 -0.136308
C48   C     C_R   0.098360 0.123967 0.907720 -0.119948
C49   C     C_R   0.843952 0.315069 0.099483 -0.168440
C50   C     C_R   0.290675 0.231556 0.899922 -0.171468
C51   C     C_R   0.343952 0.815069 0.099483 -0.168444
C52   C     C_R   0.790680 0.731555 0.899922 -0.171382
C53   C     C_R   0.391961 0.769230 0.099581 -0.170084
C54   C     C_R   0.743390 0.685468 0.899948 -0.164325
C55   C     C_R   0.891961 0.269230 0.099581 -0.170079
C56   C     C_R   0.243390 0.185467 0.899948 -0.164280
C57   C     C_R   0.359467 0.742728 0.999786 0.140440
C58   C     C_R   0.762529 0.666121 0.999797 0.134350
C59   C     C_R   0.859467 0.242728 0.999786 0.140440
C60   C     C_R   0.262529 0.166120 0.999797 0.134340
C61   C     C_R   0.387908 0.549886 0.461503 -0.176663
C62   C     C_R   0.390804 0.549855 0.370370 -0.168388
C63   C     C_R   0.887909 0.049886 0.461503 -0.176672
C64   C     C_R   0.890805 0.049855 0.370371 -0.168383
C65   C     C_R   0.403854 0.499897 0.333127 0.140129
C66   C     C_R   0.397268 0.499921 0.514652 0.139980
C67   C     C_R   0.903854 0.999897 0.333127 0.140132
C68   C     C_R   0.897269 0.999921 0.514653 0.139975
C69   C     C_R   0.391666 0.449907 0.371057 -0.170514
C70   C     C_R   0.388833 0.449897 0.462201 -0.172758
C71   C     C_R   0.891666 0.949907 0.371057 -0.170511
C72   C     C_R   0.888833 0.949897 0.462201 -0.172758
C73   C     C_R   0.480278 0.453778 0.248937 -0.130509
C74   C     C_R   0.449182 0.454215 0.695177 -0.146502
C75   C     C_R   0.980277 0.953778 0.248937 -0.130510
C76   C     C_R   0.949182 0.954215 0.695177 -0.146507
C77   C     C_R   0.232867 0.546484 0.754516 -0.058145
C78   C     C_R   0.751657 0.546407 0.304086 -0.183838
C79   C     C_R   0.732868 0.046484 0.754520 -0.058212
C80   C     C_R   0.251657 0.046408 0.304084 -0.183821
C81   C     C_R   0.480048 0.546145 0.248723 -0.134349
C82   C     C_R   0.449122 0.545756 0.695097 -0.133216
C83   C     C_R   0.980048 0.046145 0.248723 -0.134354
C84   C     C_R   0.949123 0.045756 0.695097 -0.133216
C85   C     C_R   0.230345 0.454220 0.748159 -0.157871
C86   C     C_R   0.755262 0.454993 0.305549 -0.138721
C87   C     C_R   0.730346 0.954220 0.748169 -0.157755
C88   C     C_R   0.255263 0.954994 0.305549 -0.138745
C89   C     C_R   0.352769 0.652538 0.908541 -0.155838
C90   C     C_R   0.690554 0.623958 0.092273 -0.126240
C91   C     C_R   0.852769 0.152538 0.908541 -0.155824
C92   C     C_R   0.190554 0.123957 0.092273 -0.126246
C93   C     C_R   0.443283 0.347715 0.091490 -0.135576
C94   C     C_R   0.598318 0.375919 0.907619 -0.124866
C95   C     C_R   0.943287 0.847714 0.091490 -0.135579
C96   C     C_R   0.098318 0.875919 0.907619 -0.124865
C97   C     C_R   0.381874 0.315686 0.999960 0.043181
C98   C     C_R   0.688768 0.363227 0.999791 0.039729
C99   C     C_R   0.881884 0.815684 0.999960 0.043148
C100  C     C_R   0.188768 0.863227 0.999791 0.039727
H1    H     H_    0.313825 0.334321 0.823872 0.092728
H2    H     H_    0.748740 0.371124 0.177685 0.095895
H3    H     H_    0.813835 0.834319 0.823873 0.092769
H4    H     H_    0.248740 0.871124 0.177685 0.095894
H5    H     H_    0.926776 0.588098 0.381116 0.082052
H6    H     H_    0.075732 0.636263 0.606313 0.066175
H7    H     H_    0.426782 0.088085 0.381098 0.082055
H8    H     H_    0.575745 0.136258 0.606285 0.066178
H9    H     H_    0.269233 0.751833 0.821137 0.111979
H10   H     H_    0.864578 0.668399 0.178243 0.126094
H11   H     H_    0.769234 0.251833 0.821136 0.111977
H12   H     H_    0.364578 0.168398 0.178243 0.126108
H13   H     H_    0.686270 0.331229 0.821208 0.109732
H14   H     H_    0.446588 0.248321 0.178418 0.116728
H15   H     H_    0.186270 0.831229 0.821208 0.109735
H16   H     H_    0.946595 0.748319 0.178418 0.116730
H17   H     H_    0.864630 0.331378 0.178119 0.112969
H18   H     H_    0.267375 0.249086 0.821179 0.113268
H19   H     H_    0.364630 0.831377 0.178120 0.112969
H20   H     H_    0.767380 0.749085 0.821179 0.113270
H21   H     H_    0.447747 0.751950 0.178326 0.109142
H22   H     H_    0.685532 0.669297 0.821282 0.109766
H23   H     H_    0.947748 0.251950 0.178326 0.109142
H24   H     H_    0.185534 0.169295 0.821282 0.109767
H25   H     H_    0.388116 0.589299 0.495677 0.114698
H26   H     H_    0.393035 0.589227 0.337699 0.111104
H27   H     H_    0.888117 0.089299 0.495677 0.114704
H28   H     H_    0.893035 0.089227 0.337699 0.111106
H29   H     H_    0.394580 0.410519 0.338981 0.113041
H30   H     H_    0.389859 0.410473 0.496922 0.110626
H31   H     H_    0.894580 0.910519 0.338981 0.113044
H32   H     H_    0.889859 0.910474 0.496922 0.110626
H33   H     H_    0.490835 0.666155 0.175794 0.086178
H34   H     H_    0.571026 0.628891 0.822101 0.093829
H35   H     H_    0.990835 0.166155 0.175794 0.086176
H36   H     H_    0.071027 0.128890 0.822101 0.093831
H37   H     H_    0.470180 0.410920 0.259207 0.097352
H38   H     H_    0.430484 0.411943 0.667817 0.088091
H39   H     H_    0.970180 0.910920 0.259206 0.097355
H40   H     H_    0.930484 0.911943 0.667818 0.088091
H41   H     H_    0.213879 0.589212 0.750547 0.103111
H42   H     H_    0.756196 0.588288 0.331539 0.138273
H43   H     H_    0.713879 0.089212 0.750547 0.103106
H44   H     H_    0.256196 0.088289 0.331537 0.138268
H45   H     H_    0.469602 0.588993 0.258706 0.095178
H46   H     H_    0.430409 0.588042 0.667605 0.093810
H47   H     H_    0.969602 0.088993 0.258707 0.095179
H48   H     H_    0.930409 0.088042 0.667605 0.093813
H49   H     H_    0.208173 0.411590 0.733920 0.160294
H50   H     H_    0.767017 0.412738 0.333715 0.153733
H51   H     H_    0.708175 0.911590 0.733931 0.160320
H52   H     H_    0.267019 0.912739 0.333717 0.153724
H53   H     H_    0.315830 0.666389 0.824158 0.097227
H54   H     H_    0.748693 0.628846 0.177882 0.114179
H55   H     H_    0.815830 0.166389 0.824158 0.097220
H56   H     H_    0.248694 0.128846 0.177882 0.114190
H57   H     H_    0.490248 0.333827 0.175869 0.088103
H58   H     H_    0.570978 0.370958 0.822016 0.093838
H59   H     H_    0.990252 0.833826 0.175870 0.088108
H60   H     H_    0.070978 0.870958 0.822016 0.093838
N1    N     N_R   0.394180 0.396910 0.943210 -0.037097
N2    N     N_R   0.605820 0.396910 0.056790 -0.039953
N3    N     N_R   0.894180 0.896910 0.943210 -0.037093
N4    N     N_R   0.105820 0.896910 0.056790 -0.039950
N5    N     N_R   0.450950 0.603070 0.056740 -0.038016
N6    N     N_R   0.549050 0.603070 0.943260 -0.039463
N7    N     N_R   0.950950 0.103070 0.056740 -0.038012
N8    N     N_R   0.049050 0.103070 0.943260 -0.039465
N9    N     N_R   0.525650 0.471570 0.206150 -0.039794
N10   N     N_R   0.474350 0.471570 0.793850 -0.037295
N11   N     N_R   0.025650 0.971570 0.206150 -0.039796
N12   N     N_R   0.974350 0.971570 0.793850 -0.037296
N13   N     N_R   0.319480 0.528420 0.793810 -0.048822
N14   N     N_R   0.680520 0.528420 0.206190 -0.041675
N15   N     N_R   0.819480 0.028420 0.793810 -0.048821
N16   N     N_R   0.180520 0.028420 0.206190 -0.041675
N17   N     N_R   0.525640 0.528390 0.206120 -0.039594
N18   N     N_R   0.474360 0.528390 0.793880 -0.038441
N19   N     N_R   0.025640 0.028390 0.206120 -0.039597
N20   N     N_R   0.974360 0.028390 0.793880 -0.038442
N21   N     N_R   0.319490 0.471590 0.793840 -0.052191
N22   N     N_R   0.680510 0.471590 0.206160 -0.047923
N23   N     N_R   0.819490 0.971590 0.793840 -0.052214
N24   N     N_R   0.180510 0.971590 0.206160 -0.047918
N25   N     N_R   0.394130 0.603080 0.943110 -0.041543
N26   N     N_R   0.605870 0.603080 0.056890 -0.039265
N27   N     N_R   0.894130 0.103080 0.943110 -0.041537
N28   N     N_R   0.105870 0.103080 0.056890 -0.039267
N29   N     N_R   0.450990 0.396900 0.056840 -0.037772
N30   N     N_R   0.549010 0.396900 0.943160 -0.039089
N31   N     N_R   0.950990 0.896900 0.056840 -0.037763
N32   N     N_R   0.049010 0.896900 0.943160 -0.039086
Ni1   Ni    Ni4+2 0.434860 0.434850 0.869700 0.207648
Ni2   Ni    Ni4+2 0.565140 0.434850 0.130300 0.209698
Ni3   Ni    Ni4+2 0.934860 0.934850 0.869700 0.207652
Ni4   Ni    Ni4+2 0.065140 0.934850 0.130300 0.209702
Ni5   Ni    Ni4+2 0.565130 0.565140 0.130240 0.211193
Ni6   Ni    Ni4+2 0.434870 0.565140 0.869760 0.220934
Ni7   Ni    Ni4+2 0.065130 0.065140 0.130240 0.211193
Ni8   Ni    Ni4+2 0.934870 0.065140 0.869760 0.220943
O1    O     O_3   0.903608 0.653626 0.454580 -0.640365
C101  C     C_3   0.881938 0.662489 0.531911 0.305218
H61   H     H_    0.945185 0.655577 0.617844 0.082774
H62   H     H_    0.823021 0.634942 0.514031 0.096790
C102  C     C_3   0.849663 0.721940 0.522783 -0.931589
H63   H     H_    0.785622 0.730132 0.438163 0.258551
H64   H     H_    0.831985 0.729396 0.582700 0.208460
H65   H     H_    0.907240 0.750666 0.541011 0.256859
O2    O     O_3   0.109644 0.584663 0.520511 -0.633871
C103  C     C_3   0.091725 0.533165 0.466054 0.298564
H66   H     H_    0.023897 0.513035 0.439656 0.073788
H67   H     H_    0.150200 0.504197 0.522253 0.125664
C104  C     C_3   0.091684 0.541334 0.364594 -0.919276
H68   H     H_    0.160906 0.558667 0.388936 0.268513
H69   H     H_    0.080339 0.501087 0.322864 0.216569
H70   H     H_    0.033730 0.570110 0.306136 0.251425
O3    O     O_3   0.403622 0.153623 0.454547 -0.640370
C105  C     C_3   0.381960 0.162499 0.531882 0.305219
H71   H     H_    0.445208 0.155589 0.617814 0.082776
H72   H     H_    0.323040 0.134958 0.514013 0.096788
C106  C     C_3   0.349696 0.221953 0.522743 -0.931618
H73   H     H_    0.285660 0.230145 0.438122 0.258562
H74   H     H_    0.332015 0.229419 0.582654 0.208464
H75   H     H_    0.407279 0.250673 0.540970 0.256858
O4    O     O_3   0.609651 0.084645 0.520492 -0.633862
C107  C     C_3   0.591730 0.033142 0.466054 0.298538
H76   H     H_    0.523892 0.013021 0.439641 0.073793
H77   H     H_    0.650192 0.004172 0.522269 0.125660
C108  C     C_3   0.591717 0.041294 0.364611 -0.919269
H78   H     H_    0.660949 0.058618 0.388969 0.268520
H79   H     H_    0.580373 0.001042 0.322897 0.216565
H80   H     H_    0.533776 0.070070 0.306136 0.251435
O5    O     O_3   0.051551 0.410857 0.707819 -0.609142
C109  C     C_3   0.071591 0.419123 0.813313 0.274069
H81   H     H_    0.006523 0.431933 0.806985 0.074558
H82   H     H_    0.127841 0.450929 0.860222 0.093077
C110  C     C_3   0.107192 0.365212 0.877620 -0.852016
H83   H     H_    0.172224 0.351301 0.885626 0.254496
H84   H     H_    0.124258 0.371268 0.961330 0.205698
H85   H     H_    0.051716 0.332844 0.834251 0.258273
O6    O     O_3   0.863286 0.412207 0.534951 -0.608771
C111  C     C_3   0.793736 0.422934 0.554532 0.273560
H86   H     H_    0.746108 0.457621 0.502591 0.091609
H87   H     H_    0.827988 0.432912 0.643096 0.079329
C112  C     C_3   0.732465 0.371816 0.525861 -0.885171
H88   H     H_    0.777239 0.336348 0.577243 0.262895
H89   H     H_    0.677843 0.379705 0.541564 0.206259
H90   H     H_    0.696186 0.361407 0.437344 0.243592
O7    O     O_3   0.551561 0.910862 0.707813 -0.609165
C113  C     C_3   0.571429 0.919096 0.813231 0.274185
H91   H     H_    0.506234 0.931766 0.806745 0.074709
H92   H     H_    0.627502 0.950996 0.860164 0.092905
C114  C     C_3   0.607251 0.865220 0.877630 -0.852108
H93   H     H_    0.672502 0.851500 0.885943 0.254421
H94   H     H_    0.624033 0.871234 0.961222 0.205708
H95   H     H_    0.552020 0.832731 0.834147 0.258389
O8    O     O_3   0.363280 0.912213 0.534964 -0.608780
C115  C     C_3   0.293689 0.922952 0.554473 0.273487
H96   H     H_    0.246045 0.957617 0.502458 0.091681
H97   H     H_    0.327897 0.932970 0.643011 0.079221
C116  C     C_3   0.232451 0.871824 0.525861 -0.885179
H98   H     H_    0.277240 0.836381 0.577325 0.262890
H99   H     H_    0.177791 0.879725 0.541498 0.206263
H100  H     H_    0.196220 0.861372 0.437372 0.243610

loop_
_geom_bond_atom_site_label_1
_geom_bond_atom_site_label_2
_ccdc_geom_bond_type
C116  H98   S    
N8    N28   A    
C55   C59   A    
C73   H37   S    
O1    C101  S    
C6    C58   S    
C19   C23   A    
C19   C20   A    
N11   N19   A    
C2    N2    A    
C30   O2    S    
C8    C48   A    
C105  H71   S    
C26   O6    S    
C5    C57   S    
C66   C70   A    
C102  H63   S    
C65   C69   A    
C74   H38   S    
C45   N5    A    
O7    C113  S    
C33   C39   A    
C101  H62   S    
N10   N18   A    
C34   C40   A    
C56   H24   S    
N15   N23   A    
C35   C37   A    
O4    C107  S    
C38   C42   A    
C108  H80   S    
C86   H50   S    
C87   N23   A    
C114  H93   S    
C38   H14   S    
C44   C99   S    
C95   C99   A    
C104  H70   S    
C37   H13   S    
C94   C98   A    
C113  H92   S    
C96   C100  A    
C77   N13   A    
C70   H30   S    
C47   N7    A    
C12   C84   A    
C35   C59   A    
O8    C115  S    
C31   H7    S    
C41   C49   A    
C76   N12   A    
N31   Ni4   S    
C21   C25   A    
C108  H79   S    
N30   Ni1   S    
C27   O7    S    
C105  H72   S    
N29   Ni2   S    
C49   H17   S    
C20   C24   A    
C11   C67   S    
C80   H44   S    
C101  C102  S    
C48   N8    A    
C36   H12   S    
C51   H19   S    
C109  H82   S    
N26   Ni5   S    
N13   N21   A    
N22   Ni2   S    
C23   C27   A    
N25   Ni6   S    
C90   H54   S    
C18   C22   A    
N21   Ni1   S    
O5    C109  S    
C112  H90   S    
C67   C71   A    
C6    C46   A    
C3    N3    A    
C107  H77   S    
C47   H35   S    
N12   N20   A    
C113  C114  S    
C15   C23   S    
C54   H22   S    
C69   H29   S    
C25   O5    S    
C16   C24   S    
C87   H51   S    
C112  H88   S    
C30   H6    S    
N4    N32   A    
C37   C41   A    
C17   C30   S    
C88   H52   S    
N14   N22   A    
C61   C62   A    
C9    C73   A    
C63   H27   S    
C19   C32   S    
C61   C66   A    
C7    C59   S    
C82   H46   S    
C108  H78   S    
C52   C54   A    
C72   H32   S    
C32   H8    S    
C77   H41   S    
C10   C66   S    
C95   H59   S    
C13   C77   A    
C111  C112  S    
C29   O1    S    
C101  H61   S    
C28   O8    S    
N1    Ni1   S    
C64   C67   A    
C79   N15   A    
C78   N14   A    
C43   C100  S    
C14   C86   A    
O2    C103  S    
C93   N29   A    
C16   C88   A    
C42   C97   S    
C1    C97   A    
C111  H87   S    
C116  H99   S    
C53   C57   A    
C75   H39   S    
C39   C43   A    
C90   N26   A    
N28   Ni7   S    
C64   H28   S    
C113  H91   S    
N24   Ni4   S    
C5    C45   A    
C10   C82   A    
N5    N25   A    
C89   H53   S    
C63   C64   A    
N3    N31   A    
C16   C80   A    
C109  C110  S    
C7    C47   A    
C84   H48   S    
C115  H97   S    
C94   N30   A    
C91   H55   S    
C29   C30   S    
N20   Ni8   S    
N5    Ni5   S    
C46   H34   S    
C106  H73   S    
C12   C68   S    
C84   N20   A    
N23   Ni3   S    
C31   C32   S    
C86   N22   A    
N3    Ni3   S    
C68   C72   A    
N7    N27   A    
N2    Ni2   S    
C116  H100  S    
C4    N4    A    
C17   C18   A    
C13   C21   S    
N6    Ni6   S    
C92   H56   S    
C18   C29   S    
N6    N26   A    
C93   H57   S    
C80   N16   A    
C42   C50   A    
C8    C92   A    
C52   H20   S    
C103  H67   S    
N1    N29   A    
C96   H60   S    
C103  H66   S    
C1    H1    S    
C81   H45   S    
C110  H84   S    
C12   C76   A    
C22   C26   A    
C14   C22   S    
C34   H10   S    
C83   H47   S    
C9    C65   S    
C115  C116  S    
C33   H9    S    
C109  H81   S    
C76   H40   S    
C73   N9    A    
C103  C104  S    
C55   H23   S    
C93   C97   A    
C7    C91   A    
N2    N30   A    
C35   H11   S    
C105  C106  S    
C62   H26   S    
C54   C58   A    
C102  H65   S    
C3    H3    S    
N16   N24   A    
C91   N27   A    
C63   C68   A    
N14   Ni5   S    
C33   C57   A    
C95   N31   A    
C46   N6    A    
C62   C65   A    
C111  H86   S    
N13   Ni6   S    
C50   H18   S    
C89   N25   A    
C48   H36   S    
N7    Ni7   S    
N8    Ni8   S    
C24   C28   A    
N11   Ni4   S    
C36   C60   A    
C78   H42   S    
C44   C52   A    
N10   Ni1   S    
C61   H25   S    
N4    Ni4   S    
N9    Ni2   S    
C85   N21   A    
C15   C79   A    
C45   H33   S    
C106  H75   S    
C107  C108  S    
C39   H15   S    
C4    C100  A    
C83   N19   A    
N27   Ni8   S    
C11   C83   A    
C96   N32   A    
C114  H95   S    
C112  H89   S    
N32   Ni3   S    
C25   C26   A    
C104  H69   S    
C81   N17   A    
C71   C72   A    
C106  H74   S    
C11   C75   A    
C50   C56   A    
C8    C60   S    
C75   N11   A    
C10   C74   A    
C43   C51   A    
C15   C87   A    
C40   H16   S    
N19   Ni7   S    
O6    C111  S    
C104  H68   S    
C4    H4    S    
O3    C105  S    
C36   C38   A    
C56   C60   A    
C115  H96   S    
N9    N17   A    
N17   Ni5   S    
C14   C78   A    
C49   C55   A    
N18   Ni6   S    
C69   C70   A    
C85   H49   S    
N15   Ni8   S    
C74   N10   A    
C88   N24   A    
C1    N1    A    
C29   H5    S    
C3    C99   A    
C40   C44   A    
C6    C90   A    
C32   O4    S    
C2    C98   A    
C71   H31   S    
C94   H58   S    
C107  H76   S    
C114  H94   S    
C110  H85   S    
C13   C85   A    
C27   C28   A    
C34   C58   A    
C2    H2    S    
C41   C98   S    
N12   Ni3   S    
C53   H21   S    
N16   Ni7   S    
C51   C53   A    
C110  H83   S    
C102  H64   S    
C79   H43   S    
C82   N18   A    
C5    C89   A    
C92   N28   A    
C9    C81   A    
C31   O3    S    
C20   C31   S    
C17   C21   A    
