data_mof_unit_65269.cif
_audit_creation_date              2013-03-05T15:47:31-0500
_audit_creation_method            fapswitch 2.2
_symmetry_space_group_name_H-M    P1
_symmetry_Int_Tables_number       1
_space_group_crystal_system       triclinic
_cell_length_a                    10.225265
_cell_length_b                    10.847097
_cell_length_c                    13.632818
_cell_angle_alpha                 91.662475
_cell_angle_beta                  74.671384
_cell_angle_gamma                 95.048708
_cell_volume                      1452.60125671

loop_
_atom_site_label
_atom_site_type_symbol
_atom_site_description
_atom_site_fract_x
_atom_site_fract_y
_atom_site_fract_z
_atom_type_partial_charge
O1    O     O_R   0.430150 0.692610 0.508030 -0.582321
O2    O     O_R   0.569850 0.307390 0.491970 -0.578288
O3    O     O_R   0.653100 0.659360 0.482430 -0.626207
O4    O     O_R   0.346900 0.340640 0.517570 -0.625187
C1    C     C_R   0.556187 0.732279 0.495767 0.926528
C2    C     C_R   0.443152 0.267848 0.508702 0.927710
O5    O     O_R   0.372470 0.518990 0.654990 -0.569866
O6    O     O_R   0.627530 0.481010 0.345010 -0.570346
O7    O     O_R   0.595430 0.485740 0.629390 -0.622464
O8    O     O_R   0.404570 0.514260 0.370610 -0.622026
C3    C     C_R   0.476639 0.503481 0.688260 0.876209
C4    C     C_R   0.523360 0.496520 0.311742 0.883755
Zn1   Zn    Zn3+2 0.351130 0.522200 0.517090 1.047916
Zn2   Zn    Zn3+2 0.648870 0.477800 0.482910 1.048868
N1    N     N_2   0.847200 0.448220 0.460120 -0.012632
N2    N     N_2   0.152800 0.551780 0.539880 -0.013110
C5    C     C_1   0.540813 0.494011 0.206061 -0.123440
C6    C     C_1   0.459185 0.505991 0.793938 -0.119986
C7    C     C_2   0.556900 0.491850 0.012665 -0.145589
C8    C     C_2   0.443099 0.508152 0.987332 -0.146571
C9    C     C_2   0.927313 0.512374 0.505443 -0.023186
C10   C     C_2   0.074096 0.490217 0.491906 -0.027088
C11   C     C_1   0.447444 0.507629 0.882994 0.046599
C12   C     C_1   0.552554 0.492373 0.117004 0.046548
H1    H     H_    0.348136 0.521647 0.043971 0.184641
H2    H     H_    0.651863 0.478355 0.956025 0.185443
H3    H     H_    0.611970 0.105331 0.520676 0.216629
H4    H     H_    0.377748 0.896492 0.545707 0.226699
C13   C     C_2   0.586827 0.864001 0.500887 -0.344044
C14   C     C_2   0.409950 0.136557 0.520904 -0.341867
C15   C     C_2   0.483194 0.934927 0.527480 -0.129197
C16   C     C_2   0.508793 0.066443 0.525026 -0.127612
H5    H     H_    0.307053 0.097147 0.525209 0.170902
H6    H     H_    0.692057 0.902983 0.482383 0.173984
H7    H     H_    0.120037 0.422109 0.436823 0.172553
H8    H     H_    0.882921 0.583565 0.558020 0.170008
N3    N     N_R   0.093910 0.624547 0.623002 0.283197
O9    O     O_R   0.159918 0.727344 0.640077 -0.367267
O10   O     O_R   0.996595 0.575955 0.697159 -0.396395
N4    N     N_R   0.903954 0.368215 0.381720 0.282083
O11   O     O_R   0.838898 0.261510 0.373802 -0.359462
O12   O     O_R   0.997226 0.411297 0.302695 -0.396119

loop_
_geom_bond_atom_site_label_1
_geom_bond_atom_site_label_2
_geom_bond_distance
_ccdc_geom_bond_type
C4    C5    1.403905 S    
C14   C16   1.330741 D    
O7    Zn2   1.927471 S    
C3    C6    1.403847 S    
N3    O9    1.299469 A    
C15   C16   1.427286 S    
C8    C11   1.411190 S    
N1    C9    1.295921 D    
N2    N3    1.393094 S    
O6    C4    1.288393 A    
N4    O12   1.302360 A    
C7    C12   1.411204 S    
N3    O10   1.302604 A    
C9    H8    1.083370 S    
C9    C10   1.502988 S    
O5    C3    1.288409 A    
C10   H7    1.082941 S    
O7    C3    1.293572 A    
O2    C2    1.290741 A    
O3    Zn2   1.966228 S    
O8    C4    1.293547 A    
O1    C1    1.291000 A    
O4    C2    1.294226 A    
N4    O11   1.299624 A    
C2    C14   1.438703 S    
C1    C13   1.439261 S    
O2    Zn2   1.944867 S    
N1    N4    1.392534 S    
C5    C12   1.187784 T    
O1    Zn1   1.944867 S    
C8    H1    1.087464 S    
C6    C11   1.187766 T    
O5    Zn1   1.950672 S    
C13   C15   1.330571 D    
Zn1   N2    2.021827 S    
O4    Zn1   1.966229 S    
C7    H2    1.087469 S    
Zn2   N1    2.021826 S    
O6    Zn2   1.950672 S    
C14   H5    1.087595 S    
H3    C16   1.088367 S    
C13   H6    1.087573 S    
H4    C15   1.087816 S    
C7    C8    1.325454 D    
N2    C10   1.296021 D    
O3    C1    1.294228 A    
O8    Zn1   1.927469 S    
