data_mof_unit_48399.cif
_audit_creation_date              2012-12-11T17:44:00-0500
_audit_creation_method            fapswitch 2.2
_symmetry_space_group_name_H-M    P1
_symmetry_Int_Tables_number       1
_space_group_crystal_system       triclinic
_cell_length_a                    20.229573
_cell_length_b                    22.72728
_cell_length_c                    6.943516
_cell_angle_alpha                 90.00016
_cell_angle_beta                  86.82651
_cell_angle_gamma                 90.0
_cell_volume                      3187.47737487

loop_
_atom_site_label
_atom_site_type_symbol
_atom_type_description
_atom_site_fract_x
_atom_site_fract_y
_atom_site_fract_z
_atom_type_partial_charge
O1    O     O_R   0.751270 0.447300 0.600030 -0.541026
O2    O     O_R   0.248730 0.947300 0.399970 -0.541026
O3    O     O_R   0.613530 0.440160 0.952150 -0.537435
O4    O     O_R   0.386470 0.940160 0.047850 -0.537435
O5    O     O_R   0.613050 0.552700 0.122560 -0.535179
O6    O     O_R   0.386950 0.052700 0.877440 -0.535180
C1    C     C_R   0.591533 0.425404 0.786716 0.700104
C2    C     C_R   0.408467 0.925404 0.213284 0.700104
O7    O     O_R   0.750780 0.440350 0.929820 -0.544454
O8    O     O_R   0.249220 0.940350 0.070180 -0.544454
O9    O     O_R   0.751280 0.552900 0.100070 -0.542496
O10   O     O_R   0.248720 0.052900 0.899930 -0.542496
C3    C     C_R   0.773977 0.426176 0.757351 0.693798
C4    C     C_R   0.226023 0.926175 0.242648 0.693797
O11   O     O_R   0.613040 0.447100 0.622520 -0.534751
O12   O     O_R   0.386960 0.947100 0.377480 -0.534751
O13   O     O_3   0.682160 0.536920 0.777780 -0.366673
O14   O     O_3   0.317840 0.036920 0.222220 -0.366672
V1    V     V_3+5 0.682160 0.493150 0.052630 1.415128
V2    V     V_3+5 0.317840 0.993150 0.947370 1.415129
O15   O     O_R   0.750790 0.559840 0.429870 -0.542675
O16   O     O_R   0.249210 0.059840 0.570130 -0.542675
C5    C     C_R   0.773754 0.574214 0.257284 0.703556
C6    C     C_R   0.226246 0.074214 0.742716 0.703556
O17   O     O_R   0.613540 0.559650 0.452200 -0.536067
O18   O     O_R   0.386460 0.059650 0.547800 -0.536067
C7    C     C_R   0.591568 0.574397 0.287048 0.705553
C8    C     C_R   0.408432 0.074397 0.712952 0.705555
V3    V     V_3+5 0.682160 0.506850 0.552630 1.420412
V4    V     V_3+5 0.317840 0.006850 0.447370 1.420412
O19   O     O_3   0.682150 0.463080 0.277610 -0.368392
O20   O     O_3   0.317850 0.963080 0.722390 -0.368392
C9    C     C_R   0.580231 0.862687 0.218723 -0.136579
C10   C     C_R   0.419768 0.362687 0.781283 -0.136576
H1    H     H_    0.538672 0.949239 0.205189 0.110544
H2    H     H_    0.461327 0.449239 0.794815 0.110544
H3    H     H_    0.630077 0.880192 0.210350 0.152595
H4    H     H_    0.369922 0.380192 0.789660 0.152595
C11   C     C_R   0.463091 0.882441 0.215821 -0.038080
C12   C     C_R   0.536909 0.382441 0.784178 -0.038080
C13   C     C_R   0.472774 0.594958 0.327965 -0.236230
C14   C     C_R   0.527226 0.094958 0.672033 -0.236228
C15   C     C_R   0.419596 0.632723 0.361036 -0.084916
C16   C     C_R   0.580404 0.132722 0.638960 -0.084917
C17   C     C_R   0.427469 0.693740 0.350762 0.215739
C18   C     C_R   0.572531 0.193740 0.649234 0.215740
C19   C     C_R   0.490479 0.718493 0.288915 0.022329
C20   C     C_R   0.509521 0.218493 0.711084 0.022328
C21   C     C_R   0.545846 0.678951 0.270567 0.005552
C22   C     C_R   0.454154 0.178951 0.729434 0.005551
C23   C     C_R   0.501955 0.780318 0.253707 0.032397
C24   C     C_R   0.498045 0.280318 0.746293 0.032398
C25   C     C_R   0.568337 0.801641 0.234514 0.125330
C26   C     C_R   0.431662 0.301641 0.765490 0.125329
C27   C     C_R   0.622006 0.762031 0.228785 0.179849
C28   C     C_R   0.377993 0.262031 0.771220 0.179848
C29   C     C_R   0.610118 0.701594 0.240400 -0.216277
C30   C     C_R   0.389882 0.201594 0.759602 -0.216279
C31   C     C_R   0.450365 0.821788 0.228875 -0.215016
C32   C     C_R   0.549635 0.321788 0.771123 -0.215016
C33   C     C_R   0.528125 0.902539 0.214054 -0.189781
C34   C     C_R   0.471875 0.402540 0.785949 -0.189781
C35   C     C_R   0.536286 0.617125 0.289573 -0.069388
C36   C     C_R   0.463714 0.117125 0.710428 -0.069388
H5    H     H_    0.400134 0.808354 0.212895 0.108477
H6    H     H_    0.599867 0.308354 0.787103 0.108477
H7    H     H_    0.464873 0.547988 0.343773 0.119026
H8    H     H_    0.535128 0.047988 0.656223 0.119026
H9    H     H_    0.371810 0.614261 0.405816 0.139672
H10   H     H_    0.628190 0.114261 0.594177 0.139672
H11   H     H_    0.652238 0.672148 0.228936 0.105934
H12   H     H_    0.347761 0.172148 0.771068 0.105934
C37   C     C_R   0.170569 0.882933 0.261020 -0.048428
C38   C     C_R   0.829431 0.382934 0.738980 -0.048428
C39   C     C_R   0.144754 0.857390 0.096361 -0.217405
C40   C     C_R   0.855246 0.357391 0.903639 -0.217405
C41   C     C_R   0.091865 0.817546 0.113669 -0.141546
C42   C     C_R   0.908135 0.317546 0.886330 -0.141546
C43   C     C_R   0.063251 0.802214 0.297213 0.430172
C44   C     C_R   0.936749 0.302214 0.702787 0.430172
C45   C     C_R   0.089178 0.827593 0.460798 -0.182201
C46   C     C_R   0.910822 0.327593 0.539201 -0.182201
C47   C     C_R   0.142104 0.867337 0.443540 -0.195669
C48   C     C_R   0.857896 0.367337 0.556460 -0.195669
C49   C     C_R   0.900324 0.690823 0.377451 -0.160332
C50   C     C_R   0.099676 0.190823 0.622550 -0.160333
C51   C     C_R   0.848163 0.650345 0.397049 -0.215917
C52   C     C_R   0.151836 0.150345 0.602951 -0.215918
C53   C     C_R   0.935398 0.699358 0.197774 0.377335
C54   C     C_R   0.064601 0.199358 0.802226 0.377336
N1    N     N_2   0.008834 0.762219 0.324536 -0.303423
N2    N     N_2   0.991166 0.262219 0.675464 -0.303422
N3    N     N_2   0.989756 0.739632 0.173100 -0.313833
N4    N     N_2   0.010244 0.239632 0.826900 -0.313833
C55   C     C_R   0.828756 0.617819 0.237637 -0.110180
C56   C     C_R   0.171244 0.117819 0.762363 -0.110179
H13   H     H_    0.822774 0.644824 0.537341 0.156414
H14   H     H_    0.177226 0.144823 0.462659 0.156414
H15   H     H_    0.912928 0.715541 0.503335 0.182067
H16   H     H_    0.087072 0.215540 0.496665 0.182068
H17   H     H_    0.068088 0.816546 0.602985 0.119774
H18   H     H_    0.931912 0.316546 0.397015 0.119774
H19   H     H_    0.160434 0.886078 0.573667 0.133196
H20   H     H_    0.839566 0.386078 0.426333 0.133196
C57   C     C_R   0.862774 0.626944 0.058019 -0.193175
C58   C     C_R   0.137226 0.126944 0.941981 -0.193176
C59   C     C_R   0.915665 0.666852 0.036680 0.178943
C60   C     C_R   0.084335 0.166852 0.963320 0.178944
H21   H     H_    0.848871 0.602476 0.932560 0.147193
H22   H     H_    0.151129 0.102476 0.067441 0.147192
H23   H     H_    0.073469 0.799112 0.983229 0.131232
H24   H     H_    0.926530 0.299112 0.016770 0.131232
H25   H     H_    0.165259 0.868285 0.953453 0.133748
H26   H     H_    0.834741 0.368285 0.046546 0.133749
N5    N     N_3   0.948410 0.673005 0.848677 -0.685511
H27   H     H_    0.973832 0.633807 0.817385 0.232481
H28   H     H_    0.983617 0.706617 0.844635 0.250426
N6    N     N_3   0.051589 0.173005 0.151322 -0.685512
H29   H     H_    0.026169 0.133807 0.182616 0.232480
H30   H     H_    0.016382 0.206616 0.155363 0.250426
N7    N     N_3   0.688975 0.783313 0.205023 -0.672312
H31   H     H_    0.722818 0.749579 0.228064 0.237313
H32   H     H_    0.696915 0.796384 0.061229 0.229961
N8    N     N_3   0.311024 0.283314 0.794986 -0.672311
H33   H     H_    0.277181 0.249580 0.771940 0.237313
H34   H     H_    0.303084 0.296382 0.938784 0.229961
N9    N     N_3   0.373481 0.727415 0.435839 -0.689431
H35   H     H_    0.390223 0.763681 0.511778 0.241953
H36   H     H_    0.340536 0.738619 0.331150 0.226573
N10   N     N_3   0.626519 0.227415 0.564157 -0.689430
H37   H     H_    0.609777 0.263681 0.488220 0.241953
H38   H     H_    0.659464 0.238618 0.668847 0.226573

loop_
_geom_bond_atom_site_label_1
_geom_bond_atom_site_label_2
_ccdc_geom_bond_type
C52   C56   A    
C21   C35   A    
C54   N4    S    
C9    C25   A    
C22   C36   A    
O4    C2    A    
V1    O19   S    
C27   N7    S    
C21   C29   A    
C13   H7    S    
C45   H17   S    
C57   C59   A    
O9    V1    S    
C38   C40   A    
C12   C32   A    
C28   N8    S    
C40   C42   A    
O3    C1    A    
C6    C56   S    
C58   H22   S    
C42   C44   A    
O12   V4    S    
N5    H27   S    
C10   C34   A    
C12   C34   A    
C17   C19   A    
C41   H23   S    
O7    C3    A    
N6    H29   S    
C56   C58   A    
C24   C32   A    
O5    C7    A    
O7    V1    S    
O6    C8    A    
O8    V2    S    
N5    H28   S    
C51   C55   A    
C40   H26   S    
C1    C12   S    
O3    V1    S    
C39   H25   S    
C2    C11   S    
C28   C30   A    
C50   H16   S    
C43   N1    S    
C49   C51   A    
C32   H6    S    
C2    O12   A    
C14   H8    S    
C13   C15   A    
C53   C59   A    
C14   C16   A    
H2    C34   S    
O1    V3    S    
C45   C47   A    
C24   C26   A    
O11   V3    S    
C18   C20   A    
C25   C27   A    
O17   V3    S    
C11   C33   A    
C26   C28   A    
C50   C52   A    
C22   C30   A    
C4    C37   S    
C60   N6    S    
C44   C46   A    
C50   C54   A    
C43   C45   A    
C49   C53   A    
C19   C23   A    
C1    O11   A    
C16   C18   A    
O15   V3    S    
C9    H3    S    
C23   C25   A    
C44   N2    S    
N10   H38   S    
N9    H36   S    
C49   H15   S    
N1    N3    D    
C39   C41   A    
C11   C31   A    
O10   V2    S    
N2    N4    D    
C46   H18   S    
C41   C43   A    
H1    C33   S    
C29   H11   S    
C16   H10   S    
C20   C22   A    
C15   C17   A    
C59   N5    S    
N7    H31   S    
C47   H19   S    
O14   V4    S    
C8    C36   S    
C10   C26   A    
C46   C48   A    
O15   C5    A    
O8    C4    A    
O17   C7    A    
C48   H20   S    
O16   C6    A    
O1    C3    A    
C37   C39   A    
N9    H35   S    
C14   C36   A    
N8    H34   S    
V2    O20   S    
C57   H21   S    
O16   V4    S    
C10   H4    S    
C38   C48   A    
C18   N10   S    
O18   V4    S    
O5    V1    S    
C19   C21   A    
O6    V2    S    
O10   C6    A    
O18   C8    A    
O2    V4    S    
C27   C29   A    
N10   H37   S    
C54   C60   A    
V3    O19   S    
O13   V3    S    
C31   H5    S    
V4    O20   S    
C30   H12   S    
C58   C60   A    
C17   N9    S    
O9    C5    A    
O13   V1    S    
C5    C55   S    
O14   V2    S    
C53   N3    S    
O2    C4    A    
N6    H30   S    
N7    H32   S    
O4    V2    S    
C20   C24   A    
C23   C31   A    
C3    C38   S    
C9    C33   A    
C55   C57   A    
C13   C35   A    
C7    C35   S    
C42   H24   S    
C15   H9    S    
C37   C47   A    
C52   H14   S    
N8    H33   S    
C51   H13   S    
