data_mof_unit_5895.cif
_audit_creation_date              2012-10-26T19:56:44-0400
_audit_creation_method            fapswitch 2.2
_symmetry_space_group_name_H-M    P1
_symmetry_Int_Tables_number       1
_space_group_crystal_system       triclinic
_cell_length_a                    15.764911
_cell_length_b                    15.411178
_cell_length_c                    9.89527
_cell_angle_alpha                 90.0
_cell_angle_beta                  59.342844
_cell_angle_gamma                 90.000011
_cell_volume                      2068.0998875

loop_
_atom_site_label
_atom_site_type_symbol
_atom_type_description
_atom_site_fract_x
_atom_site_fract_y
_atom_site_fract_z
_atom_type_partial_charge
C1    C     C_R   0.369197 0.116324 0.563490 0.555617
C2    C     C_2   0.488642 0.995782 0.084891 0.630379
C3    C     C_2   0.011358 0.495783 0.915109 0.630379
C4    C     C_2   0.988642 0.495783 0.084891 0.630378
C5    C     C_2   0.307976 0.805238 0.593789 0.263302
C6    C     C_2   0.710334 0.178728 0.398264 0.265071
C7    C     C_2   0.692025 0.805239 0.406211 0.263303
C8    C     C_2   0.289666 0.178728 0.601737 0.265068
C9    C     C_2   0.807976 0.305238 0.593789 0.263302
C10   C     C_2   0.210334 0.678728 0.398264 0.265071
C11   C     C_2   0.192024 0.305239 0.406211 0.263304
C12   C     C_R   0.625281 0.878874 0.439110 0.549461
C13   C     C_2   0.789666 0.678728 0.601737 0.265067
C14   C     C_2   0.313596 0.759361 0.473581 0.388630
C15   C     C_2   0.741129 0.191973 0.501082 0.392442
C16   C     C_2   0.686405 0.759362 0.526420 0.388630
C17   C     C_2   0.258870 0.191973 0.498919 0.392440
C18   C     C_2   0.813596 0.259361 0.473581 0.388629
C19   C     C_2   0.241130 0.691973 0.501082 0.392443
C20   C     C_2   0.186405 0.259362 0.526420 0.388628
C21   C     C_2   0.758870 0.691973 0.498919 0.392442
C22   C     C_3   0.718853 0.980034 0.996329 0.009514
C23   C     C_R   0.630803 0.116324 0.436510 0.555615
C24   C     C_3   0.281147 0.980030 0.003668 0.009520
C25   C     C_3   0.218853 0.480033 0.996331 0.009517
C26   C     C_3   0.781147 0.480030 0.003667 0.009521
C27   C     C_3   0.818145 0.181665 0.133899 -0.077928
C28   C     C_3   0.271661 0.740562 0.824132 -0.055861
C29   C     C_3   0.181852 0.181666 0.866100 -0.077925
C30   C     C_3   0.728337 0.740562 0.175870 -0.055847
C31   C     C_3   0.318145 0.681666 0.133899 -0.077929
C32   C     C_3   0.771663 0.240561 0.824130 -0.055860
C33   C     C_3   0.681853 0.681667 0.866100 -0.077926
C34   C     C_R   0.374720 0.878873 0.560890 0.549463
C35   C     C_3   0.228334 0.240561 0.175872 -0.055850
C36   C     C_R   0.869197 0.616324 0.563490 0.555617
C37   C     C_R   0.125280 0.378874 0.439110 0.549460
C38   C     C_R   0.130803 0.616324 0.436510 0.555615
C39   C     C_R   0.874720 0.378874 0.560890 0.549463
C40   C     C_2   0.511358 0.995783 0.915109 0.630379
Cu1   Cu    Cu3+1 0.522650 0.000000 0.349410 1.125177
Cu2   Cu    Cu3+1 0.477350 0.000000 0.650590 1.125177
Cu3   Cu    Cu3+1 0.022650 0.500000 0.349410 1.125175
Cu4   Cu    Cu3+1 0.977350 0.500000 0.650590 1.125176
F1    F     F_    0.706050 0.142653 0.633201 -0.593528
F2    F     F_    0.605953 0.981629 0.798951 -0.555780
F3    F     F_    0.894047 0.481628 0.201048 -0.555778
F4    F     F_    0.105953 0.481629 0.798951 -0.555778
F5    F     F_    0.387289 0.774203 0.322955 -0.642339
F6    F     F_    0.293948 0.142653 0.366801 -0.593524
F7    F     F_    0.612712 0.774205 0.677046 -0.642341
F8    F     F_    0.206050 0.642653 0.633201 -0.593529
F9    F     F_    0.887288 0.274204 0.322954 -0.642339
F10   F     F_    0.793947 0.642652 0.366802 -0.593524
F11   F     F_    0.112713 0.274206 0.677047 -0.642342
F12   F     F_    0.394048 0.981627 0.201048 -0.555779
H1    H     H_    0.702193 0.910350 0.990658 0.148881
H2    H     H_    0.797810 0.410346 0.009328 0.148879
H3    H     H_    0.765565 0.491549 0.908006 0.134191
H4    H     H_    0.712921 0.495953 0.115729 0.135403
H5    H     H_    0.782299 0.139122 0.087360 0.112544
H6    H     H_    0.867443 0.142700 0.160643 0.131025
H7    H     H_    0.865826 0.228002 0.039658 0.170243
H8    H     H_    0.323276 0.779547 0.844426 0.105590
H9    H     H_    0.309054 0.680342 0.758502 0.160086
H10   H     H_    0.209632 0.720708 0.940719 0.201432
H11   H     H_    0.217695 0.139115 0.912634 0.112540
H12   H     H_    0.734433 0.991550 0.091993 0.134192
H13   H     H_    0.132550 0.142709 0.839356 0.131037
H14   H     H_    0.134177 0.228003 0.960344 0.170240
H15   H     H_    0.676738 0.779554 0.155548 0.105594
H16   H     H_    0.690925 0.680352 0.241514 0.160055
H17   H     H_    0.790366 0.720693 0.059297 0.201445
H18   H     H_    0.282298 0.639122 0.087361 0.112545
H19   H     H_    0.367443 0.642701 0.160642 0.131027
H20   H     H_    0.365824 0.728003 0.039658 0.170243
H21   H     H_    0.823278 0.279545 0.844425 0.105590
H22   H     H_    0.809057 0.180341 0.758498 0.160082
H23   H     H_    0.787079 0.995962 0.884270 0.135396
H24   H     H_    0.709636 0.220705 0.940717 0.201434
H25   H     H_    0.717697 0.639117 0.912633 0.112542
H26   H     H_    0.632551 0.642709 0.839358 0.131037
H27   H     H_    0.634178 0.728003 0.960345 0.170239
H28   H     H_    0.176731 0.279550 0.155559 0.105591
H29   H     H_    0.190928 0.180349 0.241513 0.160060
H30   H     H_    0.290361 0.220695 0.059296 0.201442
H31   H     H_    0.297810 0.910346 0.009331 0.148878
H32   H     H_    0.265566 0.991549 0.908006 0.134192
H33   H     H_    0.212921 0.995954 0.115729 0.135401
H34   H     H_    0.202192 0.410349 0.990665 0.148881
H35   H     H_    0.234434 0.491551 0.091994 0.134191
H36   H     H_    0.287079 0.495958 0.884271 0.135398
N1    N     N_2   0.443290 0.000000 0.876860 -0.060672
N2    N     N_2   0.556710 0.000000 0.123140 -0.060672
N3    N     N_2   0.943290 0.500000 0.876860 -0.060672
N4    N     N_2   0.056710 0.500000 0.123140 -0.060673
O1    O     O_R   0.422430 0.089640 0.419570 -0.417815
O2    O     O_R   0.615830 0.910350 0.326090 -0.558368
O3    O     O_R   0.615830 0.089650 0.326090 -0.513167
O4    O     O_R   0.384170 0.910350 0.673910 -0.558369
O5    O     O_R   0.884170 0.589650 0.673910 -0.513167
O6    O     O_R   0.115830 0.410350 0.326090 -0.558368
O7    O     O_R   0.115830 0.589650 0.326090 -0.513168
O8    O     O_R   0.884170 0.410350 0.673910 -0.558369
O9    O     O_3   0.642984 0.034623 0.011981 -0.483453
O10   O     O_3   0.357015 0.034620 0.988021 -0.483453
O11   O     O_3   0.142984 0.534621 0.011980 -0.483454
O12   O     O_R   0.577570 0.910360 0.580430 -0.410309
O13   O     O_3   0.857015 0.534620 0.988021 -0.483455
O14   O     O_3   0.746529 0.229400 0.264127 -0.551634
O15   O     O_3   0.233173 0.789542 0.747038 -0.558135
O16   O     O_3   0.253472 0.229400 0.735873 -0.551635
O17   O     O_3   0.766826 0.789541 0.252963 -0.558135
O18   O     O_3   0.246529 0.729401 0.264128 -0.551636
O19   O     O_3   0.733175 0.289541 0.747038 -0.558132
O20   O     O_3   0.753472 0.729400 0.735873 -0.551636
O21   O     O_3   0.266825 0.289540 0.252962 -0.558133
O22   O     O_R   0.577570 0.089640 0.580430 -0.417814
O23   O     O_R   0.422430 0.910360 0.419570 -0.410307
O24   O     O_R   0.922430 0.589640 0.419570 -0.417815
O25   O     O_R   0.077570 0.410360 0.580430 -0.410308
O26   O     O_R   0.077570 0.589640 0.580430 -0.417814
O27   O     O_R   0.922430 0.410360 0.419570 -0.410308
O28   O     O_R   0.384170 0.089650 0.673910 -0.513166

loop_
_geom_bond_atom_site_label_1
_geom_bond_atom_site_label_2
_ccdc_geom_bond_type
C15   C18   S    
C23   O3    A    
N2    O9    S    
C16   C21   S    
C1    C8    S    
Cu1   Cu2   S    
C3    F4    S    
C29   O16   S    
C16   F7    S    
C40   N1    D    
C24   H33   S    
C23   O22   A    
C30   H15   S    
Cu4   O8    S    
Cu2   O28   S    
C39   O8    A    
C40   F2    S    
C25   H34   S    
C22   H23   S    
C8    O16   S    
C21   F10   S    
C35   H30   S    
C14   F5    S    
Cu2   N1    S    
Cu4   O25   S    
C9    C39   S    
C17   C20   S    
C39   O27   A    
C11   C37   S    
C27   H5    S    
C18   F9    S    
C32   H21   S    
C29   H11   S    
C19   F8    S    
C27   O14   S    
C33   O20   S    
C34   O4    A    
Cu1   O3    S    
C33   H26   S    
C31   O18   S    
C12   O2    A    
C10   O18   S    
Cu3   O24   S    
C6    C15   D    
C4    N4    D    
C6    O14   S    
C22   H1    S    
C20   F11   S    
Cu2   O12   S    
C29   H13   S    
C28   O15   S    
C7    C12   S    
C11   C20   D    
C25   H35   S    
C9    O19   S    
C2    N2    D    
C13   C36   S    
N3    O13   S    
C1    O1    A    
C12   O12   A    
C30   H17   S    
Cu2   O22   S    
C31   H18   S    
C5    O15   S    
C36   O5    A    
C28   H10   S    
Cu3   Cu4   S    
C38   O7    A    
C27   H6    S    
Cu2   O4    S    
N1    O10   S    
C32   H24   S    
C26   H2    S    
C31   H19   S    
Cu1   N2    S    
C10   C19   D    
C35   H28   S    
C5    C34   S    
Cu3   N4    S    
C13   C21   D    
Cu1   O23   S    
C33   H27   S    
C26   O13   S    
C22   H12   S    
C5    C14   D    
C38   O26   A    
C27   H7    S    
C37   O25   A    
C28   H8    S    
C7    C16   D    
N4    O11   S    
Cu1   O1    S    
C35   O21   S    
C24   O10   S    
C15   F1    S    
C3    C4    S    
C11   O21   S    
Cu3   O27   S    
C25   O11   S    
C29   H14   S    
C26   H3    S    
C34   O23   A    
C25   H36   S    
C14   C19   S    
C24   H32   S    
C17   F6    S    
C30   H16   S    
Cu4   O5    S    
C22   O9    S    
C8    C17   D    
C10   C38   S    
C7    O17   S    
C28   H9    S    
C1    O28   A    
Cu4   N3    S    
C2    F12   S    
C35   H29   S    
C31   H20   S    
C37   O6    A    
C33   H25   S    
C6    C23   S    
Cu4   O26   S    
C32   O19   S    
C36   O24   A    
C24   H31   S    
Cu3   O7    S    
Cu3   O6    S    
C13   O20   S    
C32   H22   S    
C2    C40   S    
C9    C18   D    
Cu1   O2    S    
C3    N3    D    
C26   H4    S    
C4    F3    S    
C30   O17   S    
