data_mof_unit_54336.cif
_audit_creation_date              2012-12-11T17:34:26-0500
_audit_creation_method            fapswitch 2.2
_symmetry_space_group_name_H-M    P1
_symmetry_Int_Tables_number       1
_space_group_crystal_system       triclinic
_cell_length_a                    24.12165
_cell_length_b                    7.191153
_cell_length_c                    20.584589
_cell_angle_alpha                 89.827261
_cell_angle_beta                  105.190852
_cell_angle_gamma                 89.654725
_cell_volume                      3445.78760351

loop_
_atom_site_label
_atom_site_type_symbol
_atom_type_description
_atom_site_fract_x
_atom_site_fract_y
_atom_site_fract_z
_atom_type_partial_charge
O1    O     O_R   0.449110 0.494310 0.552140 -0.513122
O2    O     O_R   0.550890 0.994310 0.447860 -0.529215
O3    O     O_R   0.440010 0.824420 0.415850 -0.513181
O4    O     O_R   0.559990 0.324420 0.584150 -0.534693
C1    C     C_R   0.424984 0.656328 0.391064 0.768573
C2    C     C_R   0.574931 0.154226 0.608936 0.783305
O5    O     O_R   0.442260 0.824040 0.549660 -0.512490
O6    O     O_R   0.557740 0.324040 0.450340 -0.521303
O7    O     O_R   0.553160 0.993960 0.582620 -0.521095
O8    O     O_R   0.446840 0.493960 0.417380 -0.552458
C3    C     C_R   0.428410 0.655350 0.567507 0.827722
C4    C     C_R   0.572813 0.154059 0.434001 0.797868
O9    O     O_3   0.536380 0.660670 0.510660 -0.377515
O10   O     O_3   0.463620 0.160670 0.489340 -0.366951
V1    V     V_3+5 0.493250 0.935680 0.498020 1.679863
V2    V     V_3+5 0.506750 0.435680 0.501980 1.633623
C5    C     C_R   0.808290 0.929792 0.151466 -0.214029
C6    C     C_R   0.191689 0.421787 0.848723 -0.219552
H1    H     H_    0.779314 0.815953 0.152644 0.190223
H2    H     H_    0.220520 0.306180 0.847834 0.188757
C7    C     C_R   0.847431 0.916764 0.111134 0.371998
C8    C     C_R   0.152366 0.411113 0.888889 0.380250
C9    C     C_R   0.885987 0.064568 0.110088 -0.201795
C10   C     C_R   0.114016 0.561393 0.889678 -0.198527
C11   C     C_R   0.881905 0.227580 0.148389 0.293036
C12   C     C_R   0.118585 0.724205 0.851365 0.290625
C13   C     C_R   0.842064 0.237831 0.187618 0.371207
C14   C     C_R   0.158603 0.732157 0.812291 0.371447
C15   C     C_R   0.805753 0.088199 0.189765 -0.100017
C16   C     C_R   0.194690 0.580191 0.810350 -0.099089
C17   C     C_1   0.765740 0.097414 0.231506 0.167154
C18   C     C_1   0.235237 0.587591 0.769165 0.162516
C19   C     C_1   0.733177 0.109179 0.267245 0.240312
C20   C     C_1   0.268337 0.599404 0.734050 0.238554
C21   C     C_R   0.656766 0.973797 0.310927 0.375308
C22   C     C_R   0.351053 0.480162 0.697035 0.293242
C23   C     C_R   0.619852 0.979514 0.354170 0.287606
C24   C     C_R   0.388976 0.490178 0.654582 0.268576
C25   C     C_R   0.617448 0.139142 0.394460 -0.299047
C26   C     C_R   0.386372 0.643720 0.610172 -0.245859
C27   C     C_R   0.658290 0.281689 0.396061 0.295093
C28   C     C_R   0.342726 0.780158 0.606130 0.287225
C29   C     C_R   0.695682 0.273520 0.353528 0.340361
C30   C     C_R   0.303850 0.764812 0.646577 0.340797
C31   C     C_R   0.694275 0.121118 0.310460 -0.171901
C32   C     C_R   0.307922 0.614984 0.691706 -0.135360
C33   C     C_R   0.635893 0.088796 0.797393 0.407654
C34   C     C_R   0.356730 0.774906 0.209070 0.404416
C35   C     C_R   0.617515 0.139121 0.675957 -0.267125
C36   C     C_R   0.382169 0.656763 0.324099 -0.314518
C37   C     C_R   0.896531 0.016311 0.768866 0.293379
C38   C     C_R   0.104682 0.514920 0.230857 0.294359
C39   C     C_R   0.856409 0.978308 0.707892 -0.223550
C40   C     C_R   0.141250 0.546880 0.294647 -0.222504
C41   C     C_R   0.797760 0.991176 0.701551 0.470737
C42   C     C_R   0.197330 0.605523 0.302526 0.470993
C43   C     C_R   0.777063 0.065705 0.754580 -0.002711
C44   C     C_R   0.221144 0.612213 0.246403 -0.009189
C45   C     C_R   0.817288 0.089535 0.819267 -0.155892
C46   C     C_R   0.181746 0.613140 0.180321 -0.158086
C47   C     C_R   0.717011 0.102589 0.746663 -0.048671
C48   C     C_R   0.281681 0.638681 0.254304 -0.023106
C49   C     C_R   0.695966 0.100104 0.804710 -0.125283
C50   C     C_R   0.300023 0.707318 0.198906 -0.205093
C51   C     C_R   0.735351 0.116520 0.868829 0.439552
C52   C     C_R   0.262306 0.702898 0.134107 0.384552
C53   C     C_R   0.794585 0.135910 0.874105 0.222447
C54   C     C_R   0.203489 0.669433 0.125476 0.252805
C55   C     C_R   0.677884 0.150200 0.683616 0.366885
C56   C     C_R   0.324960 0.589649 0.314273 0.364905
C57   C     C_R   0.597420 0.095765 0.732432 0.236653
C58   C     C_R   0.396645 0.751081 0.271031 0.327341
C59   C     C_R   0.877945 0.059992 0.826341 -0.093130
C60   C     C_R   0.122586 0.559361 0.172916 -0.106328
H3    H     H_    0.870994 0.926752 0.665750 0.184518
H4    H     H_    0.124910 0.535244 0.338751 0.186054
O11   O     O_R   0.053190 0.709680 0.082610 -0.522935
O12   O     O_R   0.946810 0.209680 0.917390 -0.519476
O13   O     O_R   0.057740 0.380240 0.950340 -0.510647
O14   O     O_R   0.942260 0.880240 0.049660 -0.510812
C61   C     C_R   0.070766 0.549138 0.931187 0.825994
C62   C     C_R   0.929005 0.049860 0.068422 0.819143
O15   O     O_R   0.060000 0.379940 0.084150 -0.534849
O16   O     O_R   0.940000 0.879940 0.915850 -0.541851
O17   O     O_R   0.949110 0.210100 0.052140 -0.498955
O18   O     O_R   0.050890 0.710100 0.947860 -0.496430
C63   C     C_R   0.077146 0.548938 0.107387 0.853276
C64   C     C_R   0.923112 0.050000 0.892316 0.843892
O19   O     O_3   0.963630 0.543720 0.989330 -0.358899
O20   O     O_3   0.036370 0.043720 0.010670 -0.356429
V3    V     V_3+5 0.006750 0.268680 0.001980 1.739855
V4    V     V_3+5 0.993250 0.768680 0.998020 1.728343
O21   O     O_3   0.714821 0.131983 0.925338 -0.568849
H5    H     H_    0.745379 0.093753 0.965594 0.335960
O22   O     O_3   0.284322 0.727319 0.078954 -0.600316
H6    H     H_    0.260351 0.659112 0.039968 0.340153
O23   O     O_3   0.616155 0.063101 0.854105 -0.567290
H7    H     H_    0.575095 0.097923 0.844437 0.358612
O24   O     O_3   0.373631 0.876826 0.160763 -0.555001
H8    H     H_    0.342259 0.966276 0.140949 0.341366
O25   O     O_3   0.700109 0.218779 0.632837 -0.577362
H9    H     H_    0.668765 0.254648 0.593213 0.320572
O26   O     O_3   0.310963 0.464874 0.358680 -0.592267
H10   H     H_    0.344437 0.440187 0.397192 0.317597
O27   O     O_3   0.954625 0.000057 0.774520 -0.596371
H11   H     H_    0.960738 0.969286 0.729956 0.340957
O28   O     O_3   0.049378 0.453223 0.223941 -0.598297
H12   H     H_    0.043621 0.427220 0.269068 0.339197
Cl1   Cl    Cl    0.753724 0.871445 0.632211 -0.516337
Cl2   Cl    Cl    0.229395 0.714180 0.380213 -0.495620
Cl3   Cl    Cl    0.835440 0.252283 0.945773 -0.662185
Cl4   Cl    Cl    0.159536 0.748113 0.048349 -0.675400
O29   O     O_3   0.847349 0.762852 0.071096 -0.585891
H13   H     H_    0.817757 0.674204 0.077200 0.338483
O30   O     O_3   0.152159 0.257113 0.929122 -0.584108
H14   H     H_    0.181699 0.166782 0.923296 0.337628
Cl5   Cl    Cl    0.925915 0.424192 0.149955 -0.492859
Cl6   Cl    Cl    0.075048 0.923448 0.849883 -0.492467
Cl7   Cl    Cl    0.837540 0.440555 0.234756 -0.492195
Cl8   Cl    Cl    0.163698 0.935118 0.765246 -0.492702
O31   O     O_3   0.658290 0.823501 0.269473 -0.592907
H15   H     H_    0.629037 0.731033 0.273122 0.369008
O32   O     O_3   0.355646 0.341691 0.744963 -0.606895
H16   H     H_    0.395793 0.295465 0.758600 0.334696
O33   O     O_3   0.587225 0.825539 0.356961 -0.586823
H17   H     H_    0.602443 0.772726 0.402683 0.351662
O34   O     O_3   0.428879 0.351108 0.655935 -0.592085
H18   H     H_    0.411362 0.230805 0.662836 0.353385
Cl9   Cl    Cl    0.668188 0.461839 0.456203 -0.524280
Cl10  Cl    Cl    0.332917 0.965900 0.547475 -0.478485
Cl11  Cl    Cl    0.745189 0.454752 0.354813 -0.426898
Cl12  Cl    Cl    0.249735 0.935738 0.640950 -0.415303
Cl13  Cl    Cl    0.523510 0.048624 0.721449 -0.627250
Cl14  Cl    Cl    0.465851 0.843296 0.280311 -0.512156

loop_
_geom_bond_atom_site_label_1
_geom_bond_atom_site_label_2
_ccdc_geom_bond_type
C44   C48   A    
C52   C54   A    
C49   C51   A    
O11   V4    S    
O4    V2    S    
O21   H5    S    
C9    C62   S    
C13   C15   A    
C5    C15   A    
O15   C63   A    
O22   H6    S    
O1    C3    A    
O2    C4    A    
C2    O7    A    
O23   H7    S    
O17   V3    S    
O32   H16   S    
C25   C27   A    
O5    C3    A    
O25   H9    S    
C24   C26   A    
C10   C12   A    
C38   C60   A    
C33   C49   A    
C43   C45   A    
C44   C46   A    
O30   H14   S    
C19   C31   S    
C48   C56   A    
C54   Cl4   S    
C47   C49   A    
C36   C58   A    
C48   C50   A    
C45   C53   A    
C38   O28   S    
C30   C32   A    
C51   C53   A    
C7    O29   S    
O28   H12   S    
C17   C19   T    
C22   C32   A    
C20   C32   S    
C60   C63   S    
C16   C18   S    
C45   C59   A    
O13   V3    S    
C61   O18   A    
O6    C4    A    
C51   O21   S    
O6    V2    S    
C35   C55   A    
C41   Cl1   S    
C27   C29   A    
C39   H3    S    
C28   C30   A    
C34   C58   A    
C42   Cl2   S    
C38   C40   A    
C24   O34   S    
C23   O33   S    
C39   C41   A    
C7    C9    A    
C40   C42   A    
C37   C59   A    
C21   O31   S    
C22   O32   S    
O14   C62   A    
C14   Cl8   S    
O13   C61   A    
C56   O26   S    
O5    V1    S    
C5    C7    A    
C37   C39   A    
C18   C20   T    
O14   V4    S    
C10   C61   S    
C59   C64   S    
C58   Cl14  S    
O24   H8    S    
C37   O27   S    
C28   Cl10  S    
O1    V2    S    
O19   V4    S    
O2    V1    S    
C29   C31   A    
C33   C57   A    
O31   H15   S    
C29   Cl11  S    
C40   H4    S    
C53   Cl3   S    
C8    O30   S    
C55   O25   S    
C41   C43   A    
C6    C16   A    
C8    C10   A    
C1    C36   S    
O4    C2    A    
C11   C13   A    
O34   H18   S    
C21   C31   A    
O3    V1    S    
O29   H13   S    
O12   C64   A    
C34   O24   S    
C21   C23   A    
C6    C8    A    
O16   C64   A    
C26   C28   A    
O3    C1    A    
C11   Cl5   S    
C57   Cl13  S    
C43   C47   A    
C13   Cl7   S    
O12   V3    S    
C30   Cl12  S    
C62   O17   A    
C12   Cl6   S    
O27   H11   S    
C12   C14   A    
C33   O23   S    
C46   C54   A    
C47   C55   A    
C4    C25   S    
C14   C16   A    
C36   C56   A    
C1    O8    A    
C23   C25   A    
O8    V2    S    
C22   C24   A    
C27   Cl9   S    
O20   V3    S    
O33   H17   S    
O15   V3    S    
C46   C60   A    
C5    H1    S    
C42   C44   A    
C6    H2    S    
C9    C11   A    
C2    C35   S    
O7    V1    S    
C3    C26   S    
C34   C50   A    
O11   C63   A    
C15   C17   S    
C35   C57   A    
O9    V2    S    
O26   H10   S    
O10   V1    S    
O18   V4    S    
O16   V4    S    
C50   C52   A    
C52   O22   S    
