data_mof_unit_16149.cif
_audit_creation_date              2012-10-26T21:09:26-0400
_audit_creation_method            fapswitch 2.2
_symmetry_space_group_name_H-M    P1
_symmetry_Int_Tables_number       1
_space_group_crystal_system       triclinic
_cell_length_a                    15.981533
_cell_length_b                    14.769017
_cell_length_c                    11.713808
_cell_angle_alpha                 90.101664
_cell_angle_beta                  89.861815
_cell_angle_gamma                 89.840775
_cell_volume                      2764.80495182

loop_
_atom_site_label
_atom_site_type_symbol
_atom_type_description
_atom_site_fract_x
_atom_site_fract_y
_atom_site_fract_z
_atom_type_partial_charge
C1    C     C_R   0.340886 0.500183 0.500001 0.540992
C2    C     C_R   0.501035 0.047359 0.395183 0.245354
C3    C     C_R   0.507423 0.951382 0.396432 0.231389
C4    C     C_R   0.501385 0.047705 0.604049 0.249680
C5    C     C_1   0.500597 0.802585 0.499792 0.182685
C6    C     C_1   0.500449 0.197353 0.499887 0.156016
C7    C     C_1   0.499527 0.499984 0.162021 -0.030454
C8    C     C_1   0.499547 0.500313 0.837981 -0.031713
C9    C     C_1   0.499362 0.500163 0.059747 -0.055222
C10   C     C_1   0.499355 0.500336 0.940256 -0.056112
C11   C     C_R   0.955441 0.564789 0.567793 0.223620
C12   C     C_R   0.659070 0.499895 0.500276 0.545912
C13   C     C_R   0.044148 0.440636 0.430325 0.222624
C14   C     C_R   0.043210 0.563634 0.570113 0.223342
C15   C     C_R   0.956534 0.437548 0.434141 0.221848
C16   C     C_R   0.912517 0.500560 0.501469 -0.048656
C17   C     C_R   0.087218 0.502170 0.500264 -0.048780
C18   C     C_1   0.822939 0.499935 0.501445 0.010565
C19   C     C_1   0.176885 0.501821 0.500173 0.010404
C20   C     C_3   0.574515 0.141623 0.731758 0.014237
C21   C     C_3   0.658077 0.095901 0.697611 -0.296922
C22   C     C_3   0.732564 0.152590 0.736209 -0.481044
C23   C     C_1   0.251882 0.500897 0.500071 -0.017587
C24   C     C_3   0.454408 0.874054 0.242512 0.023677
C25   C     C_3   0.476048 0.788632 0.174610 -0.254139
C26   C     C_3   0.399197 0.749510 0.115403 -0.491031
C27   C     C_3   0.425545 0.139714 0.268599 0.011891
C28   C     C_3   0.343074 0.089842 0.296374 -0.292520
C29   C     C_3   0.267524 0.150146 0.272410 -0.473157
C30   C     C_3   0.550669 0.872867 0.754184 0.020810
C31   C     C_3   0.528661 0.788636 0.823480 -0.255320
C32   C     C_3   0.605953 0.747188 0.879212 -0.482905
C33   C     C_3   0.105205 0.591992 0.740977 0.024229
C34   C     C_1   0.747990 0.499730 0.500977 -0.016378
C35   C     C_3   0.159477 0.660019 0.805389 -0.248802
C36   C     C_3   0.188312 0.622420 0.919985 -0.497225
C37   C     C_3   0.900070 0.296720 0.426809 0.024305
C38   C     C_3   0.848430 0.232191 0.353320 -0.249099
C39   C     C_3   0.828345 0.144821 0.416984 -0.488610
C40   C     C_3   0.892857 0.703328 0.575651 0.027948
C41   C     C_3   0.831194 0.760711 0.645037 -0.256508
C42   C     C_3   0.806542 0.847015 0.581776 -0.489201
C43   C     C_3   0.101963 0.419504 0.255059 0.026437
C44   C     C_3   0.162077 0.359417 0.187181 -0.259463
C45   C     C_R   0.501365 0.902758 0.499714 -0.085893
C46   C     C_3   0.182846 0.400630 0.071285 -0.494976
C47   C     C_R   0.500930 0.097186 0.499648 -0.090845
C48   C     C_R   0.499822 0.499964 0.283434 0.548485
C49   C     C_R   0.499860 0.500094 0.716568 0.547777
C50   C     C_R   0.495761 0.951784 0.602985 0.234309
Cu1   Cu    Cu3+1 0.500000 0.589220 0.500000 0.967504
Cu2   Cu    Cu3+1 0.500000 0.410780 0.500000 0.977253
H1    H     H_    0.576311 0.153747 0.825344 0.162000
H2    H     H_    0.524207 0.805066 0.109332 0.171458
H3    H     H_    0.502548 0.736915 0.233042 0.202496
H4    H     H_    0.351845 0.728551 0.179635 0.154805
H5    H     H_    0.417717 0.689252 0.064371 0.155014
H6    H     H_    0.371090 0.800436 0.057192 0.145502
H7    H     H_    0.424742 0.155824 0.176009 0.159413
H8    H     H_    0.427313 0.206400 0.311648 0.151660
H9    H     H_    0.337824 0.027989 0.243380 0.147005
H10   H     H_    0.340592 0.070083 0.387744 0.155324
H11   H     H_    0.268951 0.210768 0.328602 0.165038
H12   H     H_    0.569752 0.209882 0.693367 0.153248
H13   H     H_    0.209043 0.112156 0.289960 0.155582
H14   H     H_    0.267287 0.171868 0.181659 0.143935
H15   H     H_    0.575539 0.924763 0.813662 0.159732
H16   H     H_    0.600281 0.854428 0.690854 0.105498
H17   H     H_    0.482621 0.807126 0.890860 0.171197
H18   H     H_    0.499421 0.737554 0.766616 0.201685
H19   H     H_    0.651250 0.724600 0.812903 0.153590
H20   H     H_    0.587265 0.687649 0.930989 0.158385
H21   H     H_    0.636520 0.797338 0.936147 0.147103
H22   H     H_    0.140703 0.527175 0.732790 0.122041
H23   H     H_    0.662998 0.028145 0.737316 0.147393
H24   H     H_    0.046871 0.579827 0.790878 0.160607
H25   H     H_    0.215457 0.676669 0.753001 0.185264
H26   H     H_    0.123187 0.723328 0.819982 0.174455
H27   H     H_    0.226025 0.674181 0.965401 0.150630
H28   H     H_    0.227835 0.561338 0.906474 0.150397
H29   H     H_    0.133531 0.604584 0.973916 0.144003
H30   H     H_    0.864826 0.310670 0.507277 0.122510
H31   H     H_    0.960752 0.263415 0.447907 0.161645
H32   H     H_    0.788853 0.265887 0.328732 0.186183
H33   H     H_    0.883831 0.215525 0.274184 0.174053
H34   H     H_    0.662038 0.087773 0.603468 0.147294
H35   H     H_    0.886906 0.109711 0.442590 0.143430
H36   H     H_    0.791885 0.099084 0.360699 0.163814
H37   H     H_    0.790362 0.159920 0.494149 0.151070
H38   H     H_    0.863446 0.687281 0.491739 0.123851
H39   H     H_    0.951006 0.743050 0.560854 0.164811
H40   H     H_    0.773888 0.720447 0.662380 0.173494
H41   H     H_    0.860033 0.779220 0.728099 0.172912
H42   H     H_    0.862702 0.888953 0.564262 0.147702
H43   H     H_    0.762301 0.887109 0.635016 0.135071
H44   H     H_    0.775333 0.830008 0.499886 0.160734
H45   H     H_    0.730534 0.220504 0.695631 0.151718
H46   H     H_    0.130647 0.488015 0.263428 0.118929
H47   H     H_    0.041919 0.425406 0.207503 0.165443
H48   H     H_    0.221054 0.351049 0.236142 0.171867
H49   H     H_    0.133488 0.291631 0.174412 0.173349
H50   H     H_    0.124918 0.411251 0.020757 0.145622
H51   H     H_    0.225005 0.354281 0.023285 0.153797
H52   H     H_    0.215245 0.466382 0.083090 0.148293
H53   H     H_    0.791687 0.118299 0.710803 0.144044
H54   H     H_    0.732060 0.160601 0.830514 0.155459
H55   H     H_    0.432458 0.926340 0.181546 0.163252
H56   H     H_    0.402828 0.857772 0.303618 0.110273
N1    N     N_1   0.500000 0.276710 0.500000 -0.205327
N2    N     N_1   0.500000 0.723290 0.500000 -0.199376
O1    O     O_R   0.380310 0.575320 0.500020 -0.488302
O2    O     O_3   0.527616 0.905744 0.296664 -0.535968
O3    O     O_3   0.500198 0.089353 0.289034 -0.538019
O4    O     O_3   0.476876 0.906672 0.703288 -0.531417
O5    O     O_3   0.085659 0.628205 0.632809 -0.553156
O6    O     O_3   0.913949 0.377320 0.365042 -0.553901
O7    O     O_3   0.911716 0.623972 0.637732 -0.554868
O8    O     O_3   0.087802 0.379682 0.362898 -0.554979
O9    O     O_R   0.619690 0.424680 0.499980 -0.492120
O10   O     O_R   0.619690 0.575320 0.499980 -0.491444
O11   O     O_R   0.380310 0.424680 0.500020 -0.489596
O12   O     O_R   0.500010 0.575340 0.337190 -0.501825
O13   O     O_R   0.499990 0.424660 0.662810 -0.488901
O14   O     O_R   0.499990 0.575340 0.662810 -0.502565
O15   O     O_R   0.500010 0.424660 0.337190 -0.488988
O16   O     O_3   0.500977 0.090077 0.710110 -0.535062

loop_
_geom_bond_atom_site_label_1
_geom_bond_atom_site_label_2
_ccdc_geom_bond_type
C29   H11   S    
C41   C42   S    
C35   C36   S    
C24   O2    S    
C43   H46   S    
C39   H35   S    
C13   O8    S    
C32   H20   S    
C37   O6    S    
C46   H50   S    
C42   H44   S    
Cu2   N1    S    
C28   C29   S    
C43   H47   S    
C27   H8    S    
C48   O12   A    
C38   C39   S    
C2    O3    S    
C5    N2    T    
C14   O5    S    
C49   O13   A    
C11   C16   A    
C17   C19   S    
C48   O15   A    
C12   O10   A    
C31   H18   S    
C41   H41   S    
C24   H56   S    
C9    C10   S    
C3    O2    S    
C30   H15   S    
C28   H9    S    
C40   O7    S    
C22   H45   S    
C21   C22   S    
Cu1   O14   S    
C14   C17   A    
C39   H36   S    
C44   C46   S    
C32   H19   S    
C33   O5    S    
C6    C47   S    
C38   H33   S    
C42   H43   S    
C24   C25   S    
C36   H28   S    
C32   H21   S    
C25   C26   S    
C22   H54   S    
C49   O14   A    
C46   H52   S    
C3    C45   A    
Cu1   Cu2   S    
C4    C50   A    
C50   O4    S    
C20   H12   S    
C19   C23   T    
C43   C44   S    
C20   O16   S    
C37   C38   S    
C12   O9    A    
C18   C34   T    
Cu2   O11   S    
C33   H24   S    
C31   C32   S    
C36   H29   S    
C44   H49   S    
Cu1   O10   S    
Cu2   O13   S    
C24   H55   S    
C25   H2    S    
C26   H6    S    
C29   H13   S    
C27   O3    S    
C16   C18   S    
C40   C41   S    
C1    C23   S    
Cu1   N2    S    
C13   C15   A    
C6    N1    T    
C37   H30   S    
C12   C34   S    
C11   O7    S    
C30   O4    S    
C7    C9    T    
C21   H34   S    
Cu1   O1    S    
C38   H32   S    
C42   H42   S    
C25   H3    S    
C20   H1    S    
C36   H27   S    
C26   H4    S    
Cu2   O15   S    
C4    O16   S    
C2    C47   A    
C22   H53   S    
C46   H51   S    
C21   H23   S    
C35   H26   S    
C13   C17   A    
C7    C48   S    
C2    C3    A    
C11   C14   A    
C27   H7    S    
C1    O1    A    
C44   H48   S    
C30   C31   S    
C5    C45   S    
C45   C50   A    
C33   C35   S    
C35   H25   S    
C40   H39   S    
C26   H5    S    
C1    O11   A    
C43   O8    S    
C29   H14   S    
Cu2   O9    S    
C33   H22   S    
C31   H17   S    
C41   H40   S    
C20   C21   S    
C8    C10   T    
C27   C28   S    
Cu1   O12   S    
C15   O6    S    
C37   H31   S    
C40   H38   S    
C8    C49   S    
C39   H37   S    
C30   H16   S    
C15   C16   A    
C4    C47   A    
C28   H10   S    
