data_mof_unit_59641.cif
_audit_creation_date              2012-12-11T16:04:57-0500
_audit_creation_method            fapswitch 2.2
_symmetry_space_group_name_H-M    P1
_symmetry_Int_Tables_number       1
_space_group_crystal_system       triclinic
_cell_length_a                    10.61994
_cell_length_b                    10.569095
_cell_length_c                    16.853678
_cell_angle_alpha                 98.348297
_cell_angle_beta                  98.527274
_cell_angle_gamma                 62.051062
_cell_volume                      1646.38345476

loop_
_atom_site_label
_atom_site_type_symbol
_atom_type_description
_atom_site_fract_x
_atom_site_fract_y
_atom_site_fract_z
_atom_type_partial_charge
C1    C     C_R   0.353948 0.777298 0.399252 0.572037
C2    C     C_3   0.636746 0.422863 0.231269 -0.154572
C3    C     C_3   0.742272 0.390062 0.307198 0.051763
C4    C     C_3   0.839449 0.241019 0.268898 -0.100090
C5    C     C_3   0.922043 0.308151 0.237725 -0.092016
C6    C     C_3   0.824336 0.457211 0.276462 -0.090293
C7    C     C_3   0.720301 0.489481 0.199429 -0.135775
C8    C     C_3   0.817994 0.340390 0.161422 0.047024
C9    C     C_3   0.373030 0.768857 0.199795 -0.125123
C10   C     C_3   0.255598 0.791323 0.251420 -0.123997
C11   C     C_3   0.334337 0.838498 0.324207 0.064853
C12   C     C_R   0.371092 0.347304 0.358671 0.573492
C13   C     C_3   0.452756 0.815011 0.273206 -0.136044
C14   C     C_3   0.366277 0.973957 0.253717 -0.116900
C15   C     C_3   0.248699 0.995568 0.306492 0.058444
C16   C     C_3   0.168691 0.949398 0.232984 -0.123058
C17   C     C_3   0.286741 0.926031 0.181638 0.031187
C18   C     C_3   0.481492 0.301732 0.798568 -0.127547
C19   C     C_3   0.412972 0.445478 0.759066 -0.156679
C20   C     C_3   0.380879 0.367281 0.680874 0.042480
C21   C     C_3   0.449634 0.224411 0.719379 -0.096362
C22   C     C_3   0.301596 0.261429 0.743714 -0.096385
C23   C     C_R   0.705860 0.416226 0.390228 0.570069
C24   C     C_3   0.232781 0.404764 0.704760 -0.090588
C25   C     C_3   0.264191 0.482085 0.784664 -0.120037
C26   C     C_3   0.333776 0.338592 0.822409 0.049450
C27   C     C_1   0.767348 0.367726 0.715667 -0.044448
C28   C     C_1   0.812214 0.330258 0.782483 -0.045155
C29   C     C_1   0.337873 0.813543 0.709525 -0.048261
C30   C     C_1   0.312988 0.839990 0.778420 -0.047881
C31   C     C_R   0.883182 0.313845 0.086985 0.533404
C32   C     C_R   0.319703 0.300305 0.119856 0.529868
C33   C     C_R   0.255290 0.962777 0.098919 0.562387
C34   C     C_R   0.356221 0.772890 0.626931 0.547714
C35   C     C_R   0.878032 0.302561 0.862353 0.543781
C36   C     C_R   0.311089 0.297664 0.894954 0.544199
C37   C     C_R   0.280258 0.884198 0.859097 0.554993
C38   C     C_R   0.409247 0.377930 0.601159 0.548116
C39   C     C_R   0.717486 0.410553 0.635723 0.534520
C40   C     C_1   0.344511 0.338025 0.274833 -0.060569
C41   C     C_1   0.332752 0.328025 0.203480 -0.063290
C42   C     C_3   0.735754 0.272791 0.191342 -0.131998
Cr1   Cr    Cr6+3 0.608340 0.611040 0.520430 1.027905
Cr2   Cr    Cr6+3 0.287650 0.601120 0.489350 1.036606
Cr3   Cr    Cr6+3 0.604040 0.287870 0.490280 1.040471
Cr4   Cr    Cr6+3 0.054020 0.052700 0.970850 1.016519
Cr5   Cr    Cr6+3 0.059230 0.375120 0.993390 1.024180
Cr6   Cr    Cr6+3 0.374950 0.061200 0.992340 1.018529
H1    H     H_    0.519037 0.469974 0.231635 0.099936
H2    H     H_    0.412795 0.047732 0.251933 0.138848
H3    H     H_    0.053962 0.999162 0.210859 0.121861
H4    H     H_    0.460379 0.520288 0.763247 0.096172
H5    H     H_    0.582342 0.260278 0.838940 0.125544
H6    H     H_    0.525582 0.118205 0.692135 0.145407
H7    H     H_    0.255068 0.185525 0.738823 0.125976
H8    H     H_    0.131513 0.446006 0.664721 0.156416
H9    H     H_    0.188722 0.586808 0.813547 0.138183
H10   H     H_    0.700079 0.197422 0.154579 0.134348
H11   H     H_    0.885704 0.141200 0.300192 0.148156
H12   H     H_    0.039667 0.262717 0.237108 0.129395
H13   H     H_    0.861298 0.532649 0.311944 0.142700
H14   H     H_    0.674872 0.589298 0.168255 0.124326
H15   H     H_    0.211061 0.714833 0.251168 0.133956
H16   H     H_    0.419347 0.679029 0.152800 0.125542
H17   H     H_    0.568973 0.760455 0.292604 0.126280
O1    O     O_R   0.751220 0.499230 0.435170 -0.496298
O2    O     O_R   0.297880 0.469080 0.560050 -0.481653
O3    O     O_R   0.489720 0.254590 0.564810 -0.502809
O4    O     O_R   0.725220 0.304230 0.585080 -0.488336
O5    O     O_3   0.500010 0.500010 0.500020 -0.332599
O6    O     O_R   0.171830 0.913880 0.057510 -0.513891
O7    O     O_R   0.940690 0.186050 0.054730 -0.525781
O8    O     O_R   0.920470 0.405720 0.075010 -0.513394
O9    O     O_R   0.196690 0.370460 0.084120 -0.496444
O10   O     O_R   0.412990 0.180750 0.091610 -0.528429
O11   O     O_R   0.366620 0.943130 0.065760 -0.498574
O12   O     O_R   0.477220 0.727600 0.436870 -0.517059
O13   O     O_R   0.160510 0.906330 0.879210 -0.505656
O14   O     O_R   0.930190 0.179050 0.889450 -0.496058
O15   O     O_R   0.909140 0.398170 0.896710 -0.504937
O16   O     O_R   0.186190 0.363460 0.918830 -0.496504
O17   O     O_R   0.401670 0.173200 0.913310 -0.515452
O18   O     O_R   0.356120 0.936130 0.900470 -0.489142
O19   O     O_3   0.162740 0.163010 0.985530 -0.274610
O20   O     O_R   0.258650 0.745120 0.411470 -0.509079
O21   O     O_R   0.297070 0.467240 0.395960 -0.487780
O22   O     O_R   0.488830 0.252610 0.387790 -0.506825
O23   O     O_R   0.724400 0.302390 0.420980 -0.481310
O24   O     O_R   0.752100 0.501210 0.612190 -0.485065
O25   O     O_R   0.478040 0.729440 0.600970 -0.509801
O26   O     O_R   0.259530 0.747110 0.588490 -0.503207
I1    I     I_    0.170381 0.159029 0.403653 -0.349274

loop_
_geom_bond_atom_site_label_1
_geom_bond_atom_site_label_2
_ccdc_geom_bond_type
C18   C21   S    
C1    O12   A    
Cr6   O11   S    
C3    C23   S    
C19   C20   S    
C1    C11   S    
C16   H3    S    
C3    C6    S    
C42   H10   S    
C32   O10   A    
C7    C8    S    
C13   H17   S    
Cr1   O24   S    
C25   H9    S    
C6    H13   S    
Cr3   O22   S    
C8    C42   S    
C32   O9    A    
C5    C6    S    
C31   O8    A    
C15   C16   S    
C9    H16   S    
C35   O15   A    
C18   C19   S    
C9    C13   S    
C34   O26   A    
C18   H5    S    
C15   I1    S    
C11   C15   S    
C19   H4    S    
C10   H15   S    
C2    C7    S    
C28   C35   S    
C36   O17   A    
C16   C17   S    
C18   C26   S    
C32   C41   S    
Cr2   O5    S    
C9    C10   S    
Cr4   O7    S    
C12   O22   A    
C21   C22   S    
Cr6   O10   S    
C17   C33   S    
Cr5   O15   S    
Cr2   O21   S    
C1    O20   A    
Cr1   O25   S    
C14   H2    S    
Cr3   O4    S    
C20   C24   S    
Cr3   O23   S    
C24   C25   S    
Cr5   O8    S    
C27   C39   S    
Cr4   O13   S    
C25   C26   S    
C29   C34   S    
Cr6   O19   S    
C30   C37   S    
C12   C40   S    
C34   O25   A    
C7    H14   S    
C29   C30   T    
C2    H1    S    
C20   C38   S    
C33   O11   A    
C36   O16   A    
Cr3   O3    S    
C39   O4    A    
Cr5   O19   S    
C20   C21   S    
Cr4   O6    S    
C6    C7    S    
Cr2   O26   S    
Cr4   O19   S    
C9    C17   S    
C31   O7    A    
C38   O3    A    
Cr1   O5    S    
C23   O23   A    
C22   C24   S    
Cr1   O12   S    
C3    C4    S    
C23   O1    A    
C26   C36   S    
C40   C41   T    
C5    H12   S    
Cr3   O5    S    
C8    C31   S    
Cr5   O9    S    
C4    C5    S    
C5    C8    S    
C22   H7    S    
C24   H8    S    
C37   O13   A    
Cr6   O18   S    
C12   O21   A    
C21   H6    S    
C2    C3    S    
C10   C16   S    
C11   C13   S    
Cr4   O14   S    
C4    C42   S    
C2    C42   S    
Cr1   O1    S    
C4    H11   S    
C35   O14   A    
Cr6   O17   S    
Cr5   O16   S    
C19   C25   S    
C10   C11   S    
C33   O6    A    
C38   O2    A    
C22   C26   S    
C27   C28   T    
C14   C15   S    
C37   O18   A    
Cr2   O2    S    
C13   C14   S    
C39   O24   A    
Cr2   O20   S    
C14   C17   S    
