data_mof_unit_23797.cif
_audit_creation_date              2012-12-11T15:12:46-0500
_audit_creation_method            fapswitch 2.2
_symmetry_space_group_name_H-M    P1
_symmetry_Int_Tables_number       1
_space_group_crystal_system       triclinic
_cell_length_a                    22.35578
_cell_length_b                    6.938642
_cell_length_c                    19.31165
_cell_angle_alpha                 89.972123
_cell_angle_beta                  99.176299
_cell_angle_gamma                 89.952845
_cell_volume                      2957.26077897

loop_
_atom_site_label
_atom_site_type_symbol
_atom_type_description
_atom_site_fract_x
_atom_site_fract_y
_atom_site_fract_z
_atom_type_partial_charge
O1    O     O_R   0.448420 0.506120 0.415750 -0.534269
O2    O     O_R   0.551580 0.006120 0.584250 -0.534377
O3    O     O_R   0.436490 0.174470 0.555610 -0.535039
O4    O     O_R   0.563510 0.674470 0.444390 -0.534794
C1    C     C_R   0.421202 0.344574 0.575881 0.716345
C2    C     C_R   0.578814 0.844523 0.424131 0.716363
O5    O     O_R   0.441310 0.176330 0.414520 -0.536687
O6    O     O_R   0.558690 0.676330 0.585480 -0.536612
O7    O     O_R   0.556430 0.007110 0.442150 -0.536628
O8    O     O_R   0.443570 0.507110 0.557850 -0.536565
C3    C     C_R   0.426934 0.345641 0.388196 0.688001
C4    C     C_R   0.573058 0.845441 0.611813 0.688078
O9    O     O_3   0.537770 0.339560 0.509230 -0.365181
O10   O     O_3   0.462230 0.839560 0.490770 -0.365304
V1    V     V_3+5 0.492990 0.064280 0.498290 1.416744
V2    V     V_3+5 0.507010 0.564280 0.501710 1.417224
C5    C     C_R   0.868847 0.911848 0.694689 -0.157855
C6    C     C_R   0.130867 0.398220 0.304937 -0.158280
H1    H     H_    0.956105 0.937680 0.758641 0.110751
H2    H     H_    0.043597 0.424217 0.241002 0.110751
H3    H     H_    0.787663 0.868206 0.579936 0.125489
H4    H     H_    0.211967 0.347167 0.419272 0.123249
H5    H     H_    0.888209 0.905652 0.646729 0.117991
H6    H     H_    0.111413 0.385681 0.352686 0.118345
C7    C     C_R   0.884431 0.937443 0.821265 -0.041089
C8    C     C_R   0.115460 0.436043 0.178763 -0.041049
C9    C     C_R   0.588524 0.864959 0.740601 -0.161876
C10   C     C_R   0.411583 0.372393 0.259589 -0.160875
C11   C     C_R   0.624483 0.889383 0.805658 -0.115507
C12   C     C_R   0.375618 0.399489 0.194674 -0.115649
C13   C     C_R   0.687148 0.907030 0.811174 -0.160510
C14   C     C_R   0.312878 0.414262 0.189127 -0.161684
C15   C     C_R   0.716051 0.895366 0.751284 0.079557
C16   C     C_R   0.283909 0.396386 0.248779 0.080035
C17   C     C_R   0.678677 0.871310 0.684295 0.070822
C18   C     C_R   0.321264 0.368541 0.315595 0.070583
C19   C     C_R   0.780647 0.908150 0.755622 0.075673
C20   C     C_R   0.219256 0.406318 0.244368 0.075260
C21   C     C_R   0.805906 0.899478 0.692639 0.138519
C22   C     C_R   0.193880 0.389633 0.307074 0.138757
C23   C     C_R   0.768410 0.876941 0.627896 -0.203209
C24   C     C_R   0.231332 0.362607 0.371604 -0.202005
C25   C     C_R   0.705931 0.863038 0.623661 -0.194854
C26   C     C_R   0.293898 0.352709 0.375960 -0.194915
C27   C     C_R   0.821392 0.926646 0.820059 -0.217428
C28   C     C_R   0.178567 0.429332 0.180086 -0.217826
C29   C     C_R   0.907654 0.930451 0.758362 -0.161407
C30   C     C_R   0.092108 0.420712 0.241406 -0.161451
C31   C     C_R   0.614607 0.857077 0.679500 -0.086240
C32   C     C_R   0.385418 0.358125 0.320491 -0.086506
H7    H     H_    0.805874 0.930024 0.870097 0.086861
H8    H     H_    0.194177 0.438847 0.130199 0.087149
H9    H     H_    0.539814 0.854909 0.737765 0.104275
H10   H     H_    0.460351 0.365149 0.262494 0.103683
H11   H     H_    0.711649 0.931267 0.863086 0.103758
H12   H     H_    0.288368 0.440776 0.137356 0.103695
H13   H     H_    0.603542 0.896504 0.852413 0.118387
H14   H     H_    0.396590 0.411011 0.148061 0.119613
H15   H     H_    0.679073 0.844959 0.572232 0.107972
H16   H     H_    0.320729 0.331281 0.427237 0.108833
C33   C     C_3   0.810562 0.762062 0.265634 0.195537
C34   C     C_3   0.190174 0.260519 0.735288 0.196687
C35   C     C_3   0.781600 0.112154 0.243277 0.083040
C36   C     C_3   0.218212 0.611486 0.756626 0.081750
C37   C     C_3   0.738389 0.089442 0.299343 0.244481
C38   C     C_3   0.261256 0.588436 0.700412 0.244439
H17   H     H_    0.777750 0.733558 0.367358 0.182334
H18   H     H_    0.223117 0.229989 0.633745 0.181176
H19   H     H_    0.826543 0.164736 0.270264 0.177647
H20   H     H_    0.173110 0.663168 0.729679 0.177497
H21   H     H_    0.701454 0.199150 0.287476 0.090232
H22   H     H_    0.297796 0.699584 0.711525 0.088454
C39   C     C_1   0.624529 0.854148 0.378758 -0.223690
C40   C     C_1   0.375581 0.354322 0.621372 -0.222464
C41   C     C_3   0.790382 0.914286 0.206963 0.044104
C42   C     C_3   0.209998 0.413998 0.793512 0.044640
C43   C     C_3   0.759141 0.730952 0.310359 -0.337547
C44   C     C_3   0.241727 0.229319 0.690751 -0.337720
C45   C     C_3   0.708520 0.885007 0.292670 0.021437
C46   C     C_3   0.291837 0.384972 0.707781 0.023387
C47   C     C_3   0.678169 0.857171 0.214619 0.281807
C48   C     C_3   0.322388 0.359301 0.785878 0.280798
C49   C     C_3   0.727672 0.848463 0.165206 0.225227
C50   C     C_3   0.272931 0.349864 0.835355 0.226126
C51   C     C_1   0.662458 0.866186 0.340346 -0.001718
C52   C     C_1   0.337778 0.366329 0.659942 -0.001011
C53   C     C_1   0.837105 0.930175 0.159806 -0.026311
C54   C     C_1   0.163237 0.429810 0.840631 -0.027159
C55   C     C_1   0.875244 0.940477 0.121503 -0.209366
C56   C     C_1   0.124981 0.440217 0.878784 -0.208776
H23   H     H_    0.712927 0.951160 0.121183 0.059563
H24   H     H_    0.287367 0.453197 0.879194 0.059719
H25   H     H_    0.819784 0.622367 0.240676 0.129956
H26   H     H_    0.181212 0.121152 0.760628 0.130183
H27   H     H_    0.739337 0.585685 0.298501 0.174842
H28   H     H_    0.262054 0.084863 0.703288 0.174984
H29   H     H_    0.649705 0.988398 0.200424 0.010563
H30   H     H_    0.350360 0.491569 0.799657 0.011664
O11   O     O_R   0.056480 0.288780 0.942210 -0.534695
O12   O     O_R   0.943520 0.788780 0.057790 -0.534796
O13   O     O_R   0.058700 0.616820 0.085490 -0.537372
O14   O     O_R   0.941300 0.116820 0.914510 -0.537309
C57   C     C_R   0.073248 0.447864 0.111778 0.694194
C58   C     C_R   0.926712 0.948097 0.888234 0.694283
O15   O     O_R   0.063520 0.618570 0.944410 -0.538839
O16   O     O_R   0.936480 0.118570 0.055590 -0.538887
O17   O     O_R   0.948420 0.787670 0.915740 -0.534841
O18   O     O_R   0.051580 0.287670 0.084260 -0.534927
C59   C     C_R   0.079003 0.449845 0.924037 0.725667
C60   C     C_R   0.921062 0.949914 0.076049 0.725562
O19   O     O_3   0.962260 0.453430 0.990800 -0.366860
O20   O     O_3   0.037740 0.953430 0.009200 -0.366817
V3    V     V_3+5 0.007000 0.728750 0.001710 1.419930
V4    V     V_3+5 0.993000 0.228750 0.998290 1.420099
O21   O     O_3   0.863986 0.822836 0.308612 -0.632022
H31   H     H_    0.880873 0.708508 0.335946 0.288457
O22   O     O_3   0.136659 0.319912 0.692067 -0.631653
H32   H     H_    0.120029 0.204915 0.665057 0.288614
O23   O     O_3   0.757382 0.250180 0.193133 -0.653617
H33   H     H_    0.791258 0.296222 0.169928 0.296016
O24   O     O_3   0.242314 0.750539 0.806333 -0.654722
H34   H     H_    0.208497 0.796190 0.829742 0.295292
O25   O     O_3   0.773096 0.114263 0.367340 -0.555812
C61   C     C_3   0.743191 0.233516 0.410492 0.079541
H35   H     H_    0.702727 0.159253 0.424206 0.129448
H36   H     H_    0.728936 0.372338 0.384338 0.105641
C62   C     C_3   0.786458 0.278357 0.478051 -0.284708
H37   H     H_    0.803060 0.141532 0.504208 0.199199
H38   H     H_    0.826106 0.359424 0.465109 0.196024
C63   C     C_3   0.755371 0.398072 0.528376 -0.824095
H39   H     H_    0.738927 0.536750 0.503475 0.225642
H40   H     H_    0.788097 0.429602 0.576588 0.239812
H41   H     H_    0.716475 0.317520 0.543455 0.237464
O26   O     O_3   0.226297 0.609975 0.632396 -0.555326
C64   C     C_3   0.255059 0.732463 0.589243 0.080481
H42   H     H_    0.298552 0.668778 0.579593 0.127349
H43   H     H_    0.263984 0.876378 0.613680 0.104810
C65   C     C_3   0.213665 0.759554 0.518979 -0.282448
H44   H     H_    0.201572 0.616507 0.495092 0.198753
H45   H     H_    0.171251 0.832683 0.527750 0.196649
C66   C     C_3   0.244318 0.879944 0.468466 -0.823368
H46   H     H_    0.256623 0.024234 0.491298 0.224878
H47   H     H_    0.212817 0.899251 0.418339 0.240265
H48   H     H_    0.285857 0.806233 0.457227 0.237022
O27   O     O_3   0.732126 0.655900 0.141099 -0.539136
C67   C     C_3   0.738750 0.645114 0.069509 0.131683
H49   H     H_    0.769551 0.522210 0.064110 0.138806
H50   H     H_    0.760285 0.774642 0.049955 0.076107
C68   C     C_3   0.677309 0.606706 0.024115 -0.315890
H51   H     H_    0.652193 0.495992 0.049578 0.216924
H52   H     H_    0.650289 0.741879 0.018875 0.161391
C69   C     C_3   0.684837 0.534972 0.951295 -0.840483
H53   H     H_    0.705507 0.388915 0.954959 0.231969
H54   H     H_    0.714305 0.634119 0.926861 0.230096
H55   H     H_    0.639866 0.527102 0.917417 0.238877
O28   O     O_3   0.269021 0.157307 0.859751 -0.539083
C70   C     C_3   0.262941 0.146797 0.931494 0.131553
H56   H     H_    0.233274 0.021552 0.937555 0.139481
H57   H     H_    0.240414 0.274887 0.950718 0.076506
C71   C     C_3   0.324877 0.113702 0.976586 -0.316469
H58   H     H_    0.350579 0.003702 0.951505 0.216385
H59   H     H_    0.350921 0.250646 0.980779 0.161953
C72   C     C_3   0.318358 0.044012 0.049980 -0.840563
H60   H     H_    0.298714 0.896671 0.047383 0.232129
H61   H     H_    0.288410 0.142273 0.074121 0.230601
H62   H     H_    0.363546 0.039942 0.083517 0.238621
O29   O     O_3   0.642631 0.685959 0.208454 -0.535148
C73   C     C_3   0.587888 0.709839 0.161069 0.138295
H63   H     H_    0.575025 0.567094 0.137254 0.129770
H64   H     H_    0.592695 0.808823 0.116776 0.083026
C74   C     C_3   0.537248 0.778168 0.200210 -0.326333
H65   H     H_    0.530487 0.669657 0.240613 0.197392
H66   H     H_    0.550117 0.916962 0.227150 0.186867
C75   C     C_3   0.477839 0.806456 0.150135 -0.852342
H67   H     H_    0.482756 0.922791 0.111909 0.226889
H68   H     H_    0.441521 0.847723 0.180383 0.245043
H69   H     H_    0.464433 0.671079 0.121182 0.224919
O30   O     O_3   0.358496 0.189053 0.792491 -0.535277
C76   C     C_3   0.413700 0.215734 0.838773 0.135883
H70   H     H_    0.427382 0.073997 0.863055 0.130332
H71   H     H_    0.409202 0.315848 0.882814 0.082586
C77   C     C_3   0.463368 0.284133 0.798184 -0.325817
H72   H     H_    0.469292 0.175953 0.757367 0.198510
H73   H     H_    0.449998 0.423257 0.771644 0.185882
C78   C     C_3   0.523583 0.311617 0.846804 -0.850599
H74   H     H_    0.519333 0.426085 0.885928 0.226273
H75   H     H_    0.558967 0.355159 0.815559 0.244878
H76   H     H_    0.537882 0.175201 0.874707 0.225931

loop_
_geom_bond_atom_site_label_1
_geom_bond_atom_site_label_2
_ccdc_geom_bond_type
C64   C65   S    
C12   C14   A    
C74   H65   S    
C35   C37   S    
O12   C60   A    
C70   H56   S    
C37   C45   S    
C9    C11   A    
O13   V3    S    
C72   H60   S    
H17   C43   S    
O2    C4    A    
C42   C50   S    
O11   V4    S    
O20   V4    S    
O30   C76   S    
O3    V1    S    
C64   H42   S    
C21   C23   A    
C69   H54   S    
C33   C41   S    
O5    C3    A    
C74   H66   S    
C5    H5    S    
C47   H29   S    
O16   V4    S    
C6    H6    S    
O15   V3    S    
O28   C70   S    
C72   H61   S    
C68   H52   S    
C44   C46   S    
C78   H75   S    
C27   H7    S    
C36   O24   S    
O11   C59   A    
C28   H8    S    
C5    C21   A    
O18   V4    S    
C1    C40   S    
C6    C22   A    
C75   H67   S    
O17   V3    S    
C34   O22   S    
C46   C52   S    
C14   C16   A    
C49   O27   S    
C10   C32   A    
C73   C74   S    
C38   H22   S    
C35   H19   S    
C33   C43   S    
O1    C3    A    
C17   C31   A    
C13   C15   A    
C57   O18   A    
C36   H20   S    
C17   C25   A    
C7    C29   A    
C8    C30   A    
C76   C77   S    
C73   H64   S    
O13   C57   A    
C38   O26   S    
C11   C13   A    
C48   H30   S    
C34   C42   S    
C24   C26   A    
C2    O7    A    
O20   V3    S    
C47   C49   S    
O27   C67   S    
C67   H50   S    
C43   C45   S    
H18   C44   S    
C74   C75   S    
O12   V3    S    
C71   C72   S    
O25   C61   S    
C72   H62   S    
C46   C48   S    
C66   H48   S    
C44   H28   S    
O29   C73   S    
C45   C47   S    
C10   H10   S    
C33   O21   S    
C78   H76   S    
C12   H14   S    
O5    V1    S    
C37   H21   S    
C55   C60   S    
C43   H27   S    
C15   C19   A    
C42   C54   S    
C77   C78   S    
C36   C38   S    
O4    V2    S    
C63   H40   S    
C62   H38   S    
C4    C31   S    
O14   V4    S    
C8    C57   S    
C67   C68   S    
C35   O23   S    
C69   H55   S    
O6    C4    A    
C48   O30   S    
C36   C42   S    
H1    C29   S    
O19   V3    S    
O1    V2    S    
C40   C52   T    
O14   C58   A    
O2    V1    S    
C47   O29   S    
C75   H69   S    
C39   C51   T    
O24   H34   S    
H2    C30   S    
C65   H45   S    
C61   C62   S    
H3    C23   S    
O4    C2    A    
C73   H63   S    
C11   H13   S    
C70   C71   S    
C48   C50   S    
C34   H26   S    
O9    V1    S    
C77   H72   S    
O10   V2    S    
C68   C69   S    
C63   H41   S    
C19   C27   A    
C62   H37   S    
C7    C27   A    
C45   C51   S    
C18   C32   A    
C2    C39   S    
C61   H36   S    
C67   H49   S    
O16   C60   A    
C41   C53   S    
C64   H43   S    
O15   C59   A    
C77   H73   S    
C16   C20   A    
C34   C44   S    
C23   C25   A    
C5    C29   A    
C54   C56   T    
O3    C1    A    
C65   C66   S    
C6    C30   A    
C70   H57   S    
O23   H33   S    
C9    H9    S    
C7    C58   S    
O26   C64   S    
C25   H15   S    
C38   C46   S    
O22   H32   S    
C71   H58   S    
C66   H47   S    
C63   H39   S    
O7    V1    S    
C62   C63   S    
C10   C12   A    
C19   C21   A    
C3    C32   S    
O8    V2    S    
C68   H51   S    
C20   C22   A    
C50   O28   S    
C41   C49   S    
C78   H74   S    
H4    C24   S    
C35   C41   S    
C26   H16   S    
C49   H23   S    
C22   C24   A    
C15   C17   A    
O19   V4    S    
C16   C18   A    
C37   O25   S    
C75   H68   S    
C20   C28   A    
C18   C26   A    
C65   H44   S    
C8    C28   A    
C76   H70   S    
C9    C31   A    
C1    O8    A    
C69   H53   S    
O6    V2    S    
O9    V2    S    
C53   C55   T    
O10   V1    S    
C50   H24   S    
C56   C59   S    
C13   H11   S    
C66   H46   S    
C33   H25   S    
C14   H12   S    
C58   O17   A    
O21   H31   S    
C71   H59   S    
C61   H35   S    
C76   H71   S    
