data_mof_unit_23941.cif
_audit_creation_date              2012-10-26T20:35:07-0400
_audit_creation_method            fapswitch 2.2
_symmetry_space_group_name_H-M    P1
_symmetry_Int_Tables_number       1
_space_group_crystal_system       triclinic
_cell_length_a                    8.733562
_cell_length_b                    17.718273
_cell_length_c                    16.449274
_cell_angle_alpha                 89.510947
_cell_angle_beta                  97.978062
_cell_angle_gamma                 90.121582
_cell_volume                      2520.69110738

loop_
_atom_site_label
_atom_site_type_symbol
_atom_type_description
_atom_site_fract_x
_atom_site_fract_y
_atom_site_fract_z
_atom_type_partial_charge
C1    C     C_R   0.504929 0.355361 0.500847 0.576200
C2    C     C_R   0.601507 0.544095 0.263507 0.072610
C3    C     C_R   0.397735 0.455630 0.822156 -0.139865
C4    C     C_R   0.602261 0.544409 0.177859 -0.141682
C5    C     C_R   0.502433 0.500698 0.873205 0.019842
C6    C     C_R   0.497641 0.499311 0.126801 0.019147
C7    C     C_1   0.500447 0.500197 0.962772 0.128888
C8    C     C_1   0.499374 0.499979 0.037213 0.128115
C9    C     C_R   0.203294 0.499817 0.479117 0.574880
C10   C     C_R   0.796705 0.500180 0.520883 0.572885
C11   C     C_2   0.037731 0.499992 0.467424 -0.116197
C12   C     C_R   0.495050 0.644638 0.499153 0.577550
C13   C     C_2   0.962269 0.500008 0.532575 -0.115171
C14   C     C_R   0.578545 0.844839 0.563978 -0.106060
C15   C     C_R   0.421164 0.155234 0.435874 -0.103238
C16   C     C_R   0.575409 0.766285 0.563273 -0.156846
C17   C     C_R   0.424195 0.233781 0.436731 -0.152719
C18   C     C_R   0.489990 0.727545 0.497829 -0.001456
C19   C     C_R   0.509875 0.272451 0.502147 0.004445
C20   C     C_R   0.403076 0.769117 0.433038 0.253593
C21   C     C_R   0.597102 0.230822 0.566797 0.227669
C22   C     C_R   0.408686 0.848042 0.434479 -0.070862
C23   C     C_1   0.499080 0.966163 0.499769 0.005100
C24   C     C_R   0.591811 0.151887 0.565106 -0.084465
C25   C     C_R   0.495944 0.885534 0.499396 -0.012539
C26   C     C_R   0.504247 0.114471 0.500236 -0.002243
C27   C     C_1   0.501157 0.033842 0.499752 0.006772
C28   C     C_R   0.607434 0.545650 0.835767 0.243431
C29   C     C_R   0.392900 0.454201 0.164244 0.238367
C30   C     C_R   0.602971 0.544337 0.749407 0.082714
C31   C     C_R   0.397094 0.455637 0.250585 0.079441
C32   C     C_R   0.398493 0.455917 0.736507 0.075010
Cu1   Cu    Cu3+1 0.499990 0.499980 0.580420 1.043157
Cu2   Cu    Cu3+1 0.500010 0.500020 0.419580 1.039472
H1    H     H_    0.977718 0.500229 0.404908 0.143161
H2    H     H_    0.783950 0.187414 0.739889 0.355115
H3    H     H_    0.344050 0.880685 0.385325 0.179728
H4    H     H_    0.656900 0.119129 0.613982 0.147499
H5    H     H_    0.914655 0.585759 0.002452 0.384968
H6    H     H_    0.266086 0.315403 0.008071 0.381971
H7    H     H_    0.682427 0.578886 0.720402 0.157949
H8    H     H_    0.317435 0.421191 0.279563 0.158008
H9    H     H_    0.317362 0.420643 0.698230 0.155826
H10   H     H_    0.682594 0.579384 0.301792 0.151002
H11   H     H_    0.022281 0.499772 0.595092 0.145888
H12   H     H_    0.641897 0.735611 0.613449 0.150484
H13   H     H_    0.357445 0.264510 0.386685 0.150603
H14   H     H_    0.315602 0.420224 0.848384 0.158323
H15   H     H_    0.684318 0.579866 0.151638 0.153733
H16   H     H_    0.645912 0.873810 0.614647 0.149386
H17   H     H_    0.353550 0.126319 0.385244 0.150353
H18   H     H_    0.094962 0.761229 0.258244 0.382017
N1    N     N_R   0.499960 0.499970 0.701210 -0.251352
N2    N     N_R   0.500040 0.500030 0.298790 -0.250498
O1    O     O_R   0.499990 0.391240 0.567930 -0.438971
O2    O     O_2   0.186483 0.664725 0.385808 -0.287798
O3    O     O_3   0.158630 0.789903 0.302094 -0.519300
O4    O     O_2   0.814769 0.334791 0.613835 -0.248034
O5    O     O_2   0.625190 0.309062 0.706983 -0.267770
O6    O     O_3   0.842074 0.210521 0.698406 -0.495148
O7    O     O_2   0.849521 0.641231 0.842466 -0.272564
O8    O     O_2   0.660454 0.662280 0.937250 -0.266462
O9    O     O_3   0.850255 0.549602 0.966966 -0.478339
O10   O     O_2   0.165909 0.350124 0.158576 -0.269217
O11   O     O_2   0.146818 0.445927 0.049024 -0.248372
O12   O     O_R   0.500010 0.608760 0.432070 -0.438604
O13   O     O_3   0.348777 0.338782 0.047173 -0.507113
O14   O     O_R   0.500000 0.391270 0.432120 -0.522826
O15   O     O_R   0.500000 0.608730 0.567880 -0.523746
O16   O     O_R   0.274830 0.499990 0.552240 -0.519811
O17   O     O_R   0.725170 0.500010 0.447760 -0.520318
O18   O     O_R   0.274840 0.500020 0.416420 -0.475023
O19   O     O_R   0.725160 0.499980 0.583580 -0.473716
O20   O     O_2   0.376038 0.692157 0.292478 -0.259442
S1    S     S_3+6 0.279801 0.725813 0.351935 0.027926
S2    S     S_3+6 0.720605 0.274166 0.647848 0.041655
S3    S     S_3+6 0.744466 0.603324 0.895397 0.021502
S4    S     S_3+6 0.255949 0.396494 0.104609 0.021381

loop_
_geom_bond_atom_site_label_1
_geom_bond_atom_site_label_2
_ccdc_geom_bond_type
Cu1   O1    S    
C2    H10   S    
C12   O15   A    
C31   H8    S    
O8    S3    D    
C9    O18   A    
Cu2   O12   S    
O4    S2    D    
C7    C8    T    
C21   S2    S    
C26   C27   S    
C19   C21   A    
C24   C26   A    
C10   O19   A    
C3    H14   S    
C1    O14   A    
C29   S4    S    
O7    S3    D    
C22   C25   A    
C24   H4    S    
C30   H7    S    
C15   H17   S    
Cu1   O15   S    
C10   O17   A    
C14   C25   A    
O2    S1    D    
O13   S4    S    
Cu1   N1    S    
C30   N1    A    
C1    C19   S    
O20   S1    D    
C9    O16   A    
C4    C6    A    
C2    N2    A    
C16   H12   S    
C5    C7    S    
C15   C26   A    
C6    C8    S    
C3    C5    A    
C22   H3    S    
C12   O12   A    
O6    S2    S    
C20   S1    S    
C2    C4    A    
C5    C28   A    
Cu1   Cu2   S    
C28   S3    S    
C9    C11   S    
Cu1   O16   S    
Cu1   O19   S    
C20   C22   A    
Cu2   N2    S    
C23   C27   T    
C14   C16   A    
Cu2   O14   S    
Cu2   O18   S    
C32   N1    A    
H6    O13   S    
O9    S3    S    
C15   C17   A    
O11   S4    D    
O10   S4    D    
C17   H13   S    
H2    O6    S    
C10   C13   S    
H5    O9    S    
C4    H15   S    
O3    S1    S    
C11   H1    S    
C1    O1    A    
C29   C31   A    
C13   H11   S    
C11   C13   D    
C14   H16   S    
O5    S2    D    
C28   C30   A    
C17   C19   A    
C32   H9    S    
C18   C20   A    
C23   C25   S    
C31   N2    A    
C3    C32   A    
H18   O3    S    
C6    C29   A    
C16   C18   A    
C21   C24   A    
C12   C18   S    
Cu2   O17   S    
