data_mof_unit_21197.cif
_audit_creation_date              2012-12-10T18:58:12-0500
_audit_creation_method            fapswitch 2.2
_symmetry_space_group_name_H-M    P1
_symmetry_Int_Tables_number       1
_space_group_crystal_system       triclinic
_cell_length_a                    11.026514
_cell_length_b                    10.839003
_cell_length_c                    9.658802
_cell_angle_alpha                 88.61628
_cell_angle_beta                  102.197903
_cell_angle_gamma                 92.733755
_cell_volume                      1126.9224423

loop_
_atom_site_label
_atom_site_type_symbol
_atom_type_description
_atom_site_fract_x
_atom_site_fract_y
_atom_site_fract_z
_atom_type_partial_charge
C1    C     C_R   0.505876 0.262921 0.502791 0.788136
C2    C     C_R   0.514614 0.129426 0.506562 -0.162744
C3    C     C_R   0.549480 0.069198 0.394480 -0.232908
C4    C     C_R   0.544471 0.940482 0.389184 -0.227918
C5    C     C_R   0.506211 0.870781 0.497135 -0.071311
C6    C     C_R   0.478382 0.930948 0.610799 0.044522
C7    C     C_3   0.544685 0.915257 0.759413 -0.548308
C8    C     C_3   0.548781 0.054954 0.768877 0.330741
C9    C     C_R   0.563815 0.589983 0.086164 0.083976
C10   C     C_R   0.417225 0.425374 0.057913 0.391366
C11   C     C_R   0.418378 0.424038 0.907516 0.421838
C12   C     C_R   0.263347 0.502072 0.442044 0.849512
C13   C     C_R   0.566738 0.588040 0.941413 0.085227
C14   C     C_3   0.703841 0.619428 0.973324 0.292519
C15   C     C_3   0.696941 0.627343 0.129074 -0.521179
C16   C     C_R   0.503580 0.737246 0.499199 0.781288
C17   C     C_R   0.737040 0.502839 0.557085 0.842292
C18   C     C_2   0.128296 0.498217 0.408161 -0.364266
C19   C     C_2   0.065384 0.534933 0.502168 -0.167300
C20   C     C_2   0.872184 0.518476 0.585556 -0.359209
C21   C     C_2   0.932514 0.506714 0.480634 -0.166089
C22   C     C_R   0.481237 0.058881 0.616615 0.142268
Cu1   Cu    Cu3+1 0.499990 0.499980 0.640670 1.010038
Cu2   Cu    Cu3+1 0.500010 0.500020 0.359330 0.969325
H1    H     H_    0.884269 0.472241 0.378286 0.174809
H2    H     H_    0.643478 0.100435 0.786946 0.071194
H3    H     H_    0.727607 0.708482 0.923362 0.048633
H4    H     H_    0.711119 0.723073 0.169968 0.147551
H5    H     H_    0.080126 0.457750 0.308638 0.161734
H6    H     H_    0.582829 0.121566 0.312473 0.148710
H7    H     H_    0.574002 0.895769 0.303635 0.165047
H8    H     H_    0.484295 0.863359 0.820871 0.223119
N1    N     N_R   0.500780 0.500930 0.148120 -0.213238
N2    N     N_R   0.500790 0.500890 0.852210 -0.215911
O1    O     O_R   0.500000 0.319640 0.618810 -0.513868
O2    O     O_R   0.500010 0.319680 0.381230 -0.584040
O3    O     O_R   0.320680 0.500000 0.575130 -0.569991
O4    O     O_R   0.320690 0.500040 0.337550 -0.519424
O5    O     O_R   0.499990 0.680320 0.618770 -0.593145
O6    O     O_R   0.500000 0.680360 0.381190 -0.583645
O7    O     O_R   0.679310 0.499960 0.662450 -0.531780
O8    O     O_R   0.679320 0.500000 0.424870 -0.592904
O9    O     O_3   0.317125 0.373521 0.107960 -0.582613
C23   C     C_3   0.319739 0.243790 0.118297 0.086670
H9    H     H_    0.409453 0.214170 0.178708 0.168404
H10   H     H_    0.301787 0.200124 0.013166 0.194539
C24   C     C_3   0.219779 0.195793 0.195553 -0.817449
H11   H     H_    0.126887 0.220775 0.134827 0.235924
H12   H     H_    0.221536 0.093729 0.207023 0.204261
H13   H     H_    0.235922 0.236475 0.302682 0.250668
O10   O     O_3   0.349011 0.335010 0.820502 -0.527052
C25   C     C_3   0.220940 0.357837 0.793948 0.085843
H14   H     H_    0.203414 0.454921 0.761733 0.137422
H15   H     H_    0.179996 0.339500 0.887350 0.157011
C26   C     C_3   0.152206 0.270290 0.679886 -0.748864
H16   H     H_    0.161996 0.173332 0.719131 0.236478
H17   H     H_    0.052025 0.290090 0.653245 0.201562
H18   H     H_    0.191027 0.280294 0.583039 0.251014
O11   O     O_3   0.773001 0.518650 0.949378 -0.525508
C27   C     C_3   0.901122 0.551454 0.988727 0.074239
H19   H     H_    0.926851 0.591369 0.096740 0.137476
H20   H     H_    0.928162 0.620240 0.912285 0.124145
C28   C     C_3   0.975025 0.436572 0.990401 -0.832442
H21   H     H_    0.955724 0.394807 0.883757 0.244216
H22   H     H_    0.075620 0.461734 0.022862 0.227575
H23   H     H_    0.949227 0.367780 0.067454 0.244058
H24   H     H_    0.750093 0.556820 0.197729 0.223425
H25   H     H_    0.112734 0.581794 0.597794 0.162415
H26   H     H_    0.922222 0.546202 0.689728 0.152258
H27   H     H_    0.638360 0.877972 0.769038 0.151186
O12   O     O_3   0.474262 0.097857 0.857718 -0.529698
C29   C     C_3   0.516745 0.055480 0.998605 0.097496
H28   H     H_    0.535581 0.137132 0.066858 0.129963
H29   H     H_    0.607085 0.008709 0.018579 0.112671
C30   C     C_3   0.416808 0.967800 0.040717 -0.876943
H30   H     H_    0.395243 0.995330 0.141791 0.227068
H31   H     H_    0.328990 0.968412 0.959289 0.269066
H32   H     H_    0.448879 0.871793 0.053259 0.218850

loop_
_geom_bond_atom_site_label_1
_geom_bond_atom_site_label_2
_ccdc_geom_bond_type
C26   H16   S    
C28   H22   S    
Cu2   O8    S    
O9    C23   S    
C7    H27   S    
C7    C8    S    
C24   H12   S    
C23   H9    S    
C14   O11   S    
Cu2   O2    S    
C27   C28   S    
C19   C21   S    
C18   C19   D    
C5    C6    A    
C6    C22   A    
C17   C20   S    
C8    H2    S    
C27   H20   S    
C1    C2    S    
C12   O3    A    
C9    C13   A    
C17   O8    A    
C5    C16   S    
C23   H10   S    
C2    C22   A    
C8    C22   S    
Cu1   Cu2   S    
C14   H3    S    
C23   C24   S    
C28   H23   S    
O11   C27   S    
C13   C14   S    
C9    N1    A    
C29   C30   S    
C25   H15   S    
C24   H13   S    
O10   C25   S    
C29   H29   S    
C29   H28   S    
Cu1   O3    S    
C27   H19   S    
C3    H6    S    
C30   H30   S    
Cu2   O4    S    
C24   H11   S    
Cu1   N2    S    
C15   H24   S    
C19   H25   S    
C18   H5    S    
C30   H31   S    
C16   O6    A    
Cu1   O1    S    
C26   H17   S    
C20   H26   S    
C3    C4    A    
C25   H14   S    
C1    O1    A    
C21   H1    S    
C8    O12   S    
C7    H8    S    
C10   O9    S    
C11   N2    A    
C4    C5    A    
C25   C26   S    
C6    C7    S    
Cu2   N1    S    
Cu1   O7    S    
C2    C3    A    
C9    C15   S    
O12   C29   S    
C15   H4    S    
Cu1   O5    S    
Cu2   O6    S    
C10   N1    A    
C12   O4    A    
C30   H32   S    
C17   O7    A    
C4    H7    S    
C11   O10   S    
C10   C11   A    
C16   O5    A    
C28   H21   S    
C13   N2    A    
C20   C21   D    
C26   H18   S    
C12   C18   S    
C14   C15   S    
C1    O2    A    
