data_mof_unit_23686.cif
_audit_creation_date              2012-12-10T17:45:34-0500
_audit_creation_method            fapswitch 2.2
_symmetry_space_group_name_H-M    P1
_symmetry_Int_Tables_number       1
_space_group_crystal_system       triclinic
_cell_length_a                    11.528897
_cell_length_b                    10.530241
_cell_length_c                    9.948002
_cell_angle_alpha                 88.027337
_cell_angle_beta                  90.473443
_cell_angle_gamma                 91.73681
_cell_volume                      1206.40623558

loop_
_atom_site_label
_atom_site_type_symbol
_atom_type_description
_atom_site_fract_x
_atom_site_fract_y
_atom_site_fract_z
_atom_type_partial_charge
C1    C     C_R   0.523576 0.263628 0.502427 0.933207
C2    C     C_R   0.492297 0.878718 0.495388 -0.152077
C3    C     C_R   0.317372 0.381211 0.144798 -0.150475
C4    C     C_R   0.282124 0.499559 0.499452 0.927587
C5    C     C_R   0.209723 0.364656 0.084271 -0.214557
C6    C     C_R   0.199719 0.382681 0.946408 -0.173815
C7    C     C_R   0.300815 0.395129 0.869639 0.215923
C8    C     C_R   0.405878 0.444308 0.929865 0.111217
C9    C     C_R   0.408869 0.442618 0.074214 0.176872
C10   C     C_R   0.588325 0.553993 0.070068 -0.036008
C11   C     C_R   0.588785 0.553056 0.927353 -0.065700
C12   C     C_R   0.527220 0.032301 0.871365 -0.180351
C13   C     C_R   0.492323 0.741296 0.498090 0.912495
C14   C     C_R   0.717908 0.500696 0.500419 0.907084
C15   C     C_1   0.161567 0.498700 0.498617 -0.135297
C16   C     C_1   0.059324 0.498388 0.499265 0.036699
C17   C     C_1   0.940628 0.498784 0.500582 0.043383
C18   C     C_1   0.838406 0.499635 0.501156 -0.112380
C19   C     C_R   0.572826 0.097453 0.758134 0.247654
C20   C     C_R   0.442028 0.937292 0.856907 -0.210437
C21   C     C_R   0.414637 0.893681 0.729318 0.224216
C22   C     C_R   0.477476 0.943331 0.616265 0.018112
C23   C     C_R   0.537723 0.059446 0.628418 -0.027836
C24   C     C_R   0.558828 0.131650 0.509103 -0.207912
C25   C     C_R   0.576530 0.069004 0.388925 0.366148
C26   C     C_R   0.543395 0.941914 0.383311 -0.301070
H1    H     H_    0.117387 0.356436 0.900053 0.193229
H2    H     H_    0.661178 0.597102 0.873107 0.155297
H3    H     H_    0.555492 0.057190 0.970520 0.226613
H4    H     H_    0.398190 0.896822 0.944895 0.175163
H5    H     H_    0.561744 0.891407 0.293207 0.201918
H6    H     H_    0.660369 0.598898 0.122319 0.149366
H7    H     H_    0.328012 0.342535 0.244804 0.204524
H8    H     H_    0.136247 0.328275 0.142445 0.192063
H9    H     H_    0.485754 0.168626 0.156446 0.321170
I1    I     I_    0.285759 0.236322 0.743631 -0.329048
I2    I     I_    0.712163 0.229487 0.791187 -0.219441
I3    I     I_    0.260723 0.779537 0.712748 -0.333066
N1    N     N_R   0.498930 0.498800 0.142780 -0.097188
N2    N     N_R   0.498900 0.498720 0.857170 -0.108119
O1    O     O_R   0.500000 0.316780 0.614690 -0.589510
O2    O     O_2   0.715329 0.044546 0.175729 -0.293382
O3    O     O_3   0.560410 0.217061 0.146910 -0.533394
O4    O     O_R   0.499990 0.316750 0.385360 -0.589512
O5    O     O_R   0.334450 0.500030 0.614670 -0.587990
O6    O     O_R   0.334440 0.500000 0.385330 -0.643635
O7    O     O_R   0.500010 0.683250 0.614640 -0.606553
O8    O     O_R   0.500000 0.683220 0.385310 -0.626616
O9    O     O_R   0.665560 0.500000 0.614670 -0.614470
O10   O     O_R   0.665550 0.499970 0.385330 -0.583665
O11   O     O_2   0.740174 0.238253 0.303430 -0.256740
S1    S     S_3+6 0.652986 0.142457 0.251767 0.042852
Zn1   Zn    Zn3+2 0.500010 0.500020 0.653130 0.997817
Zn2   Zn    Zn3+2 0.499990 0.499980 0.346870 0.999636

loop_
_geom_bond_atom_site_label_1
_geom_bond_atom_site_label_2
_ccdc_geom_bond_type
C2    C22   A    
C13   O8    A    
C19   C23   A    
C23   C24   A    
C20   H4    S    
C6    C7    A    
C3    C9    A    
O4    Zn2   S    
C12   H3    S    
H9    O3    S    
C7    I1    S    
C14   C18   S    
C1    O4    A    
C6    H1    S    
O7    Zn1   S    
C5    H8    S    
O6    Zn2   S    
C4    C15   S    
C17   C18   T    
C25   S1    S    
O5    Zn1   S    
C26   H5    S    
C2    C26   A    
C14   O10   A    
C21   C22   A    
C24   C25   A    
O8    Zn2   S    
O1    Zn1   S    
O10   Zn2   S    
C12   C20   A    
O9    Zn1   S    
C5    C6    A    
C11   H2    S    
C12   C19   A    
C1    O1    A    
C4    O5    A    
C11   N2    A    
O3    S1    S    
N1    Zn2   S    
C7    C8    A    
C10   C11   A    
C3    H7    S    
C15   C16   T    
C14   O9    A    
C10   H6    S    
C9    N1    A    
C8    N2    A    
C20   C21   A    
C1    C24   S    
N2    Zn1   S    
C13   O7    A    
C2    C13   S    
C22   C23   A    
C10   N1    A    
C4    O6    A    
C19   I2    S    
C25   C26   A    
C21   I3    S    
O11   S1    D    
C16   C17   S    
O2    S1    D    
C8    C9    A    
C3    C5    A    
