data_mof_unit_49275.cif
_audit_creation_date              2012-12-11T15:49:54-0500
_audit_creation_method            fapswitch 2.2
_symmetry_space_group_name_H-M    P1
_symmetry_Int_Tables_number       1
_space_group_crystal_system       triclinic
_cell_length_a                    8.245687
_cell_length_b                    19.030252
_cell_length_c                    27.006419
_cell_angle_alpha                 94.944189
_cell_angle_beta                  92.77667
_cell_angle_gamma                 85.526042
_cell_volume                      4205.43181349

loop_
_atom_site_label
_atom_site_type_symbol
_atom_type_description
_atom_site_fract_x
_atom_site_fract_y
_atom_site_fract_z
_atom_type_partial_charge
Ba1   Ba    Ba6+2 0.854000 0.466860 0.523710 1.659950
Ba2   Ba    Ba6+2 0.335820 0.533080 0.476290 1.656555
C1    C     C_3   0.771825 0.224548 0.695165 0.263182
C2    C     C_R   0.923001 0.570937 0.177482 0.575003
C3    C     C_2   0.761732 0.549474 0.271918 -0.070378
C4    C     C_3   0.208756 0.285814 0.656325 0.325641
C5    C     C_3   0.743979 0.571573 0.326457 -0.053987
C6    C     C_1   0.981495 0.489936 0.343187 0.023069
C7    C     C_2   0.020419 0.485732 0.295434 -0.119227
C8    C     C_2   0.902724 0.515147 0.256350 0.194996
C9    C     C_R   0.016797 0.503637 0.101775 -0.080110
C10   C     C_R   0.033841 0.442475 0.128122 -0.033390
C11   C     C_R   0.087615 0.378137 0.102821 -0.061152
C12   C     C_3   0.678310 0.288261 0.673698 0.303480
C13   C     C_R   0.961667 0.568216 0.126895 -0.024168
C14   C     C_2   0.850205 0.526947 0.360207 -0.298152
C15   C     C_2   0.339798 0.473998 0.639374 -0.252637
C16   C     C_3   0.224373 0.246236 0.703085 -0.303476
C17   C     C_R   0.131996 0.430465 0.972624 0.019435
C18   C     C_R   0.084526 0.560111 0.973891 0.020316
C19   C     C_R   0.126177 0.493648 0.947739 0.050217
C20   C     C_R   0.165600 0.365429 0.944151 -0.100569
C21   C     C_R   0.196793 0.362726 0.893744 -0.059789
C22   C     C_R   0.197202 0.424671 0.869213 -0.029075
C23   C     C_3   0.517406 0.631708 0.625569 0.291066
C24   C     C_R   0.162215 0.490318 0.896112 -0.080211
C25   C     C_R   0.162886 0.552584 0.871351 -0.034483
C26   C     C_R   0.201549 0.548469 0.820491 0.592900
C27   C     C_R   0.231017 0.422000 0.818180 0.590916
C28   C     C_3   0.185989 0.317243 0.418213 0.311806
C29   C     C_2   0.415065 0.441744 0.726437 -0.094211
C30   C     C_3   0.440186 0.424824 0.671360 -0.103182
C31   C     C_1   0.208173 0.510360 0.656409 0.030296
C32   C     C_2   0.167677 0.514167 0.703798 -0.085505
C33   C     C_2   0.278106 0.479567 0.742059 0.220277
C34   C     C_3   0.515941 0.647982 0.681661 -0.344400
C35   C     C_R   0.102668 0.434163 0.024666 0.020237
C36   C     C_R   0.053949 0.500260 0.050224 0.049771
C37   C     C_R   0.041350 0.563044 0.024758 0.020360
C38   C     C_R   0.120982 0.373935 0.052426 -0.099283
C39   C     C_R   0.945011 0.629193 0.100919 -0.061005
C40   C     C_3   0.180233 0.237741 0.406935 -0.395095
C41   C     C_R   0.088453 0.621623 0.948031 -0.099544
C42   C     C_R   0.126856 0.617821 0.898113 -0.058975
C43   C     C_R   0.984008 0.626828 0.051213 -0.102110
C44   C     C_R   0.398089 0.298575 0.521992 -0.281456
C45   C     C_3   0.068081 0.685014 0.339026 0.337268
C46   C     C_R   0.536651 0.276076 0.495981 0.079940
C47   C     C_R   0.586897 0.203895 0.490054 -0.118237
C48   C     C_R   0.496281 0.153525 0.509522 -0.014564
C49   C     C_R   0.351780 0.177197 0.533898 -0.141267
C50   C     C_R   0.301875 0.249494 0.539011 -0.001581
C51   C     C_R   0.531865 0.032817 0.541509 -0.080736
C52   C     C_3   0.007142 0.682035 0.580644 0.313398
C53   C     C_R   0.584186 0.961043 0.536224 -0.079378
C54   C     C_R   0.653178 0.930508 0.491997 0.061513
C55   C     C_R   0.670925 0.974216 0.453501 -0.078426
C56   C     C_3   0.085834 0.705149 0.286382 -0.311438
C57   C     C_R   0.620124 0.046402 0.459047 -0.077141
C58   C     C_R   0.549796 0.076655 0.503181 0.063309
C59   C     C_R   0.845212 0.826993 0.461276 -0.134921
C60   C     C_R   0.891751 0.754134 0.457662 0.016895
C61   C     C_R   0.658817 0.732873 0.503635 0.038610
C62   C     C_R   0.610510 0.805004 0.507275 -0.118908
C63   C     C_R   0.702578 0.853205 0.485985 -0.010611
C64   C     C_3   0.995519 0.761721 0.593110 -0.384862
C65   C     C_R   0.794442 0.707504 0.477038 -0.285606
C66   C     C_3   0.673336 0.381503 0.375616 0.338440
C67   C     C_3   0.528478 0.723311 0.361471 0.359498
C68   C     C_3   0.648844 0.368314 0.319280 0.288538
C69   C     C_3   0.427000 0.305480 0.291115 0.234074
C70   C     C_3   0.648394 0.125261 0.660468 0.153534
C71   C     C_3   0.487639 0.795731 0.342378 -0.366464
C72   C     C_R   0.996579 0.446817 0.179184 0.600373
H1    H     H_    0.639656 0.273698 0.634329 -0.021796
H2    H     H_    0.803261 0.388050 0.384831 -0.071433
H3    H     H_    0.599673 0.430742 0.387926 0.065694
H4    H     H_    0.873746 0.203699 0.671228 0.061903
H5    H     H_    0.716054 0.317415 0.306119 0.003537
H6    H     H_    0.705031 0.410293 0.301561 -0.001290
H7    H     H_    0.569915 0.301547 0.696415 -0.014664
H8    H     H_    0.392933 0.619840 0.611779 0.014687
H9    H     H_    0.602980 0.584581 0.617498 0.080818
H10   H     H_    0.428277 0.693975 0.691030 0.132288
H11   H     H_    0.478915 0.601552 0.699388 0.081582
H12   H     H_    0.248829 0.219769 0.373215 0.107201
H13   H     H_    0.639456 0.660222 0.696512 0.133443
H14   H     H_    0.827393 0.242503 0.731900 0.072030
H15   H     H_    0.331399 0.262507 0.726466 0.143525
H16   H     H_    0.146063 0.635588 0.344048 0.091700
H17   H     H_    0.938854 0.675782 0.343631 -0.050810
H18   H     H_    0.199677 0.731669 0.283521 0.145052
H19   H     H_    0.091788 0.656669 0.260549 0.124199
H20   H     H_    0.980827 0.741443 0.275308 0.118358
H21   H     H_    0.663124 0.712967 0.361538 -0.066331
H22   H     H_    0.487581 0.724986 0.400199 0.075881
H23   H     H_    0.235193 0.209440 0.438438 0.067125
H24   H     H_    0.554173 0.835942 0.365766 0.067738
H25   H     H_    0.355163 0.810589 0.344110 0.149958
H26   H     H_    0.178694 0.342853 0.666903 0.056748
H27   H     H_    0.524445 0.795245 0.303326 0.118398
H28   H     H_    0.138378 0.461649 0.284519 0.145892
H29   H     H_    0.103937 0.330187 0.121984 0.116856
H30   H     H_    0.498124 0.416269 0.752983 0.095913
H31   H     H_    0.221489 0.311294 0.873956 0.121762
H32   H     H_    0.165660 0.315030 0.959455 0.069698
H33   H     H_    0.164008 0.322427 0.036527 0.068202
H34   H     H_    0.051856 0.224181 0.400569 0.125282
H35   H     H_    0.671057 0.570086 0.245361 0.114623
H36   H     H_    0.901337 0.679666 0.119060 0.120537
H37   H     H_    0.065478 0.674208 0.965547 0.069115
H38   H     H_    0.328621 0.278329 0.638649 -0.086723
H39   H     H_    0.128092 0.666771 0.880444 0.122383
H40   H     H_    0.053605 0.541895 0.715080 0.115318
H41   H     H_    0.964248 0.676163 0.034332 0.068838
H42   H     H_    0.834322 0.537355 0.399879 0.084438
H43   H     H_    0.365916 0.470770 0.600214 0.076640
H44   H     H_    0.502637 0.823224 0.527350 0.076327
H45   H     H_    0.884889 0.664680 0.570074 0.000439
H46   H     H_    0.571706 0.929614 0.567184 0.060542
H47   H     H_    0.478973 0.054120 0.576001 0.044318
H48   H     H_    0.695668 0.187317 0.469962 0.076875
H49   H     H_    0.721124 0.952357 0.418677 0.061805
H50   H     H_    0.113800 0.258155 0.724978 0.127300
H51   H     H_    0.632965 0.078197 0.428304 0.056667
H52   H     H_    0.922887 0.862948 0.446730 0.076049
H53   H     H_    0.275414 0.139730 0.547277 0.072962
H54   H     H_    0.831549 0.651546 0.474843 0.062207
H55   H     H_    0.358423 0.354258 0.525726 0.062325
H56   H     H_    0.088557 0.669118 0.549119 0.069821
H57   H     H_    0.240909 0.188379 0.692968 0.106619
H58   H     H_    0.313886 0.329946 0.424825 0.008077
H59   H     H_    0.115619 0.333591 0.451859 0.059078
H60   H     H_    0.452474 0.268968 0.321013 0.032999
H61   H     H_    0.484002 0.282893 0.256189 0.015687
H62   H     H_    0.293265 0.310801 0.283723 0.091841
H63   H     H_    0.765859 0.094559 0.652394 0.045240
H64   H     H_    0.601481 0.153277 0.627652 0.017414
H65   H     H_    0.558912 0.087040 0.667471 0.075448
H66   H     H_    0.908865 0.776277 0.623186 0.130328
H67   H     H_    0.952389 0.789402 0.560009 0.062941
H68   H     H_    0.117221 0.779389 0.605587 0.125972
N1    N     N_R   0.941759 0.510731 0.203620 -0.420939
N2    N     N_R   0.236006 0.483550 0.794351 -0.423167
O1    O     O_2   0.913240 0.537010 0.617740 -0.449400
O2    O     O_2   0.229068 0.749935 0.464629 -0.483526
O3    O     O_3   0.116979 0.739990 0.373028 -0.603864
O4    O     O_3   0.145240 0.536960 0.557560 -0.496515
O5    O     O_3   0.557280 0.416300 0.475860 -0.490047
O6    O     O_2   0.376710 0.670070 0.522470 -0.456683
O7    O     O_3   0.566779 0.690424 0.603706 -0.642115
O8    O     O_2   0.413561 0.535023 0.321941 -0.464820
O9    O     O_3   0.448850 0.671676 0.330885 -0.599435
O10   O     O_2   0.010428 0.393363 0.201532 -0.607235
O11   O     O_2   0.254722 0.364556 0.794823 -0.622455
O12   O     O_3   0.627779 0.322890 0.398108 -0.658993
O13   O     O_2   0.873022 0.627468 0.198285 -0.622812
O14   O     O_2   0.206412 0.602800 0.799732 -0.597064
O15   O     O_3   0.669960 0.410470 0.588880 -0.461919
O16   O     O_2   0.741597 0.484004 0.675118 -0.482384
O17   O     O_3   0.068062 0.649612 0.622841 -0.629042
O18   O     O_3   0.776385 0.345896 0.676488 -0.592846
O19   O     O_2   0.812980 0.329910 0.477500 -0.459314
O20   O     O_3   0.078660 0.374870 0.564770 -0.475367
O21   O     O_2   0.963523 0.249878 0.534226 -0.477602
O22   O     O_3   0.480530 0.373013 0.305690 -0.615406
O23   O     O_3   0.082683 0.259259 0.625088 -0.589854
O24   O     O_3   0.664602 0.172524 0.703295 -0.652133
O25   O     O_2   0.276450 0.462960 0.382230 -0.431309
O26   O     O_3   0.044470 0.462980 0.442430 -0.496523
O27   O     O_3   0.519740 0.589470 0.411120 -0.480402
O28   O     O_3   0.119936 0.350364 0.376885 -0.630783
O29   O     O_3   0.632420 0.583650 0.524140 -0.479205
O30   O     O_3   0.111040 0.625070 0.435230 -0.495181
P1    P     P_3+3 0.082480 0.557670 0.610090 0.993721
P2    P     P_3+3 0.635220 0.340300 0.462910 0.986320
P3    P     P_3+3 0.106167 0.282638 0.564884 0.972349
P4    P     P_3+3 0.107220 0.442270 0.389900 1.009956
P5    P     P_3+3 0.087600 0.717492 0.433178 0.942684
P6    P     P_3+3 0.657561 0.417455 0.653796 0.971848
P7    P     P_3+3 0.561046 0.671492 0.539088 0.947559
P8    P     P_3+3 0.530490 0.588689 0.346774 0.955156

loop_
_geom_bond_atom_site_label_1
_geom_bond_atom_site_label_2
_ccdc_geom_bond_type
Ba2   O6    S    
C53   C54   A    
Ba1   P2    S    
C61   P7    S    
C10   C72   A    
O21   P3    D    
O27   P8    S    
Ba1   O1    S    
O15   P6    S    
C72   N1    Am   
C67   H22   S    
C44   H55   S    
C64   H67   S    
C10   C11   A    
Ba1   O29   S    
C24   C25   A    
C15   C31   D    
C60   C65   A    
O26   P4    S    
C17   C19   A    
C56   H19   S    
C22   C24   A    
C32   C33   S    
C35   C38   A    
C68   O22   S    
Ba2   O29   S    
C69   H61   S    
C36   C37   A    
O17   P1    S    
C55   C57   A    
Ba2   O4    S    
C54   C63   S    
C21   H31   S    
C44   C50   A    
Ba1   O26   S    
C62   H44   S    
C54   C55   A    
C72   O10   D    
Ba1   Ba2   S    
C50   P3    S    
O16   P6    D    
C11   C38   A    
C17   C35   A    
C6    P4    S    
C22   C27   A    
C9    C13   A    
C25   C42   A    
C70   H65   S    
O12   P2    S    
O1    P1    D    
Ba1   O20   S    
C6    C7    D    
C69   O22   S    
C64   H68   S    
C21   C22   A    
C67   C71   S    
C59   H52   S    
C40   H12   S    
C11   H29   S    
C7    C8    S    
O18   P6    S    
C15   H43   S    
C33   N2    S    
C37   C43   A    
Ba2   O5    S    
C71   H27   S    
C68   H5    S    
O29   P7    S    
C57   C58   A    
C6    C14   D    
C52   H45   S    
C70   O24   S    
C16   H57   S    
C41   H37   S    
C69   H60   S    
C52   H56   S    
O19   P2    D    
C14   H42   S    
C2    N1    Am   
C51   C58   A    
C40   H34   S    
C1    O24   S    
O7    P7    S    
O6    P7    D    
C44   C46   A    
C53   H46   S    
C51   C53   A    
C34   H13   S    
C70   H63   S    
C71   H24   S    
C4    C16   S    
C45   O3    S    
O4    P1    S    
C68   H6    S    
C49   C50   A    
Ba1   O15   S    
C17   C20   A    
C13   C39   A    
C40   H23   S    
C60   P5    S    
C3    C5    S    
C18   C37   A    
C7    H28   S    
Ba2   O25   S    
C66   O12   S    
C20   H32   S    
C27   N2    Am   
C67   O9    S    
C4    H26   S    
C12   O18   S    
C9    C36   A    
C41   C42   A    
C61   C65   A    
C35   C36   A    
C59   C63   A    
C55   H49   S    
C43   H41   S    
C2    O13   D    
C28   H59   S    
C26   O14   D    
C48   C49   A    
C66   H2    S    
C18   C19   A    
Ba1   O5    S    
C28   O28   S    
C1    C12   S    
Ba2   O26   S    
C38   H33   S    
C26   N2    Am   
C46   C47   A    
O23   P3    S    
C42   H39   S    
C39   H36   S    
C23   H8    S    
C45   H16   S    
C29   C33   D    
C57   H51   S    
O8    P8    D    
O25   P4    D    
C69   H62   S    
C18   C41   A    
O28   P4    S    
C66   H3    S    
C71   H25   S    
C4    O23   S    
Ba1   P1    S    
C5    P8    S    
C1    H14   S    
C16   H15   S    
C45   H17   S    
C29   C30   S    
C5    C14   S    
C67   H21   S    
C9    C10   A    
C52   C64   S    
C34   H11   S    
C32   H40   S    
Ba2   O27   S    
C27   O11   D    
C23   O7    S    
O5    P2    S    
C49   H53   S    
C29   H30   S    
C2    C13   A    
C56   H20   S    
C48   C58   S    
C3    C8    D    
C51   H47   S    
C65   H54   S    
C62   C63   A    
C45   C56   S    
C3    H35   S    
C34   H10   S    
C28   H58   S    
C47   H48   S    
C19   C24   A    
C70   H64   S    
C31   C32   D    
O2    P5    D    
C28   C40   S    
C8    N1    S    
C52   O17   S    
C59   C60   A    
C31   P1    S    
C23   C34   S    
C61   C62   A    
O3    P5    S    
C64   H66   S    
O9    P8    S    
Ba1   O19   S    
C66   C68   S    
C47   C48   A    
C25   C26   A    
C23   H9    S    
C15   C30   S    
C39   C43   A    
C20   C21   A    
C30   P6    S    
Ba1   O4    S    
C4    H38   S    
Ba2   P4    S    
C12   H7    S    
C1    H4    S    
C56   H18   S    
O30   P5    S    
Ba2   O30   S    
O20   P3    S    
C12   H1    S    
C16   H50   S    
C46   P2    S    
