data_mof_unit_27382.cif
_audit_creation_date              2012-10-26T19:43:53-0400
_audit_creation_method            fapswitch 2.2
_symmetry_space_group_name_H-M    P1
_symmetry_Int_Tables_number       1
_space_group_crystal_system       triclinic
_cell_length_a                    12.453467
_cell_length_b                    13.313275
_cell_length_c                    13.848639
_cell_angle_alpha                 108.811935
_cell_angle_beta                  73.476198
_cell_angle_gamma                 117.405823
_cell_volume                      1904.04940079

loop_
_atom_site_label
_atom_site_type_symbol
_atom_type_description
_atom_site_fract_x
_atom_site_fract_y
_atom_site_fract_z
_atom_type_partial_charge
C1    C     C_R   0.144325 0.713792 0.508621 0.570073
C2    C     C_R   0.562784 0.017021 0.478755 -0.005973
C3    C     C_R   0.605656 0.929931 0.423327 0.007750
C4    C     C_R   0.983003 0.503881 0.686552 0.515894
C5    C     C_R   0.522539 0.824678 0.372987 -0.141953
C6    C     C_R   0.397840 0.802613 0.389681 0.245113
C7    C     C_R   0.647405 0.131550 0.488167 -0.144084
C8    C     C_R   0.812474 0.069900 0.455481 0.015418
C9    C     C_R   0.226491 0.838504 0.517266 -0.004298
C10   C     C_R   0.602610 0.599048 0.701666 0.190497
C11   C     C_R   0.270602 0.380364 0.343082 0.347435
C12   C     C_1   0.972070 0.505853 0.792429 -0.013003
C13   C     C_R   0.391450 0.398465 0.292620 0.022773
C14   C     C_R   0.487202 0.461716 0.350871 0.253869
C15   C     C_R   0.460146 0.488308 0.460958 -0.043041
C16   C     C_R   0.855769 0.285444 0.487902 0.537026
C17   C     C_R   0.342510 0.491405 0.504994 0.090155
C18   C     C_R   0.547190 0.520495 0.527716 -0.011777
C19   C     C_R   0.513537 0.551959 0.636052 -0.038339
C20   C     C_R   0.394789 0.544256 0.676295 -0.135594
C21   C     C_R   0.324926 0.544902 0.613735 0.068769
C22   C     C_R   0.661080 0.509830 0.493551 0.354976
C23   C     C_R   0.730593 0.953541 0.418082 0.037421
C24   C     C_R   0.722358 0.613398 0.657867 0.064170
C25   C     C_R   0.016480 0.495252 0.313307 0.583332
C26   C     C_1   0.028454 0.493591 0.207294 -0.000849
C27   C     C_2   0.047169 0.492240 0.011900 0.245528
C28   C     C_2   0.960570 0.506811 0.985754 -0.054320
C29   C     C_1   0.965408 0.506692 0.880897 0.004866
C30   C     C_1   0.037780 0.492739 0.118304 -0.054028
C31   C     C_3   0.421485 0.363540 0.175595 -0.259769
C32   C     C_3   0.441679 0.251795 0.142770 -0.425042
C33   C     C_3   0.303967 0.657172 0.658343 -0.226666
C34   C     C_R   0.772706 0.160540 0.476859 -0.017426
C35   C     C_3   0.416258 0.761071 0.627008 -0.446351
C36   C     C_3   0.932830 0.094473 0.484252 -0.259019
C37   C     C_3   0.037570 0.105956 0.392457 -0.396233
C38   C     C_3   0.772478 0.854844 0.385246 -0.276182
C39   C     C_3   0.733806 0.792940 0.472779 -0.448078
C40   C     C_3   0.468735 0.147769 0.687803 -0.270518
C41   C     C_3   0.524377 0.093747 0.731612 -0.434930
C42   C     C_3   0.210781 0.120282 0.693534 -0.273211
C43   C     C_3   0.121662 0.129604 0.644122 -0.436884
C44   C     C_R   0.182908 0.920392 0.584869 -0.149681
C45   C     C_R   0.263535 0.033469 0.624003 0.019142
C46   C     C_R   0.390764 0.059954 0.604223 0.028389
C47   C     C_R   0.436091 0.987401 0.517240 -0.009642
C48   C     C_R   0.352240 0.875822 0.473045 0.041507
Cu1   Cu    Cu3+1 0.899780 0.525060 0.522890 0.929269
Cu2   Cu    Cu3+1 0.100220 0.474940 0.477110 1.003653
H1    H     H_    0.884739 0.518739 0.043394 0.095091
H2    H     H_    0.189722 0.253628 0.235079 0.288295
H3    H     H_    0.652353 0.580256 0.340549 0.334950
H4    H     H_    0.519698 0.264134 0.175631 0.205971
H5    H     H_    0.357898 0.179899 0.169733 0.134666
H6    H     H_    0.462917 0.227602 0.057158 0.133462
H7    H     H_    0.348659 0.352412 0.136969 0.132601
H8    H     H_    0.504961 0.433433 0.145442 0.192358
H9    H     H_    0.441885 0.742658 0.542180 0.168097
H10   H     H_    0.394891 0.838653 0.652915 0.137257
H11   H     H_    0.494748 0.779462 0.662547 0.160905
H12   H     H_    0.790915 0.651371 0.707464 0.159551
H13   H     H_    0.223933 0.657845 0.643581 0.190671
H14   H     H_    0.285286 0.676065 0.744414 0.128247
H15   H     H_    0.197131 0.468088 0.972417 0.321906
H16   H     H_    0.014052 0.116429 0.325805 0.191463
H17   H     H_    0.121486 0.181642 0.416155 0.168984
H18   H     H_    0.059701 0.028693 0.367415 0.115911
H19   H     H_    0.959074 0.173268 0.547658 0.161278
H20   H     H_    0.920587 0.025064 0.519037 0.127684
H21   H     H_    0.783823 0.736786 0.454989 0.159532
H22   H     H_    0.754807 0.855578 0.547512 0.151117
H23   H     H_    0.369577 0.569916 0.759052 0.155777
H24   H     H_    0.634129 0.738710 0.481137 0.140976
H25   H     H_    0.738058 0.792109 0.314415 0.138578
H26   H     H_    0.872785 0.886123 0.362662 0.155264
H27   H     H_    0.450337 0.022969 0.767869 0.147104
H28   H     H_    0.587104 0.059083 0.671898 0.164843
H29   H     H_    0.577883 0.160947 0.792209 0.139938
H30   H     H_    0.540242 0.226174 0.661584 0.146842
H31   H     H_    0.412956 0.181377 0.756494 0.134139
H32   H     H_    0.164799 0.145440 0.565375 0.160905
H33   H     H_    0.036073 0.049244 0.640044 0.136429
H34   H     H_    0.552999 0.760809 0.317824 0.103830
H35   H     H_    0.097072 0.203252 0.691683 0.159509
H36   H     H_    0.163226 0.094464 0.768312 0.145450
H37   H     H_    0.283561 0.209296 0.709064 0.147477
H38   H     H_    0.614379 0.197947 0.502181 0.144093
H39   H     H_    0.085616 0.893877 0.613397 0.133997
H40   H     H_    0.366717 0.669140 0.272341 0.321251
H41   H     H_    0.499941 0.573820 0.832582 0.321928
H42   H     H_    0.722697 0.395422 0.406555 0.369852
N1    N     N_R   0.748810 0.563010 0.557590 -0.288940
N2    N     N_R   0.250540 0.437620 0.443020 -0.222567
O1    O     O_R   0.025040 0.682470 0.528790 -0.516348
O2    O     O_3   0.577706 0.634493 0.807559 -0.715804
O3    O     O_3   0.674645 0.433752 0.401169 -0.658944
O4    O     O_3   0.172119 0.315201 0.291007 -0.676378
O5    O     O_3   0.604290 0.506041 0.296982 -0.672403
O6    O     O_3   0.143296 0.477163 0.938011 -0.704123
O7    O     O_R   0.194310 0.640150 0.490130 -0.474245
O8    O     O_R   0.903380 0.524130 0.659910 -0.511646
O9    O     O_R   0.072660 0.481800 0.621240 -0.513029
O10   O     O_R   0.805690 0.359850 0.509870 -0.539727
O11   O     O_R   0.974960 0.317530 0.471210 -0.456902
O12   O     O_R   0.927340 0.518200 0.378760 -0.491988
O13   O     O_R   0.096620 0.475870 0.340090 -0.407840
O14   O     O_3   0.320115 0.711141 0.325680 -0.677423

loop_
_geom_bond_atom_site_label_1
_geom_bond_atom_site_label_2
_ccdc_geom_bond_type
C15   C18   A    
C37   H18   S    
C12   C29   T    
C43   H33   S    
C3    C23   A    
C2    C7    A    
C6    O14   S    
Cu1   O10   S    
C14   O5    S    
C38   H26   S    
C45   C46   A    
H3    O5    S    
C40   C46   S    
C6    C48   A    
C11   O4    S    
C31   H8    S    
C36   C37   S    
C41   H27   S    
C38   C39   S    
C33   C35   S    
C28   H1    S    
C21   C33   S    
C4    O9    A    
C8    C23   A    
C35   H9    S    
C18   C19   A    
C8    C36   S    
C39   H24   S    
C16   C34   S    
H41   O2    S    
C16   O10   A    
C47   C48   A    
C4    O8    A    
H42   O3    S    
Cu2   O11   S    
C39   H22   S    
C40   H30   S    
C42   H36   S    
C4    C12   S    
C32   H5    S    
C33   H13   S    
Cu2   O9    S    
C22   O3    S    
C13   C14   A    
C27   C30   S    
C32   H4    S    
C36   H20   S    
C25   O12   A    
C38   H25   S    
C27   O6    S    
C43   H35   S    
C1    C9    S    
C41   H28   S    
C5    H34   S    
Cu2   N2    S    
C10   C24   A    
C25   C26   S    
C17   C21   A    
C35   H10   S    
C42   C45   S    
C7    H38   S    
C10   O2    S    
C10   C19   A    
C1    O1    A    
C37   H16   S    
C35   H11   S    
C8    C34   A    
Cu1   O1    S    
C16   O11   A    
C9    C48   A    
C11   N2    A    
C40   C41   S    
C26   C30   T    
Cu2   O13   S    
C22   N1    A    
C42   C43   S    
C1    O7    A    
Cu1   O8    S    
C44   C45   A    
C25   O13   A    
C15   C17   A    
C46   C47   A    
C28   C29   S    
C9    C44   A    
C24   H12   S    
C18   C22   A    
C40   H31   S    
C13   C31   S    
C31   C32   S    
H15   O6    S    
C3    C5    A    
C41   H29   S    
Cu1   O12   S    
C17   N2    A    
C2    C47   A    
C23   C38   S    
C31   H7    S    
C19   C20   A    
C2    C3    A    
H40   O14   S    
C24   N1    A    
C11   C13   A    
C5    C6    A    
C33   H14   S    
C37   H17   S    
H2    O4    S    
C7    C34   A    
C20   H23   S    
C36   H19   S    
C20   C21   A    
Cu2   O7    S    
Cu1   Cu2   S    
C27   C28   D    
C43   H32   S    
C39   H21   S    
C14   C15   A    
C42   H37   S    
Cu1   N1    S    
C32   H6    S    
C44   H39   S    
