data_mof_unit_67544.cif
_audit_creation_date              2012-12-10T16:47:31-0500
_audit_creation_method            fapswitch 2.2
_symmetry_space_group_name_H-M    P1
_symmetry_Int_Tables_number       1
_space_group_crystal_system       triclinic
_cell_length_a                    10.6586
_cell_length_b                    8.916051
_cell_length_c                    7.535478
_cell_angle_alpha                 102.888774
_cell_angle_beta                  93.454039
_cell_angle_gamma                 94.050168
_cell_volume                      694.199934627

loop_
_atom_site_label
_atom_site_type_symbol
_atom_type_description
_atom_site_fract_x
_atom_site_fract_y
_atom_site_fract_z
_atom_type_partial_charge
C1    C     C_R   0.497442 0.201106 0.454305 0.897590
C2    C     C_R   0.503670 0.799017 0.545805 0.859051
C3    C     C_R   0.260108 0.499840 0.502598 0.822099
C4    C     C_R   0.739896 0.500660 0.497459 0.867750
C5    C     C_3   0.035320 0.384246 0.570299 0.002055
C6    C     C_3   0.964618 0.617567 0.429891 -0.006217
C7    C     C_3   0.948082 0.368232 0.396253 0.430670
C8    C     C_3   0.051996 0.633616 0.603901 0.427077
C9    C     C_3   0.876251 0.500853 0.494561 -0.150405
C10   C     C_3   0.123760 0.500823 0.505599 -0.176291
C11   C     C_3   0.963046 0.517852 0.671607 -0.247491
C12   C     C_3   0.036998 0.484051 0.328670 -0.316023
C13   C     C_2   0.507730 0.036207 0.429451 -0.014172
C14   C     C_2   0.495101 0.964298 0.571404 -0.029718
Cu1   Cu    Cu3+1 0.514140 0.517380 0.684380 0.981179
Cu2   Cu    Cu3+1 0.485860 0.482620 0.315620 0.969523
H1    H     H_    0.933303 0.532470 0.812781 0.179092
H2    H     H_    0.066789 0.469640 0.187527 0.175086
N1    N     N_2   0.464560 0.456420 0.038510 -0.059310
N2    N     N_2   0.535440 0.543580 0.961490 -0.062331
O1    O     O_R   0.509190 0.286130 0.619780 -0.606728
O2    O     O_R   0.490810 0.713870 0.380220 -0.614115
O3    O     O_R   0.485310 0.256770 0.308360 -0.575329
O4    O     O_R   0.514690 0.743230 0.691640 -0.567534
O5    O     O_R   0.328790 0.514640 0.655680 -0.581988
O6    O     O_R   0.671210 0.485360 0.344320 -0.586557
O7    O     O_R   0.304910 0.485280 0.344260 -0.605413
O8    O     O_R   0.695090 0.514720 0.655740 -0.597581
S1    S     S_3+6 0.881982 0.188244 0.258973 -0.009928
O9    O     O_2   0.805153 0.107141 0.375393 -0.326621
O10   O     O_2   0.799463 0.212769 0.100888 -0.298300
O11   O     O_3   0.998855 0.080531 0.181605 -0.468308
H3    H     H_    0.057114 0.150112 0.132642 0.350101
S2    S     S_3+6 0.119218 0.813954 0.739415 -0.012571
O12   O     O_2   0.014915 0.904440 0.821032 -0.233767
O13   O     O_2   0.209599 0.789433 0.889107 -0.301441
O14   O     O_3   0.194772 0.911673 0.605531 -0.569696
H4    H     H_    0.230432 0.832169 0.513212 0.328399
C15   C     C_3   0.072696 0.250215 0.650256 -0.634888
H5    H     H_    0.989020 0.168120 0.647149 0.295862
H6    H     H_    0.145449 0.189867 0.569765 0.244053
H7    H     H_    0.109493 0.293743 0.794255 0.194534
C16   C     C_3   0.926939 0.751382 0.349448 -0.626905
H8    H     H_    0.010973 0.831481 0.348133 0.293391
H9    H     H_    0.887884 0.707111 0.206643 0.208267
H10   H     H_    0.856195 0.814467 0.431828 0.238589
C17   C     C_3   0.338520 0.405570 0.960051 -0.358881
H11   H     H_    0.294954 0.325447 0.036542 0.163799
H12   H     H_    0.280699 0.505498 0.969616 0.205065
H13   H     H_    0.338864 0.336187 0.821082 0.182398
C18   C     C_3   0.661372 0.594503 0.039991 -0.354005
H14   H     H_    0.704882 0.674707 0.963561 0.180049
H15   H     H_    0.660780 0.663769 0.178917 0.179680
H16   H     H_    0.719252 0.494636 0.030465 0.205296
C19   C     C_3   0.542000 0.954774 0.241024 -0.702409
H17   H     H_    0.564686 0.033866 0.150865 0.261426
H18   H     H_    0.629638 0.899205 0.256727 0.243980
H19   H     H_    0.463251 0.871735 0.167626 0.250688
C20   C     C_3   0.462985 0.046193 0.761029 -0.707662
H20   H     H_    0.375375 0.102232 0.747915 0.246061
H21   H     H_    0.441407 0.967690 0.852228 0.259703
H22   H     H_    0.542498 0.129023 0.832406 0.260069

loop_
_geom_bond_atom_site_label_1
_geom_bond_atom_site_label_2
_ccdc_geom_bond_type
C2    O2    A    
C4    O6    A    
C19   H17   S    
C1    O1    A    
S1    O9    D    
C7    S1    S    
S1    O11   S    
S2    O14   S    
C9    C11   S    
N1    N2    D    
C8    C11   S    
C15   H7    S    
C16   H8    S    
C18   H16   S    
O11   H3    S    
Cu2   O7    S    
C3    O7    A    
Cu2   O3    S    
C20   H20   S    
C17   H12   S    
C3    C10   S    
C8    S2    S    
C13   C14   D    
C6    C12   S    
C14   C20   S    
C16   H9    S    
Cu1   O8    S    
O14   H4    S    
Cu1   O1    S    
C10   C12   S    
C6    C9    S    
Cu2   N1    S    
C5    C10   S    
Cu1   O4    S    
C4    O8    A    
C5    C11   S    
C17   H13   S    
S2    O13   D    
C6    C16   S    
C19   H18   S    
C2    O4    A    
Cu1   N2    S    
C2    C14   S    
C16   H10   S    
N1    C17   S    
C7    C12   S    
Cu1   O5    S    
C1    C13   S    
Cu1   Cu2   S    
C18   H14   S    
C7    C9    S    
C3    O5    A    
C15   H6    S    
C8    C10   S    
S2    O12   D    
C20   H21   S    
C12   H2    S    
C15   H5    S    
C5    C7    S    
C5    C15   S    
C19   H19   S    
N2    C18   S    
C11   H1    S    
C20   H22   S    
C6    C8    S    
C1    O3    A    
C13   C19   S    
C4    C9    S    
S1    O10   D    
C17   H11   S    
Cu2   O2    S    
C18   H15   S    
Cu2   O6    S    
