data_mof_unit_24768.cif
_audit_creation_date              2012-12-10T17:57:48-0500
_audit_creation_method            fapswitch 2.2
_symmetry_space_group_name_H-M    P1
_symmetry_Int_Tables_number       1
_space_group_crystal_system       triclinic
_cell_length_a                    10.834753
_cell_length_b                    9.510605
_cell_length_c                    15.085181
_cell_angle_alpha                 89.948277
_cell_angle_beta                  90.169396
_cell_angle_gamma                 89.996067
_cell_volume                      1554.44589068

loop_
_atom_site_label
_atom_site_type_symbol
_atom_type_description
_atom_site_fract_x
_atom_site_fract_y
_atom_site_fract_z
_atom_type_partial_charge
C1    C     C_R   0.262034 0.500002 0.499933 0.789368
C2    C     C_R   0.737966 0.499997 0.500069 0.791766
C3    C     C_R   0.445154 0.251936 0.047293 -0.251005
C4    C     C_R   0.550198 0.749236 0.952718 -0.255101
C5    C     C_R   0.063855 0.372223 0.500001 -0.185434
C6    C     C_R   0.936146 0.627777 0.500007 -0.183279
C7    C     C_R   0.936164 0.372220 0.500100 -0.182547
C8    C     C_R   0.063837 0.627780 0.499907 -0.183445
C9    C     C_R   0.871797 0.499997 0.500080 -0.018220
C10   C     C_R   0.128203 0.500003 0.499926 -0.018365
C11   C     C_R   0.423955 0.074534 0.444335 -0.025195
C12   C     C_R   0.576049 0.925466 0.555661 -0.022857
C13   C     C_R   0.576048 0.074361 0.555660 -0.022742
C14   C     C_R   0.423958 0.925638 0.444334 -0.025147
C15   C     C_R   0.499825 0.500083 0.328572 0.817314
C16   C     C_R   0.500022 0.499930 0.671431 0.815776
C17   C     C_R   0.524156 0.624080 0.814525 -0.223094
C18   C     C_R   0.473281 0.376456 0.185491 -0.223583
C19   C     C_R   0.499468 0.499755 0.768234 -0.090492
C20   C     C_R   0.499273 0.500426 0.231774 -0.090386
C21   C     C_R   0.473874 0.375310 0.814416 -0.231936
C22   C     C_R   0.524445 0.624959 0.185586 -0.229719
C23   C     C_R   0.471749 0.373833 0.907163 0.103034
C24   C     C_R   0.524189 0.627080 0.092830 0.102888
C25   C     C_R   0.497847 0.499892 0.953511 0.015651
C26   C     C_R   0.497991 0.501077 0.046483 0.013996
C27   C     C_R   0.524125 0.624907 0.906817 0.088353
C28   C     C_R   0.472153 0.375971 0.093188 0.091715
C29   C     C_R   0.444291 0.249432 0.954440 0.148587
C30   C     C_R   0.550150 0.751889 0.045574 0.149554
Cu1   Cu    Cu3+1 0.500000 0.640660 0.500000 0.944238
Cu2   Cu    Cu3+1 0.500000 0.359340 0.500000 0.944092
H1    H     H_    0.454840 0.279969 0.777633 0.180945
H2    H     H_    0.545349 0.719782 0.222381 0.182143
H3    H     H_    0.423944 0.156970 0.083924 0.132565
H4    H     H_    0.570444 0.844594 0.916110 0.154482
H5    H     H_    0.111890 0.272323 0.499992 0.148876
H6    H     H_    0.888111 0.727676 0.500016 0.149438
H7    H     H_    0.888143 0.272319 0.500185 0.149517
H8    H     H_    0.111858 0.727680 0.499822 0.149089
H9    H     H_    0.363056 0.130783 0.399766 0.114514
H10   H     H_    0.636954 0.869216 0.600225 0.115792
H11   H     H_    0.636957 0.130474 0.600219 0.120130
H12   H     H_    0.363058 0.869526 0.399769 0.117407
N1    N     N_R   0.500000 0.852070 0.500000 -0.157518
N2    N     N_R   0.500000 0.147930 0.500000 -0.157900
O1    O     O_R   0.319640 0.618740 0.499990 -0.588388
O2    O     O_R   0.680360 0.381260 0.500010 -0.587947
O3    O     O_R   0.680360 0.618740 0.500010 -0.589341
O4    O     O_R   0.319640 0.381260 0.499990 -0.590318
O5    O     O_R   0.499970 0.618800 0.370260 -0.588519
O6    O     O_R   0.500030 0.381200 0.629740 -0.588125
O7    O     O_R   0.500030 0.618800 0.629740 -0.585560
O8    O     O_R   0.499970 0.381200 0.370260 -0.584863
H13   H     H_    0.544508 0.720247 0.778731 0.153450
H14   H     H_    0.453083 0.280261 0.221302 0.149949
N3    N     N_3   0.415545 0.121274 0.908186 -0.614793
H15   H     H_    0.329193 0.134658 0.878237 0.216958
H16   H     H_    0.406004 0.037846 0.952825 0.215817
N4    N     N_3   0.576948 0.880470 0.091919 -0.599168
H17   H     H_    0.494813 0.914700 0.120985 0.198462
H18   H     H_    0.603918 0.959138 0.047544 0.229119

loop_
_geom_bond_atom_site_label_1
_geom_bond_atom_site_label_2
_ccdc_geom_bond_type
C6    C8    A    
C6    H6    S    
C15   O5    A    
C12   N1    A    
C2    O3    A    
C18   H14   S    
C25   C27   A    
C5    C7    A    
C1    O4    A    
C17   H13   S    
C26   C28   A    
Cu1   Cu2   S    
C3    H3    S    
C6    C9    A    
C4    H4    S    
C4    C30   A    
C5    C10   A    
Cu1   O1    S    
Cu1   O7    S    
Cu2   O2    S    
C24   C26   A    
Cu2   O4    S    
N3    H15   S    
C15   C20   S    
Cu1   O3    S    
C16   C19   S    
C23   C29   A    
N4    H18   S    
C3    C28   A    
C19   C21   A    
C29   N3    S    
C11   H9    S    
C14   N1    A    
C18   C20   A    
C23   C25   A    
C21   C23   A    
C13   N2    A    
C22   H2    S    
C11   C14   A    
C22   C24   A    
N3    H16   S    
C24   C30   A    
C21   H1    S    
C5    H5    S    
C20   C22   A    
C17   C19   A    
C17   C27   A    
C15   O8    A    
C7    C9    A    
C13   H11   S    
C4    C27   A    
C18   C28   A    
C12   C13   A    
C14   H12   S    
Cu1   N1    S    
Cu2   O8    S    
C3    C29   A    
C7    H7    S    
C16   O7    A    
C1    O1    A    
C11   N2    A    
C12   H10   S    
C8    H8    S    
C2    O2    A    
C25   C26   A    
C2    C9    S    
Cu2   N2    S    
C8    C10   A    
Cu2   O6    S    
C1    C10   S    
C16   O6    A    
Cu1   O5    S    
N4    H17   S    
C30   N4    S    
