data_mof_unit_15538.cif
_audit_creation_date              2012-12-11T19:47:08-0500
_audit_creation_method            fapswitch 2.2
_symmetry_space_group_name_H-M    P1
_symmetry_Int_Tables_number       1
_space_group_crystal_system       triclinic
_cell_length_a                    8.377384
_cell_length_b                    15.050966
_cell_length_c                    18.814351
_cell_angle_alpha                 101.720077
_cell_angle_beta                  91.188038
_cell_angle_gamma                 99.478073
_cell_volume                      2287.48333343

loop_
_atom_site_label
_atom_site_type_symbol
_atom_type_description
_atom_site_fract_x
_atom_site_fract_y
_atom_site_fract_z
_atom_type_partial_charge
Ba1   Ba    Ba6+2 0.853520 0.540910 0.466490 1.660016
Ba2   Ba    Ba6+2 0.336320 0.459170 0.533520 1.685038
C1    C     C_3   0.522369 0.807291 0.238284 -0.196252
C2    C     C_3   0.609151 0.765937 0.293326 0.465417
C3    C     C_3   0.454398 0.318493 0.307964 0.297357
C4    C     C_3   0.429461 0.290334 0.225566 -0.366741
C5    C     C_3   0.952035 0.221140 0.710457 0.437315
C6    C     C_3   0.943459 0.170147 0.774456 -0.219004
C7    C     C_3   0.437305 0.276634 0.801333 0.248077
C8    C     C_3   0.320764 0.327414 0.851038 -0.059005
C9    C     C_R   0.995444 0.450372 0.046931 0.041821
C10   C     C_R   0.898045 0.405976 0.094039 -0.072271
C11   C     C_R   0.767506 0.442155 0.958345 -0.048008
C12   C     C_3   0.122588 0.705501 0.269362 0.305395
C13   C     C_R   0.934564 0.457730 0.977337 0.043944
C14   C     C_R   0.710730 0.447886 0.889566 -0.106225
C15   C     C_R   0.815039 0.461925 0.834674 -0.050052
C16   C     C_R   0.981173 0.493946 0.856042 0.000446
C17   C     C_R   0.041548 0.490765 0.927548 0.024404
C18   C     C_R   0.757393 0.454414 0.761524 -0.057969
C19   C     C_R   0.864748 0.492854 0.714881 -0.229716
C20   C     C_R   0.025031 0.536373 0.736502 0.043151
C21   C     C_R   0.082126 0.539257 0.809868 -0.006399
C22   C     C_R   0.159816 0.486183 0.069714 0.041308
C23   C     C_3   0.128031 0.722827 0.191755 -0.265793
C24   C     C_R   0.216153 0.489208 0.142770 -0.002487
C25   C     C_R   0.109933 0.452753 0.191715 -0.046521
C26   C     C_R   0.955376 0.405372 0.164024 -0.018997
C27   C     C_R   0.227392 0.594508 0.843388 0.008440
C28   C     C_R   0.299705 0.574002 0.904305 -0.140963
C29   C     C_R   0.206523 0.525242 0.949890 0.020406
C30   C     C_R   0.266972 0.521500 0.020728 0.049247
C31   C     C_R   0.431410 0.552726 0.044784 -0.102117
C32   C     C_R   0.378399 0.529389 0.166875 -0.041719
C33   C     C_R   0.484853 0.557725 0.116236 -0.108708
C34   C     C_3   0.326780 0.757121 0.669957 0.504490
C35   C     C_R   0.429232 0.540094 0.240886 -0.020429
C36   C     C_R   0.319145 0.510548 0.289581 -0.294895
C37   C     C_R   0.162373 0.464405 0.266245 0.052976
C38   C     C_R   0.869699 0.165852 0.524044 -0.006961
C39   C     C_R   0.804421 0.071268 0.516390 -0.026343
C40   C     C_R   0.654212 0.887453 0.518050 -0.047613
C41   C     C_R   0.808380 0.924845 0.551296 -0.056981
C42   C     C_R   0.886614 0.012082 0.546125 -0.098459
C43   C     C_R   0.581370 0.794566 0.516482 0.023001
C44   C     C_R   0.428457 0.761334 0.479746 -0.269871
C45   C     C_3   0.436456 0.788354 0.738714 -0.250873
C46   C     C_R   0.620540 0.190309 0.465942 0.003084
C47   C     C_R   0.556340 0.095967 0.456647 -0.020083
C48   C     C_R   0.645149 0.037058 0.484911 0.016013
C49   C     C_R   0.403281 0.059506 0.421951 -0.050289
C50   C     C_R   0.334752 0.968518 0.418329 -0.108262
C51   C     C_R   0.415857 0.910067 0.449696 -0.022669
C52   C     C_R   0.572182 0.944440 0.483756 0.033611
C53   C     C_R   0.344305 0.818362 0.447771 -0.005787
C54   C     C_R   0.774293 0.224022 0.500991 -0.292805
C55   C     C_3   0.973347 0.245140 0.359416 0.310021
C56   C     C_3   0.997041 0.145872 0.334441 -0.357748
C57   C     C_3   0.752608 0.678678 0.687125 0.245162
C58   C     C_3   0.815847 0.719984 0.765312 -0.343856
H1    H     H_    0.471761 0.727318 0.754523 0.048396
H2    H     H_    0.545544 0.837573 0.731310 0.105884
H3    H     H_    0.373791 0.828341 0.782163 0.150364
H4    H     H_    0.845137 0.245263 0.371686 -0.036458
H5    H     H_    0.057256 0.275982 0.407611 0.034218
H6    H     H_    0.909935 0.110461 0.288103 0.147546
H7    H     H_    0.976966 0.109212 0.379841 0.034772
H8    H     H_    0.122543 0.143866 0.317086 0.123258
H9    H     H_    0.851543 0.651287 0.656656 0.051138
H10   H     H_    0.647872 0.622561 0.686406 0.048089
H11   H     H_    0.454531 0.859831 0.267691 0.089793
H12   H     H_    0.923416 0.773922 0.765383 0.195545
H13   H     H_    0.847385 0.666103 0.792458 0.100891
H14   H     H_    0.724749 0.752873 0.797798 0.105280
H15   H     H_    0.508534 0.733327 0.322301 -0.048503
H16   H     H_    0.436379 0.749395 0.206038 -0.006129
H17   H     H_    0.341396 0.338456 0.330730 0.011846
H18   H     H_    0.555551 0.378004 0.321796 0.060076
H19   H     H_    0.326330 0.232165 0.210341 0.136170
H20   H     H_    0.402772 0.348620 0.202448 0.053798
H21   H     H_    0.540859 0.268743 0.201837 0.131766
H22   H     H_    0.189267 0.671108 0.157393 0.081017
H23   H     H_    0.000938 0.295371 0.732398 -0.003706
H24   H     H_    0.884893 0.096920 0.756961 0.118498
H25   H     H_    0.066111 0.165938 0.793998 0.047030
H26   H     H_    0.563571 0.292892 0.824356 0.016723
H27   H     H_    0.193816 0.303734 0.830716 0.047885
H28   H     H_    0.025139 0.646789 0.271610 0.106631
H29   H     H_    0.338549 0.400551 0.849103 0.119491
H30   H     H_    0.817452 0.497657 0.662643 0.113852
H31   H     H_    0.584538 0.446202 0.880718 0.062477
H32   H     H_    0.874418 0.368495 0.196139 0.111646
H33   H     H_    0.611263 0.584419 0.131124 0.151424
H34   H     H_    0.359201 0.519322 0.346013 0.069083
H35   H     H_    0.678027 0.430762 0.997431 0.071058
H36   H     H_    0.776992 0.369111 0.077223 0.067915
H37   H     H_    0.417596 0.613692 0.923159 0.055142
H38   H     H_    0.240000 0.686328 0.282926 -0.064314
H39   H     H_    0.523195 0.573611 0.009363 0.093633
H40   H     H_    0.870758 0.887734 0.582264 0.096459
H41   H     H_    0.008119 0.034291 0.570484 0.110576
H42   H     H_    0.215813 0.945901 0.391408 0.103812
H43   H     H_    0.332730 0.100749 0.397836 0.090315
H44   H     H_    0.371276 0.691076 0.478424 0.073386
H45   H     H_    0.197245 0.792434 0.192084 0.072600
H46   H     H_    0.382054 0.712641 0.626663 -0.007929
O1    O     O_2   0.871960 0.437280 0.322960 -0.472534
O2    O     O_3   0.704184 0.748532 0.657697 -0.656805
O3    O     O_3   0.097224 0.785117 0.318604 -0.615786
O4    O     O_2   0.317750 0.562750 0.677090 -0.482813
O5    O     O_3   0.068300 0.555620 0.587560 -0.473529
O6    O     O_3   0.528270 0.392500 0.627460 -0.374702
O7    O     O_3   0.175127 0.711206 0.686333 -0.621510
O8    O     O_3   0.609290 0.386840 0.459690 -0.473801
O9    O     O_3   0.105700 0.342700 0.589730 -0.452081
O10   O     O_2   0.206606 0.181700 0.541812 -0.477507
O11   O     O_3   0.065505 0.186139 0.662431 -0.587830
O12   O     O_3   0.121410 0.444460 0.412450 -0.509867
O13   O     O_3   0.580430 0.613240 0.540320 -0.480357
O14   O     O_2   0.337390 0.273050 0.457610 -0.471337
O15   O     O_3   0.491214 0.243189 0.334154 -0.641653
O16   O     O_2   0.428706 0.470961 0.751567 -0.504902
O17   O     O_3   0.432364 0.294331 0.730580 -0.609706
O18   O     O_3   0.661450 0.607570 0.372550 -0.473408
O19   O     O_2   0.762311 0.534696 0.244280 -0.489409
O20   O     O_3   0.004772 0.290793 0.302605 -0.635120
O21   O     O_3   0.702457 0.701861 0.257631 -0.619577
O22   O     O_2   0.852310 0.726980 0.542430 -0.475319
O23   O     O_3   0.084010 0.657370 0.410280 -0.477162
O24   O     O_2   0.012245 0.821162 0.453208 -0.509482
P1    P     P_3+3 0.039430 0.410940 0.333230 0.957127
P2    P     P_3+3 0.676770 0.715000 0.563590 0.959030
P3    P     P_3+3 0.135780 0.772004 0.407733 0.925090
P4    P     P_3+3 0.150290 0.589140 0.666780 1.001947
P5    P     P_3+3 0.062389 0.220923 0.578489 1.017898
P6    P     P_3+3 0.637620 0.593400 0.278214 0.942941
P7    P     P_3+3 0.513440 0.271750 0.429115 0.952769
P8    P     P_3+3 0.542086 0.402647 0.722812 0.967529
N1    N     N_2   0.708525 0.834193 0.349425 -0.437279
H47   H     H_    0.756902 0.804187 0.387293 0.244059
C59   C     C_3   0.819786 0.908834 0.330460 -0.168520
H48   H     H_    0.904961 0.942949 0.377744 0.111960
H49   H     H_    0.751659 0.961330 0.317679 0.129009
H50   H     H_    0.891170 0.883337 0.284137 0.141636
C60   C     C_2   0.624218 0.845021 0.183054 0.499273
H51   H     H_    0.665733 0.798157 0.138539 0.023515
O25   O     O_2   0.650001 0.927548 0.184289 -0.580827
N2    N     N_2   0.792258 0.213649 0.674544 -0.443919
H52   H     H_    0.747012 0.274053 0.683980 0.176295
C61   C     C_3   0.669039 0.132926 0.671555 -0.252935
H53   H     H_    0.623810 0.131850 0.725865 0.129519
H54   H     H_    0.717997 0.068917 0.653659 0.111578
H55   H     H_    0.566592 0.134039 0.633531 0.134650
C62   C     C_2   0.860744 0.217783 0.837260 0.439728
H56   H     H_    0.892093 0.291624 0.856109 -0.032491
O26   O     O_2   0.760736 0.173622 0.868593 -0.522635
C63   C     C_2   0.384184 0.174765 0.794669 0.492689
H57   H     H_    0.316692 0.133534 0.745872 0.034907
O27   O     O_2   0.414721 0.137362 0.843903 -0.548364
N3    N     N_2   0.343747 0.320346 0.926477 -0.444172
H58   H     H_    0.457208 0.311312 0.942658 0.226825
C64   C     C_3   0.211241 0.269254 0.957396 -0.168216
H59   H     H_    0.240440 0.275135 0.016193 0.110612
H60   H     H_    0.190361 0.195481 0.929836 0.158018
H61   H     H_    0.099257 0.298055 0.952042 0.096921
C65   C     C_2   0.256953 0.693877 0.846083 0.484664
H62   H     H_    0.373515 0.734753 0.867534 -0.020238
O28   O     O_2   0.147239 0.733391 0.833544 -0.596297
C66   C     C_2   0.832655 0.322895 0.517604 0.555858
H63   H     H_    0.899733 0.357532 0.479898 -0.000380
O29   O     O_2   0.804083 0.367634 0.575430 -0.596016
C67   C     C_2   0.964564 0.718196 0.157698 0.561387
H64   H     H_    0.899025 0.773219 0.176824 0.014314
O30   O     O_2   0.908351 0.655523 0.107062 -0.601605
N4    N     N_2   0.308264 0.841204 0.646636 -0.461298
H65   H     H_    0.410826 0.873927 0.627122 0.143813
C68   C     C_3   0.160980 0.840538 0.606479 -0.130019
H66   H     H_    0.170384 0.904211 0.584496 0.078161
H67   H     H_    0.059452 0.838072 0.643352 0.141779
H68   H     H_    0.140503 0.779208 0.561616 0.136188

loop_
_geom_bond_atom_site_label_1
_geom_bond_atom_site_label_2
_ccdc_geom_bond_type
C12   O3    S    
C5    H23   S    
C63   H57   S    
C54   C66   S    
C32   C35   A    
Ba2   O8    S    
C66   H63   S    
C58   H13   S    
Ba1   O22   S    
Ba1   P2    S    
C17   C29   A    
C45   H2    S    
C60   H51   S    
Ba2   O12   S    
C23   H45   S    
C5    C6    S    
N4    C68   S    
O10   P5    D    
C51   C52   A    
C67   H64   S    
C13   C17   A    
C28   H37   S    
C50   H42   S    
C24   C25   A    
Ba2   P4    S    
O9    P5    S    
C46   P7    S    
C20   P4    S    
C21   C27   A    
C35   C36   A    
C22   C24   A    
C32   C33   A    
Ba1   O23   S    
C59   H49   S    
C45   H3    S    
C3    C4    S    
C58   H12   S    
C18   P8    S    
C3    O15   S    
C9    C22   A    
C15   C18   A    
C34   C45   S    
Ba1   Ba2   S    
Ba1   O13   S    
O8    P7    S    
O15   P7    S    
C47   C48   A    
C5    O11   S    
C2    H15   S    
O12   P1    S    
C7    O17   S    
C9    C13   A    
C56   H6    S    
Ba2   O4    S    
N4    H65   S    
C8    H29   S    
C25   C37   A    
C14   C15   A    
C38   C54   A    
C61   H55   S    
C44   C53   A    
C6    C62   S    
C7    C8    S    
C62   O26   D    
Ba1   O12   S    
C33   H33   S    
C57   C58   S    
C63   O27   D    
C4    H21   S    
C14   H31   S    
C19   C20   A    
C65   O28   D    
C66   O29   D    
C65   H62   S    
C34   O7    S    
O22   P2    D    
C60   O25   D    
C67   O30   D    
C12   H38   S    
C64   H60   S    
C19   H30   S    
C51   C53   A    
C8    H27   S    
C38   P5    S    
Ba2   O5    S    
O18   P6    S    
C34   H46   S    
C16   C21   A    
O6    P8    S    
O21   P6    S    
O16   P8    D    
O1    P1    D    
C59   H50   S    
C55   H5    S    
C55   O20   S    
Ba2   O14   S    
C16   C17   A    
C47   C49   A    
C53   P3    S    
C44   H44   S    
C6    H25   S    
C49   C50   A    
C31   H39   S    
C40   C43   A    
N3    C64   S    
C27   C65   S    
C1    H11   S    
C41   C42   A    
C22   C30   A    
C27   C28   A    
C7    H26   S    
C64   H61   S    
Ba2   O9    S    
C56   H7    S    
C4    H20   S    
C29   C30   A    
O17   P8    S    
C7    C63   S    
C28   C29   A    
Ba2   O13   S    
C68   H68   S    
Ba2   O6    S    
C36   H34   S    
C15   C16   A    
C35   P6    S    
C26   H32   S    
C48   C52   A    
C41   H40   S    
C1    H16   S    
C62   H56   S    
C57   H9    S    
O23   P3    S    
C23   C67   S    
C56   H8    S    
C38   C39   A    
C10   C26   A    
C1    C60   S    
O7    P4    S    
C11   C13   A    
C23   H22   S    
C39   C42   A    
C61   H54   S    
O4    P4    D    
O24   P3    D    
Ba1   O8    S    
C3    H17   S    
C1    C2    S    
O11   P5    S    
C8    N3    S    
C39   C48   A    
C50   C51   A    
O19   P6    D    
C55   H4    S    
C5    N2    S    
C46   C54   A    
C46   C47   A    
C2    O21   S    
C24   C32   A    
C18   C19   A    
C6    H24   S    
N2    C61   S    
Ba1   P1    S    
O13   P2    S    
C45   H1    S    
C42   H41   S    
O5    P4    S    
C64   H59   S    
C57   O2    S    
C61   H53   S    
C30   C31   A    
Ba1   O18   S    
C12   H28   S    
N1    H47   S    
C40   C52   A    
C2    N1    S    
N1    C59   S    
C55   C56   S    
C36   C37   A    
C37   P1    S    
O20   P1    S    
C58   H14   S    
C31   C33   A    
C68   H67   S    
N2    H52   S    
O3    P3    S    
N3    H58   S    
O2    P2    S    
C57   H10   S    
C4    H19   S    
Ba1   O1    S    
C43   C44   A    
C34   N4    S    
C12   C23   S    
C11   H35   S    
C43   P2    S    
C68   H66   S    
C40   C41   A    
C11   C14   A    
C25   C26   A    
C20   C21   A    
C10   H36   S    
O14   P7    D    
C3    H18   S    
C59   H48   S    
C49   H43   S    
Ba1   O5    S    
C9    C10   A    
