data_mof_unit_58433.cif
_audit_creation_date              2012-12-11T14:35:48-0500
_audit_creation_method            fapswitch 2.2
_symmetry_space_group_name_H-M    P1
_symmetry_Int_Tables_number       1
_space_group_crystal_system       monoclinic
_cell_length_a                    14.533607
_cell_length_b                    16.090525
_cell_length_c                    6.940309
_cell_angle_alpha                 90.0
_cell_angle_beta                  81.144172
_cell_angle_gamma                 90.0
_cell_volume                      1603.66641821

loop_
_atom_site_label
_atom_site_type_symbol
_atom_type_description
_atom_site_fract_x
_atom_site_fract_y
_atom_site_fract_z
_atom_type_partial_charge
O1    O     O_R   0.337460 0.413110 0.524760 -0.533859
O2    O     O_R   0.662540 0.913110 0.475240 -0.533859
O3    O     O_R   0.348690 0.587910 0.191230 -0.520565
O4    O     O_R   0.651310 0.087910 0.808770 -0.520565
O5    O     O_R   0.166530 0.586890 0.082470 -0.516109
O6    O     O_R   0.833470 0.086890 0.917530 -0.516109
C1    C     C_R   0.368309 0.618272 0.354711 0.854314
C2    C     C_R   0.631691 0.118272 0.645289 0.854314
O7    O     O_R   0.348700 0.413830 0.191250 -0.554924
O8    O     O_R   0.651300 0.913830 0.808750 -0.554924
O9    O     O_R   0.166530 0.411570 0.082490 -0.555210
O10   O     O_R   0.833470 0.911570 0.917510 -0.555210
C3    C     C_R   0.371553 0.386141 0.353518 0.762230
C4    C     C_R   0.628447 0.886141 0.646482 0.762231
O11   O     O_R   0.337460 0.588430 0.524740 -0.517474
O12   O     O_R   0.662540 0.088430 0.475260 -0.517474
O13   O     O_3   0.192230 0.499460 0.407330 -0.378818
O14   O     O_3   0.807770 0.999460 0.592670 -0.378817
V1    V     V_3+5 0.263080 0.500100 0.108540 1.539239
V2    V     V_3+5 0.736920 0.000100 0.891460 1.539239
O15   O     O_R   0.155290 0.412090 0.756570 -0.513722
O16   O     O_R   0.844710 0.912090 0.243430 -0.513721
C5    C     C_R   0.132807 0.382779 0.932121 0.705878
C6    C     C_R   0.867193 0.882778 0.067879 0.705878
O17   O     O_R   0.155290 0.586170 0.756550 -0.549351
O18   O     O_R   0.844710 0.086170 0.243450 -0.549350
C7    C     C_R   0.132254 0.614772 0.933113 0.783223
C8    C     C_R   0.867746 0.114772 0.066887 0.783220
V3    V     V_3+5 0.240910 0.499900 0.616030 1.539774
V4    V     V_3+5 0.759090 0.999900 0.383970 1.539775
O19   O     O_3   0.311760 0.500540 0.867100 -0.364923
O20   O     O_3   0.688240 0.000540 0.132900 -0.364923
C9    C     C_3   0.112374 0.770209 0.000190 0.246940
C10   C     C_3   0.887626 0.270209 0.999807 0.246942
H1    H     H_    0.152139 0.788892 0.856648 0.125155
H2    H     H_    0.847861 0.288893 0.143349 0.125155
C11   C     C_3   0.039197 0.841117 0.065965 -0.070662
C12   C     C_3   0.960803 0.341116 0.934031 -0.070662
H3    H     H_    0.057583 0.894993 0.966596 0.099207
H4    H     H_    0.942416 0.394993 0.033399 0.099208
H5    H     H_    0.022824 0.673628 0.285628 0.204385
H6    H     H_    0.977177 0.173626 0.714374 0.204382
C13   C     C_3   0.988339 0.669629 0.153651 -0.351107
C14   C     C_3   0.011662 0.169629 0.846352 -0.351109
C15   C     C_3   0.008803 0.699250 0.790252 -0.048777
C16   C     C_3   0.991196 0.199252 0.209749 -0.048780
C17   C     C_3   0.061886 0.686066 0.968714 -0.077479
C18   C     C_3   0.938114 0.186066 0.031287 -0.077481
H7    H     H_    0.061097 0.709859 0.657392 0.172943
H8    H     H_    0.938901 0.209860 0.342608 0.172942
C19   C     C_3   0.938611 0.811619 0.037035 -0.046958
C20   C     C_3   0.061388 0.311619 0.962965 -0.046959
C21   C     C_3   0.907555 0.733861 0.167330 0.269751
C22   C     C_3   0.092446 0.233860 0.832673 0.269755
C23   C     C_3   0.946706 0.778789 0.823462 -0.412146
C24   C     C_3   0.053292 0.278790 0.176540 -0.412149
H9    H     H_    0.976378 0.828273 0.720369 0.167980
H10   H     H_    0.023619 0.328275 0.279629 0.167977
H11   H     H_    0.875541 0.765414 0.792003 0.233880
H12   H     H_    0.124456 0.265416 0.208002 0.233881
H13   H     H_    0.959596 0.605659 0.150596 0.121878
H14   H     H_    0.040404 0.105659 0.849410 0.121879
H15   H     H_    0.848028 0.704093 0.110937 0.107442
H16   H     H_    0.151972 0.204093 0.889067 0.107440
H17   H     H_    0.562658 0.808966 0.352736 0.134878
H18   H     H_    0.437342 0.308965 0.647264 0.134878
C25   C     C_2   0.437510 0.685961 0.348504 -0.330134
C26   C     C_2   0.562490 0.185961 0.651496 -0.330134
C27   C     C_2   0.447418 0.733236 0.506017 0.412334
C28   C     C_2   0.552582 0.233236 0.493983 0.412334
H19   H     H_    0.521528 0.803742 0.801748 0.179478
H20   H     H_    0.478473 0.303743 0.198252 0.179478
C29   C     C_2   0.554527 0.823118 0.657750 -0.265220
C30   C     C_2   0.445473 0.323118 0.342250 -0.265221
C31   C     C_2   0.526439 0.791763 0.496074 -0.172593
C32   C     C_2   0.473561 0.291764 0.503926 -0.172592
H21   H     H_    0.485158 0.694575 0.213080 0.106230
H22   H     H_    0.514842 0.194575 0.786920 0.106229
Cl1   Cl    Cl    0.201301 0.760077 0.154757 -0.629090
Cl2   Cl    Cl    0.798700 0.260077 0.845239 -0.629091
Cl3   Cl    Cl    0.364359 0.732440 0.722540 -0.605294
Cl4   Cl    Cl    0.635641 0.232441 0.277460 -0.605295
C33   C     C_3   0.045626 0.874163 0.272790 -0.608524
H23   H     H_    0.037486 0.823180 0.381198 0.252253
H24   H     H_    0.114417 0.904005 0.274115 0.226076
H25   H     H_    0.994157 0.923058 0.320706 0.193150
C34   C     C_3   0.954375 0.374162 0.727205 -0.608526
H26   H     H_    0.962515 0.323178 0.618800 0.252253
H27   H     H_    0.885585 0.404004 0.725878 0.226076
H28   H     H_    0.005845 0.423056 0.679288 0.193151
Cl5   Cl    Cl    0.860009 0.755128 0.414479 -0.751984
Cl6   Cl    Cl    0.139992 0.255127 0.585523 -0.751979
C35   C     C_3   0.950612 0.622521 0.747905 -0.708192
H29   H     H_    0.884847 0.617487 0.851734 0.210299
H30   H     H_    0.932781 0.626244 0.598874 0.252022
H31   H     H_    0.989273 0.563888 0.756288 0.182175
C36   C     C_3   0.049387 0.122523 0.252098 -0.708156
H32   H     H_    0.115159 0.117496 0.148286 0.210301
H33   H     H_    0.067205 0.126240 0.401143 0.252008
H34   H     H_    0.010731 0.063888 0.243685 0.182164

loop_
_geom_bond_atom_site_label_1
_geom_bond_atom_site_label_2
_ccdc_geom_bond_type
V4    O20   S    
C34   H26   S    
C35   H29   S    
C23   H11   S    
O13   V3    S    
C25   H21   S    
O4    C2    A    
V1    O19   S    
C36   H32   S    
O9    V1    S    
C30   C32   D    
O3    C1    A    
C11   C19   S    
C12   C20   S    
O12   V4    S    
C2    O12   A    
O7    C3    A    
C10   Cl2   S    
O5    C7    A    
O7    V1    S    
O6    C8    A    
O8    V2    S    
C21   Cl5   S    
O3    V1    S    
O14   V4    S    
C19   C23   S    
C6    C19   S    
C1    O11   A    
C15   C35   S    
C35   H30   S    
O17   V3    S    
H5    C13   S    
H6    C14   S    
O2    C4    A    
C36   H33   S    
C20   C22   S    
O11   V3    S    
C15   C17   S    
C26   H22   S    
C16   C18   S    
C4    C29   S    
H20   C30   S    
O8    C4    A    
H19   C29   S    
C9    Cl1   S    
C14   H14   S    
O15   V3    S    
C9    C11   S    
C24   H12   S    
C19   C21   S    
C22   Cl6   S    
C33   H23   S    
C15   H7    S    
V3    O19   S    
H18   C32   S    
O10   V2    S    
O1    V3    S    
C15   C23   S    
C33   H24   S    
C16   C36   S    
C2    C26   S    
C35   H31   S    
C23   H9    S    
C28   C32   S    
C9    C17   S    
O16   C6    A    
C10   C18   S    
C29   C31   D    
O13   V1    S    
C36   H34   S    
C13   H13   S    
V2    O20   S    
C7    C17   S    
C16   H8    S    
C8    C18   S    
O16   V4    S    
C10   C12   S    
O18   V4    S    
O5    V1    S    
O17   C7    A    
O6    V2    S    
O10   C6    A    
O18   C8    A    
H17   C31   S    
C12   C34   S    
O2    V4    S    
O15   C5    A    
C11   H3    S    
C14   C18   S    
C12   H4    S    
C21   H15   S    
C5    C20   S    
C22   H16   S    
O9    C5    A    
C9    H1    S    
C13   C21   S    
C24   H10   S    
C27   C31   S    
O14   V2    S    
C28   Cl4   S    
C27   Cl3   S    
C1    C25   S    
O4    V2    S    
C14   C22   S    
C33   H25   S    
O1    C3    A    
C3    C30   S    
C10   H2    S    
C26   C28   D    
C34   H28   S    
C16   C24   S    
C34   H27   S    
C11   C33   S    
C25   C27   D    
C13   C17   S    
C20   C24   S    
