data_mof_unit_29352.cif
_audit_creation_date              2012-12-11T15:08:46-0500
_audit_creation_method            fapswitch 2.2
_symmetry_space_group_name_H-M    P1
_symmetry_Int_Tables_number       1
_space_group_crystal_system       triclinic
_cell_length_a                    19.530825
_cell_length_b                    11.369254
_cell_length_c                    18.706337
_cell_angle_alpha                 89.999641
_cell_angle_beta                  89.246155
_cell_angle_gamma                 89.99979
_cell_volume                      4153.39963757

loop_
_atom_site_label
_atom_site_type_symbol
_atom_type_description
_atom_site_fract_x
_atom_site_fract_y
_atom_site_fract_z
_atom_type_partial_charge
C1    C     C_R   0.272443 0.043003 0.854160 0.532757
C2    C     C_3   0.688496 0.528076 0.957453 -0.236431
C3    C     C_R   0.225618 0.538547 0.355187 0.547431
C4    C     C_R   0.471186 0.824432 0.646768 0.567675
C5    C     C_R   0.528814 0.824432 0.353231 0.567675
C6    C     C_R   0.971191 0.324433 0.646770 0.567673
C7    C     C_R   0.028811 0.324431 0.353229 0.567675
C8    C     C_R   0.262612 0.643190 0.642376 0.536289
C9    C     C_R   0.737390 0.643184 0.357622 0.536296
C10   C     C_R   0.762609 0.143181 0.642379 0.536286
C11   C     C_R   0.237389 0.143188 0.357624 0.536283
C12   C     C_3   0.479243 0.916128 0.035675 -0.108738
C13   C     C_3   0.811504 0.028073 0.042546 -0.236446
C14   C     C_3   0.520756 0.916127 0.964324 -0.108738
C15   C     C_3   0.979243 0.416128 0.035675 -0.108740
C16   C     C_3   0.020756 0.416127 0.964324 -0.108738
C17   C     C_3   0.431798 0.818928 0.006350 -0.157196
C18   C     C_3   0.568201 0.818928 0.993650 -0.157196
C19   C     C_3   0.931798 0.318928 0.006350 -0.157196
C20   C     C_3   0.068201 0.318928 0.993650 -0.157194
C21   C     C_3   0.473306 0.820459 0.935867 0.056675
C22   C     C_3   0.526694 0.820461 0.064133 0.056675
C23   C     C_3   0.973306 0.320459 0.935867 0.056675
C24   C     C_3   0.188496 0.028076 0.957453 -0.236430
C25   C     C_3   0.026694 0.320460 0.064133 0.056679
C26   C     C_3   0.320938 0.554152 0.962240 -0.233430
C27   C     C_3   0.679060 0.554165 0.037759 -0.233431
C28   C     C_3   0.820938 0.054152 0.962240 -0.233426
C29   C     C_3   0.179060 0.054165 0.037759 -0.233433
C30   C     C_3   0.180317 0.522560 0.026478 -0.209576
C31   C     C_3   0.819681 0.522560 0.973522 -0.209575
C32   C     C_3   0.680317 0.022560 0.026478 -0.209572
C33   C     C_R   0.727557 0.043002 0.145839 0.532753
C34   C     C_3   0.319682 0.022560 0.973522 -0.209577
C35   C     C_3   0.240531 0.706376 0.056626 -0.255314
C36   C     C_3   0.759469 0.706379 0.943373 -0.255307
C37   C     C_3   0.740531 0.206376 0.056626 -0.255315
C38   C     C_3   0.259469 0.206379 0.943373 -0.255306
C39   C     C_3   0.241128 0.573887 0.070069 0.064165
C40   C     C_3   0.758872 0.573890 0.929931 0.064162
C41   C     C_3   0.741128 0.073887 0.070069 0.064171
C42   C     C_3   0.258872 0.073889 0.929931 0.064161
C43   C     C_3   0.254774 0.610224 0.932057 0.054809
C44   C     C_R   0.772443 0.543003 0.854160 0.532757
C45   C     C_3   0.745226 0.610227 0.067942 0.054802
C46   C     C_3   0.754774 0.110224 0.932058 0.054809
C47   C     C_3   0.245226 0.110227 0.067942 0.054802
C48   C     C_3   0.195435 0.524567 0.945495 -0.253444
C49   C     C_3   0.804562 0.524564 0.054504 -0.253447
C50   C     C_3   0.695435 0.024567 0.945495 -0.253445
C51   C     C_3   0.304562 0.024564 0.054504 -0.253445
C52   C     C_3   0.238361 0.724798 0.974854 -0.225381
C53   C     C_3   0.761642 0.724800 0.025145 -0.225370
C54   C     C_3   0.738361 0.224798 0.974854 -0.225379
C55   C     C_R   0.227557 0.543002 0.145839 0.532764
C56   C     C_3   0.261642 0.224800 0.025145 -0.225370
C57   C     C_3   0.494554 0.713648 0.461009 -0.217412
C58   C     C_3   0.505438 0.713646 0.538989 -0.217424
C59   C     C_3   0.994566 0.213643 0.461013 -0.217302
C60   C     C_3   0.005452 0.213649 0.538992 -0.217484
C61   C     C_R   0.445740 0.817368 0.862441 0.533617
C62   C     C_R   0.554260 0.817369 0.137559 0.533617
C63   C     C_R   0.945740 0.317368 0.862441 0.533617
C64   C     C_R   0.054260 0.317369 0.137559 0.533616
C65   C     C_3   0.566452 0.898386 0.469389 -0.236522
C66   C     C_3   0.520296 0.723692 0.964562 -0.111810
C67   C     C_3   0.433543 0.898394 0.530607 -0.236515
C68   C     C_3   0.066447 0.398407 0.469381 -0.236513
C69   C     C_3   0.933544 0.398380 0.530612 -0.236520
C70   C     C_3   0.444722 0.910331 0.448019 -0.264459
C71   C     C_3   0.555275 0.910323 0.551976 -0.264465
C72   C     C_3   0.944714 0.410309 0.448021 -0.264485
C73   C     C_3   0.055278 0.410332 0.551972 -0.264463
C74   C     C_3   0.507637 0.836812 0.429878 0.029195
C75   C     C_3   0.492358 0.836811 0.570119 0.029207
C76   C     C_3   0.007636 0.336809 0.429878 0.029182
C77   C     C_3   0.479704 0.723693 0.035439 -0.111809
C78   C     C_3   0.992365 0.336812 0.570120 0.029203
C79   C     C_3   0.189688 0.656674 0.457863 -0.285481
C80   C     C_3   0.810314 0.656679 0.542136 -0.285483
C81   C     C_3   0.689692 0.156679 0.457863 -0.285484
C82   C     C_3   0.310307 0.156684 0.542140 -0.285481
C83   C     C_3   0.186869 0.650889 0.537541 -0.249095
C84   C     C_3   0.813136 0.650891 0.462457 -0.249095
C85   C     C_3   0.686867 0.150883 0.537541 -0.249096
C86   C     C_3   0.313129 0.150895 0.462462 -0.249090
C87   C     C_3   0.238324 0.452426 0.477243 -0.217991
C88   C     C_3   0.020296 0.223692 0.964562 -0.111808
C89   C     C_3   0.761680 0.452425 0.522763 -0.217976
C90   C     C_3   0.738330 0.952428 0.477232 -0.217942
C91   C     C_3   0.261677 0.952430 0.522768 -0.217972
C92   C     C_3   0.315570 0.611159 0.439945 0.121176
C93   C     C_3   0.684431 0.611160 0.560051 0.121170
C94   C     C_3   0.815574 0.111164 0.439949 0.121164
C95   C     C_3   0.184426 0.111156 0.560056 0.121158
C96   C     C_3   0.242569 0.564651 0.429809 0.044996
C97   C     C_3   0.757431 0.564655 0.570191 0.044996
C98   C     C_3   0.742575 0.064659 0.429806 0.044996
C99   C     C_3   0.979704 0.223693 0.035439 -0.111812
C100  C     C_3   0.257427 0.064658 0.570195 0.044995
C101  C     C_3   0.256536 0.605309 0.566600 0.025687
C102  C     C_3   0.743470 0.605307 0.433399 0.025698
C103  C     C_3   0.756533 0.105303 0.566601 0.025689
C104  C     C_3   0.243466 0.105308 0.433402 0.025689
C105  C     C_3   0.258554 0.473085 0.555806 -0.253208
C106  C     C_3   0.741457 0.473082 0.444197 -0.253213
C107  C     C_3   0.758548 0.973081 0.555801 -0.253213
C108  C     C_3   0.241459 0.973083 0.444200 -0.253214
C109  C     C_R   0.261991 0.642320 0.854927 0.530870
C110  C     C_3   0.311504 0.528073 0.042546 -0.236443
C111  C     C_R   0.738009 0.642321 0.145073 0.530875
C112  C     C_R   0.761991 0.142320 0.854927 0.530870
C113  C     C_R   0.238009 0.142321 0.145073 0.530870
C114  C     C_3   0.317631 0.652549 0.519744 -0.213531
C115  C     C_3   0.682374 0.652550 0.480252 -0.213524
C116  C     C_3   0.817630 0.152548 0.519749 -0.213523
C117  C     C_3   0.182365 0.152541 0.480255 -0.213516
C118  C     C_R   0.274379 0.038555 0.644817 0.547427
C119  C     C_R   0.725623 0.038558 0.355183 0.547419
C120  C     C_R   0.774381 0.538551 0.644814 0.547427
Cr1   Cr    Cr6+3 0.229620 0.836040 0.749110 1.072962
Cr2   Cr    Cr6+3 0.613980 0.676590 0.250790 1.012962
Cr3   Cr    Cr6+3 0.886020 0.176590 0.749210 1.012954
Cr4   Cr    Cr6+3 0.113980 0.176590 0.250790 1.012950
Cr5   Cr    Cr6+3 0.770380 0.836040 0.250890 1.072798
Cr6   Cr    Cr6+3 0.729620 0.336040 0.749110 1.072932
Cr7   Cr    Cr6+3 0.270380 0.336040 0.250890 1.072929
Cr8   Cr    Cr6+3 0.387630 0.990680 0.750730 1.008291
Cr9   Cr    Cr6+3 0.612370 0.990680 0.249270 1.008296
Cr10  Cr    Cr6+3 0.887630 0.490680 0.750730 1.008298
Cr11  Cr    Cr6+3 0.112370 0.490680 0.249270 1.008266
Cr12  Cr    Cr6+3 0.386020 0.676590 0.749210 1.012952
H1    H     H_    0.376965 0.806232 0.016769 0.091560
H2    H     H_    0.713226 0.745646 0.919614 0.106884
H3    H     H_    0.189000 0.939236 0.434338 0.175550
H4    H     H_    0.316848 0.433808 0.052333 0.129984
H5    H     H_    0.683157 0.433803 0.947673 0.129978
H6    H     H_    0.816849 0.933808 0.052333 0.129981
H7    H     H_    0.183157 0.933804 0.947673 0.129979
H8    H     H_    0.353158 0.570634 0.073007 0.115720
H9    H     H_    0.646840 0.570629 0.926984 0.115722
H10   H     H_    0.853158 0.070634 0.073007 0.115699
H11   H     H_    0.146840 0.070629 0.926984 0.115726
H12   H     H_    0.364981 0.614720 0.954312 0.136834
H13   H     H_    0.786772 0.245644 0.080385 0.106880
H14   H     H_    0.635019 0.614746 0.045683 0.136833
H15   H     H_    0.864981 0.114720 0.954312 0.136835
H16   H     H_    0.135019 0.114746 0.045683 0.136832
H17   H     H_    0.333333 0.471220 0.933258 0.120516
H18   H     H_    0.666667 0.471236 0.066745 0.120526
H19   H     H_    0.833333 0.971220 0.933258 0.120516
H20   H     H_    0.166667 0.971236 0.066745 0.120521
H21   H     H_    0.665622 0.936991 0.047356 0.097574
H22   H     H_    0.334376 0.936991 0.952644 0.097573
H23   H     H_    0.165622 0.436991 0.047356 0.097573
H24   H     H_    0.213226 0.245646 0.919614 0.106885
H25   H     H_    0.834376 0.436991 0.952644 0.097573
H26   H     H_    0.709354 0.936354 0.925723 0.112515
H27   H     H_    0.290638 0.936351 0.074274 0.112513
H28   H     H_    0.209354 0.436354 0.925723 0.112515
H29   H     H_    0.790638 0.436351 0.074274 0.112512
H30   H     H_    0.467774 0.516589 0.335624 0.376437
H31   H     H_    0.532213 0.516578 0.664356 0.376400
H32   H     H_    0.967656 0.016384 0.335427 0.376192
H33   H     H_    0.032183 0.016626 0.664323 0.376449
H34   H     H_    0.366699 0.632510 0.545123 0.165016
H35   H     H_    0.273394 0.793968 0.958364 0.106190
H36   H     H_    0.633306 0.632515 0.454872 0.165022
H37   H     H_    0.866697 0.132509 0.545130 0.165016
H38   H     H_    0.133299 0.132492 0.454875 0.165035
H39   H     H_    0.726608 0.793974 0.041636 0.106195
H40   H     H_    0.773394 0.293968 0.958364 0.106190
H41   H     H_    0.226608 0.293974 0.041636 0.106192
H42   H     H_    0.185374 0.751374 0.961499 0.131147
H43   H     H_    0.814630 0.751376 0.038501 0.131142
H44   H     H_    0.685374 0.251374 0.961499 0.131147
H45   H     H_    0.623035 0.806236 0.983228 0.091554
H46   H     H_    0.314630 0.251377 0.038501 0.131145
H47   H     H_    0.633522 0.076722 0.036223 0.140174
H48   H     H_    0.366478 0.076722 0.963778 0.140176
H49   H     H_    0.133522 0.576722 0.036223 0.140173
H50   H     H_    0.866478 0.576722 0.963778 0.140175
H51   H     H_    0.149113 0.553227 0.916390 0.126253
H52   H     H_    0.850884 0.553215 0.083611 0.126250
H53   H     H_    0.649113 0.053228 0.916390 0.126252
H54   H     H_    0.350884 0.053215 0.083611 0.126254
H55   H     H_    0.524116 0.639156 0.438692 0.226194
H56   H     H_    0.876965 0.306232 0.016769 0.091559
H57   H     H_    0.475880 0.639151 0.561308 0.226172
H58   H     H_    0.024121 0.139146 0.438691 0.226347
H59   H     H_    0.975893 0.139157 0.561311 0.226149
H60   H     H_    0.440548 0.696731 0.452891 0.203718
H61   H     H_    0.559445 0.696726 0.547105 0.203716
H62   H     H_    0.940559 0.196721 0.452906 0.203765
H63   H     H_    0.059459 0.196734 0.547108 0.203685
H64   H     H_    0.606968 0.837601 0.457186 0.102448
H65   H     H_    0.393021 0.837627 0.542807 0.102444
H66   H     H_    0.106979 0.337665 0.457154 0.102449
H67   H     H_    0.123035 0.306235 0.983228 0.091554
H68   H     H_    0.893027 0.337607 0.542824 0.102448
H69   H     H_    0.600893 0.878968 0.581321 0.107903
H70   H     H_    0.399105 0.878978 0.418672 0.107909
H71   H     H_    0.100900 0.378979 0.581310 0.107899
H72   H     H_    0.899096 0.378940 0.418681 0.107909
H73   H     H_    0.463831 0.996294 0.065491 0.115177
H74   H     H_    0.536169 0.996291 0.934505 0.115179
H75   H     H_    0.963831 0.496294 0.065491 0.115172
H76   H     H_    0.036168 0.496291 0.934505 0.115179
H77   H     H_    0.454403 0.003501 0.432998 0.141501
H78   H     H_    0.195290 0.749453 0.082218 0.130330
H79   H     H_    0.545595 0.003494 0.566995 0.141501
H80   H     H_    0.954385 0.503479 0.432995 0.141486
H81   H     H_    0.045597 0.503499 0.566997 0.141497
H82   H     H_    0.422752 0.985855 0.553765 0.147999
H83   H     H_    0.577247 0.985845 0.446227 0.148007
H84   H     H_    0.922750 0.485839 0.553768 0.148004
H85   H     H_    0.077212 0.485879 0.446225 0.148010
H86   H     H_    0.136291 0.645472 0.440007 0.166867
H87   H     H_    0.863709 0.645481 0.559995 0.166873
H88   H     H_    0.636296 0.145484 0.440003 0.166878
H89   H     H_    0.804710 0.749454 0.917778 0.130336
H90   H     H_    0.363703 0.145491 0.559998 0.166876
H91   H     H_    0.205458 0.745006 0.439420 0.116087
H92   H     H_    0.794541 0.745010 0.560574 0.116086
H93   H     H_    0.705465 0.245012 0.439428 0.116080
H94   H     H_    0.294532 0.245014 0.560579 0.116079
H95   H     H_    0.170317 0.736624 0.555130 0.217441
H96   H     H_    0.829695 0.736622 0.444862 0.217459
H97   H     H_    0.670310 0.236616 0.555135 0.217463
H98   H     H_    0.329680 0.236628 0.444871 0.217442
H99   H     H_    0.145356 0.591827 0.555897 0.130073
H100  H     H_    0.695290 0.249453 0.082218 0.130333
H101  H     H_    0.854647 0.591820 0.444108 0.130064
H102  H     H_    0.645355 0.091810 0.555890 0.130063
H103  H     H_    0.354645 0.091834 0.444111 0.130075
H104  H     H_    0.686157 0.932546 0.480785 0.096074
H105  H     H_    0.313842 0.932541 0.519226 0.096071
H106  H     H_    0.186154 0.432558 0.480815 0.096101
H107  H     H_    0.813850 0.432542 0.519207 0.096078
H108  H     H_    0.722585 0.927457 0.593209 0.094834
H109  H     H_    0.277424 0.927467 0.406793 0.094841
H110  H     H_    0.222600 0.427461 0.593223 0.094836
H111  H     H_    0.304710 0.249454 0.917778 0.130336
H112  H     H_    0.777418 0.427461 0.406786 0.094832
H113  H     H_    0.322360 0.689847 0.405084 0.098266
H114  H     H_    0.677636 0.689847 0.594910 0.098267
H115  H     H_    0.822368 0.189855 0.405091 0.098259
H116  H     H_    0.177631 0.189845 0.594914 0.098267
H117  H     H_    0.536098 0.643178 0.935282 0.126205
H118  H     H_    0.463901 0.643180 0.064721 0.126206
H119  H     H_    0.036098 0.143178 0.935282 0.126208
H120  H     H_    0.963901 0.143180 0.064721 0.126187
H121  H     H_    0.310008 0.745864 0.517757 0.047723
H122  H     H_    0.286772 0.745644 0.080385 0.106886
H123  H     H_    0.690002 0.745868 0.482236 0.047722
H124  H     H_    0.810000 0.245865 0.517765 0.047726
H125  H     H_    0.189976 0.245860 0.482240 0.047710
H126  H     H_    0.264990 0.378329 0.453599 0.175885
H127  H     H_    0.735004 0.378334 0.546403 0.175912
H128  H     H_    0.765006 0.878336 0.453589 0.175928
H129  H     H_    0.234998 0.878342 0.546405 0.175903
H130  H     H_    0.311018 0.439248 0.565658 0.175567
H131  H     H_    0.688995 0.439243 0.434338 0.175561
H132  H     H_    0.811010 0.939241 0.565663 0.175546
O1    O     O_R   0.214130 0.708570 0.829890 -0.525407
O2    O     O_R   0.542830 0.717300 0.331620 -0.502020
O3    O     O_R   0.957170 0.217300 0.668380 -0.502059
O4    O     O_R   0.042830 0.217300 0.331620 -0.501861
O5    O     O_R   0.320870 0.624890 0.673130 -0.513769
O6    O     O_R   0.679130 0.624890 0.326870 -0.513759
O7    O     O_R   0.820870 0.124890 0.673130 -0.513769
O8    O     O_R   0.179130 0.124890 0.326870 -0.513751
O9    O     O_3   0.334430 0.834430 0.749680 -0.307649
O10   O     O_3   0.665570 0.834430 0.250320 -0.307626
O11   O     O_3   0.834430 0.334430 0.749680 -0.307642
O12   O     O_R   0.785870 0.708570 0.170110 -0.525420
O13   O     O_3   0.165570 0.334430 0.250320 -0.307649
O14   O     O_R   0.236050 0.959150 0.825270 -0.508329
O15   O     O_R   0.763950 0.959150 0.174730 -0.508367
O16   O     O_R   0.736050 0.459150 0.825270 -0.508337
O17   O     O_R   0.263950 0.459150 0.174730 -0.508334
O18   O     O_R   0.332100 0.076650 0.832310 -0.533231
O19   O     O_R   0.667900 0.076650 0.167690 -0.533223
O20   O     O_R   0.832100 0.576650 0.832310 -0.533228
O21   O     O_R   0.167900 0.576650 0.167690 -0.533231
O22   O     O_R   0.446500 0.918620 0.826240 -0.503548
O23   O     O_R   0.714130 0.208570 0.829890 -0.525411
O24   O     O_R   0.553500 0.918620 0.173760 -0.503547
O25   O     O_R   0.946500 0.418620 0.826240 -0.503548
O26   O     O_R   0.053500 0.418620 0.173760 -0.503552
O27   O     O_R   0.457310 0.715830 0.831280 -0.515050
O28   O     O_R   0.542690 0.715830 0.168720 -0.515051
O29   O     O_R   0.957310 0.215830 0.831280 -0.515041
O30   O     O_R   0.042690 0.215830 0.168720 -0.515099
O31   O     O_R   0.321000 0.623520 0.824130 -0.521311
O32   O     O_R   0.679000 0.623520 0.175870 -0.521307
O33   O     O_R   0.821000 0.123520 0.824130 -0.521309
O34   O     O_R   0.285870 0.208570 0.170110 -0.525408
O35   O     O_R   0.179000 0.123520 0.175870 -0.521316
O36   O     O_R   0.213990 0.710040 0.667000 -0.490968
O37   O     O_R   0.786010 0.710040 0.333000 -0.490989
O38   O     O_R   0.713990 0.210040 0.667000 -0.490972
O39   O     O_R   0.286010 0.210040 0.333000 -0.490973
O40   O     O_R   0.235920 0.960520 0.674260 -0.428502
O41   O     O_R   0.764080 0.960520 0.325740 -0.428557
O42   O     O_R   0.735920 0.460520 0.674260 -0.428504
O43   O     O_R   0.264080 0.460520 0.325740 -0.428504
O44   O     O_R   0.331960 0.078120 0.669410 -0.543061
O45   O     O_R   0.446360 0.919990 0.675230 -0.510480
O46   O     O_R   0.668040 0.078120 0.330590 -0.543051
O47   O     O_R   0.831960 0.578120 0.669410 -0.543058
O48   O     O_R   0.168040 0.578120 0.330590 -0.543058
O49   O     O_2   0.430074 0.482207 0.477033 -0.309838
O50   O     O_2   0.365923 0.392866 0.383151 -0.278328
O51   O     O_3   0.431809 0.574280 0.348998 -0.538747
O52   O     O_2   0.569929 0.482209 0.522956 -0.309847
O53   O     O_2   0.634080 0.392859 0.616837 -0.278346
O54   O     O_3   0.568194 0.574272 0.650993 -0.538697
O55   O     O_2   0.930081 0.982212 0.477038 -0.309698
O56   O     O_R   0.553640 0.919990 0.324770 -0.510482
O57   O     O_2   0.865930 0.892877 0.383152 -0.278549
O58   O     O_3   0.931813 0.074323 0.349016 -0.538511
O59   O     O_2   0.069925 0.982196 0.522968 -0.309836
O60   O     O_2   0.134075 0.892858 0.616853 -0.278287
O61   O     O_3   0.068189 0.074269 0.651004 -0.538746
O62   O     O_R   0.946360 0.419990 0.675230 -0.510478
O63   O     O_R   0.053640 0.419990 0.324770 -0.510511
O64   O     O_R   0.457170 0.717300 0.668380 -0.502031
S1    S     S_3+6 0.385697 0.508556 0.414081 -0.057372
S2    S     S_3+6 0.614305 0.508552 0.585909 -0.057374
S3    S     S_3+6 0.885704 0.008564 0.414089 -0.057377
S4    S     S_3+6 0.114301 0.008547 0.585921 -0.057371

loop_
_geom_bond_atom_site_label_1
_geom_bond_atom_site_label_2
_ccdc_geom_bond_type
C37   H100  S    
C9    O6    A    
C33   O19   A    
C113  O34   A    
C46   C112  S    
C11   O8    A    
C89   H127  S    
C90   H128  S    
C14   C21   S    
C90   C107  S    
Cr2   O10   S    
C54   H44   S    
C5    C74   S    
Cr9   O19   S    
C36   C53   S    
C95   S4    S    
C117  H38   S    
C18   H45   S    
C34   C42   S    
C89   C106  S    
C70   C74   S    
C35   H122  S    
C91   C100  S    
C94   H115  S    
C85   C103  S    
C59   C60   S    
C87   H106  S    
Cr9   O10   S    
Cr2   O28   S    
C57   H60   S    
Cr1   O1    S    
Cr11  O21   S    
C19   C99   S    
C61   O27   A    
C81   H88   S    
Cr4   O4    S    
C17   C21   S    
C19   C23   S    
C19   H56   S    
C49   H52   S    
C16   C20   S    
C91   H105  S    
C13   H10   S    
C31   H25   S    
Cr4   O35   S    
C71   H79   S    
C10   O7    A    
C14   H74   S    
C63   O29   A    
C17   H1    S    
C120  O47   A    
C104  C117  S    
C116  H124  S    
C66   C77   S    
C28   H15   S    
C94   S3    S    
C26   H17   S    
C10   O38   A    
C45   C111  S    
C82   H90   S    
C107  H108  S    
C58   H61   S    
O57   S3    D    
C12   H73   S    
C103  C116  S    
C79   C96   S    
Cr7   O34   S    
C93   S2    S    
C62   O24   A    
Cr8   O9    S    
C57   H55   S    
C88   C99   S    
C65   C74   S    
C2    C40   S    
C81   C98   S    
C55   O17   A    
C103  C107  S    
C77   H118  S    
C70   H70   S    
Cr8   O44   S    
C21   C66   S    
C84   C102  S    
C3    O48   A    
C110  H4    S    
Cr8   O18   S    
C86   C104  S    
C29   H16   S    
C56   H46   S    
C50   H26   S    
C38   H111  S    
C48   H28   S    
C28   C46   S    
C34   C51   S    
C29   C47   S    
C30   C48   S    
C65   H83   S    
C43   C52   S    
C6    C78   S    
C24   H11   S    
C12   C22   S    
C4    O64   A    
Cr1   O36   S    
C64   O26   A    
C2    H9    S    
C6    O62   A    
C8    O36   A    
C119  O46   A    
C108  H109  S    
C32   C41   S    
C49   H29   S    
C91   H129  S    
C65   H64   S    
Cr5   O37   S    
C45   C53   S    
Cr3   O33   S    
C69   H84   S    
Cr4   O30   S    
Cr3   O11   S    
C60   C78   S    
C92   C96   S    
C54   H40   S    
C108  H3    S    
C109  O1    A    
C53   H39   S    
C105  H130  S    
C109  O31   A    
C111  O12   A    
C62   O28   A    
Cr8   O45   S    
C25   C64   S    
C69   C72   S    
C87   C105  S    
Cr12  O27   S    
C61   O22   A    
C115  H123  S    
C107  H132  S    
C16   C23   S    
C23   C88   S    
C7    O63   A    
C67   C75   S    
Cr3   O29   S    
C93   C97   S    
C35   C52   S    
C53   H43   S    
Cr3   O7    S    
Cr4   O8    S    
C83   C101  S    
C18   C22   S    
C106  H112  S    
C36   H2    S    
Cr11  O63   S    
C79   H91   S    
C7    C76   S    
C27   H18   S    
C67   C70   S    
C13   H6    S    
C68   H85   S    
C51   H54   S    
C57   C58   S    
C44   O16   A    
C83   H99   S    
Cr12  O9    S    
Cr10  O25   S    
O52   S2    D    
C30   C39   S    
C37   C41   S    
Cr9   O56   S    
C40   C44   S    
C38   C56   S    
C28   H19   S    
C67   H82   S    
O59   S4    D    
C43   C109  S    
C115  H36   S    
C59   C76   S    
C15   H75   S    
O50   S1    D    
C47   C56   S    
C52   H42   S    
C24   C42   S    
C34   H48   S    
C80   C84   S    
C80   H87   S    
C13   C41   S    
Cr2   O32   S    
C15   C19   S    
Cr2   O2    S    
C10   C103  S    
C35   H78   S    
C52   H35   S    
C80   C97   S    
C20   C25   S    
C94   C98   S    
C44   O20   A    
C55   O21   A    
C31   C40   S    
O49   S1    D    
C89   H107  S    
C24   C29   S    
C4    C75   S    
C102  C115  S    
Cr10  O62   S    
C25   C99   S    
C39   C55   S    
C92   S1    S    
C9    C102  S    
C12   C17   S    
C69   H68   S    
C13   C28   S    
C11   C104  S    
C112  O23   A    
C119  O41   A    
C8    C101  S    
O51   S1    S    
C21   C61   S    
C72   H72   S    
C2    C27   S    
C27   C45   S    
C23   C63   S    
C5    O2    A    
C113  O35   A    
C92   H113  S    
C101  C114  S    
C73   H81   S    
C31   C49   S    
Cr5   O10   S    
C34   H22   S    
C24   H7    S    
Cr1   O40   S    
C85   H102  S    
C86   H98   S    
Cr1   O14   S    
Cr12  O5    S    
C94   C116  S    
C95   C100  S    
C47   C51   S    
C82   C86   S    
C95   C117  S    
C35   C39   S    
C80   H92   S    
C73   H71   S    
Cr6   O38   S    
C45   C49   S    
Cr7   O43   S    
C46   C54   S    
C17   C77   S    
C90   H104  S    
Cr7   O13   S    
C88   H119  S    
C30   H23   S    
C31   H50   S    
C30   H49   S    
C18   C66   S    
C105  H110  S    
C104  C108  S    
C82   H94   S    
C47   C113  S    
C114  H121  S    
C2    H5    S    
C91   C108  S    
C86   H103  S    
C22   C77   S    
C99   H120  S    
C67   H65   S    
C48   H51   S    
Cr4   O13   S    
C38   C42   S    
O53   S2    D    
Cr11  O48   S    
Cr12  O31   S    
C56   H41   S    
C33   C41   S    
C1    O14   A    
C79   C83   S    
O55   S3    D    
C27   H14   S    
C20   C88   S    
C106  H131  S    
H30   O51   S    
Cr1   O9    S    
Cr11  O13   S    
C15   C25   S    
C93   H114  S    
Cr2   O6    S    
C32   H21   S    
Cr3   O3    S    
C1    C42   S    
C6    O3    A    
C120  O42   A    
C59   H58   S    
C5    O56   A    
C58   C75   S    
Cr5   O12   S    
Cr6   O11   S    
C14   C18   S    
C38   H24   S    
C72   C76   S    
C98   C119  S    
C83   H95   S    
C81   H93   S    
Cr6   O42   S    
H31   O54   S    
Cr7   O39   S    
C1    O18   A    
C4    O45   A    
C15   C16   S    
O61   S4    S    
C68   H66   S    
C93   C115  S    
Cr10  O20   S    
C39   C110  S    
C118  O44   A    
C73   C78   S    
C32   H47   S    
C3    C96   S    
H33   O61   S    
C43   C48   S    
C26   C110  S    
C66   H117  S    
Cr6   O23   S    
Cr5   O41   S    
C69   C78   S    
C26   H12   S    
C87   H126  S    
C26   C43   S    
C114  H34   S    
Cr10  O47   S    
C59   H62   S    
C101  C105  S    
H32   O58   S    
C36   C40   S    
C79   H86   S    
Cr5   O15   S    
C68   C73   S    
C65   C71   S    
Cr6   O16   S    
C85   H97   S    
C89   C97   S    
C57   C74   S    
C20   H67   S    
C9    O37   A    
C8    O5    A    
C95   H116  S    
C22   C62   S    
C117  H125  S    
C11   O39   A    
Cr12  O64   S    
C87   C96   S    
C58   H57   S    
C118  O40   A    
C68   C76   S    
C32   C50   S    
C37   C54   S    
C12   C14   S    
C84   H96   S    
C33   O15   A    
C71   H69   S    
C111  O32   A    
Cr11  O26   S    
C82   C100  S    
Cr9   O24   S    
C16   H76   S    
Cr9   O46   S    
O60   S4    D    
C46   C50   S    
C112  O33   A    
Cr7   O17   S    
C97   C120  S    
C110  H8    S    
C84   H101  S    
Cr8   O22   S    
C29   H20   S    
C71   C75   S    
C72   H80   S    
C60   H59   S    
O58   S3    S    
C36   H89   S    
C51   H27   S    
C116  H37   S    
C102  C106  S    
C7    O4    A    
C81   C85   S    
C100  C118  S    
C60   H63   S    
C63   O25   A    
C70   H77   S    
C3    O43   A    
O54   S2    S    
C64   O30   A    
C37   H13   S    
Cr10  O11   S    
C50   H53   S    
C92   C114  S    
C90   C98   S    
