data_mof_unit_27711.cif
_audit_creation_date              2012-12-10T21:07:44-0500
_audit_creation_method            fapswitch 2.2
_symmetry_space_group_name_H-M    P1
_symmetry_Int_Tables_number       1
_space_group_crystal_system       triclinic
_cell_length_a                    8.607955
_cell_length_b                    17.505227
_cell_length_c                    16.768676
_cell_angle_alpha                 90.444237
_cell_angle_beta                  98.017774
_cell_angle_gamma                 90.206626
_cell_volume                      2501.9717824

loop_
_atom_site_label
_atom_site_type_symbol
_atom_type_description
_atom_site_fract_x
_atom_site_fract_y
_atom_site_fract_z
_atom_type_partial_charge
C1    C     C_R   0.505915 0.353227 0.500132 0.906143
C2    C     C_R   0.498410 0.646763 0.500156 0.905089
C3    C     C_1   0.556583 0.967434 0.501652 0.014150
C4    C     C_1   0.577699 0.034453 0.498064 0.042790
C5    C     C_R   0.377429 0.466256 0.823287 0.106196
C6    C     C_R   0.596136 0.549155 0.174578 0.111771
C7    C     C_R   0.381321 0.465578 0.739354 -0.043752
C8    C     C_R   0.597094 0.547555 0.258868 -0.045013
C9    C     C_R   0.619114 0.535240 0.756059 -0.084725
C10   C     C_R   0.400479 0.452135 0.245702 -0.066709
C11   C     C_R   0.624242 0.536653 0.840730 -0.125248
C12   C     C_R   0.394745 0.450171 0.161003 -0.137733
C13   C     C_R   0.500718 0.501513 0.875612 0.065399
C14   C     C_R   0.494809 0.499635 0.124135 0.064969
C15   C     C_1   0.498713 0.500546 0.963441 0.126010
C16   C     C_1   0.496831 0.499911 0.036286 0.127853
C17   C     C_R   0.201329 0.498384 0.479742 0.940989
C18   C     C_R   0.798632 0.501873 0.520273 0.933813
C19   C     C_2   0.039775 0.483037 0.472734 -0.295508
C20   C     C_2   0.960233 0.517127 0.527398 -0.298386
C21   C     C_R   0.598742 0.845453 0.570653 -0.033437
C22   C     C_R   0.510844 0.151999 0.425565 -0.029578
C23   C     C_R   0.584615 0.766369 0.568030 -0.199023
C24   C     C_R   0.483050 0.229922 0.430018 -0.204505
C25   C     C_R   0.500585 0.729597 0.501358 -0.118195
C26   C     C_R   0.534258 0.271304 0.500371 -0.120680
C27   C     C_R   0.421245 0.771507 0.436982 0.115421
C28   C     C_R   0.623943 0.235889 0.566729 0.112627
C29   C     C_R   0.430888 0.851787 0.439293 -0.026037
C30   C     C_R   0.653939 0.156989 0.563156 -0.024726
C31   C     C_R   0.525881 0.887721 0.504773 -0.003207
C32   C     C_R   0.589714 0.115279 0.493808 0.004147
H1    H     H_    0.642594 0.732775 0.617460 0.217242
H2    H     H_    0.419622 0.258710 0.378484 0.209752
H3    H     H_    0.287559 0.438106 0.699497 0.136201
H4    H     H_    0.674820 0.585252 0.297470 0.131864
H5    H     H_    0.711612 0.562353 0.728762 0.178304
H6    H     H_    0.324799 0.414953 0.274579 0.171118
N1    N     N_R   0.500040 0.500030 0.707230 -0.094308
N2    N     N_R   0.499960 0.499970 0.292770 -0.096309
O1    O     O_R   0.500000 0.389130 0.566570 -0.588780
O2    O     O_R   0.500000 0.610870 0.433430 -0.596809
O3    O     O_R   0.499990 0.389100 0.433480 -0.629085
O4    O     O_R   0.500010 0.610900 0.566520 -0.622874
O5    O     O_R   0.271750 0.500010 0.550980 -0.653394
O6    O     O_R   0.728250 0.499990 0.449020 -0.647241
O7    O     O_R   0.271740 0.499980 0.417890 -0.567558
O8    O     O_R   0.728260 0.500020 0.582110 -0.577309
Zn1   Zn    Zn3+2 0.500010 0.500020 0.588860 0.971313
Zn2   Zn    Zn3+2 0.499990 0.499980 0.411140 0.974336
C33   C     C_2   0.979148 0.416782 0.419700 0.434583
H7    H     H_    0.875668 0.385100 0.430512 0.079374
O9    O     O_2   0.046855 0.395761 0.364109 -0.565721
C34   C     C_2   0.021025 0.583177 0.580703 0.423764
H8    H     H_    0.124927 0.614668 0.570237 0.083573
O10   O     O_2   0.953042 0.604235 0.636174 -0.577083
C35   C     C_2   0.689114 0.882980 0.642595 0.464848
H9    H     H_    0.686299 0.944393 0.650276 0.109587
O11   O     O_2   0.766723 0.845529 0.694824 -0.545634
C36   C     C_2   0.456338 0.109521 0.349532 0.505870
H10   H     H_    0.492472 0.050983 0.341760 0.077592
O12   O     O_2   0.371809 0.139677 0.294165 -0.550225
N3    N     N_2   0.328188 0.732188 0.372232 -0.295953
H11   H     H_    0.338136 0.751718 0.315389 0.208720
C37   C     C_3   0.168309 0.717009 0.385043 -0.732934
H12   H     H_    0.108724 0.681686 0.334466 0.235235
H13   H     H_    0.103268 0.771440 0.387961 0.241721
H14   H     H_    0.166285 0.684942 0.441786 0.220835
N4    N     N_2   0.688260 0.280793 0.634817 -0.290430
H15   H     H_    0.672951 0.258758 0.689979 0.213468
C38   C     C_3   0.844860 0.309738 0.631604 -0.726617
H16   H     H_    0.878625 0.349916 0.682706 0.238882
H17   H     H_    0.849187 0.341052 0.574620 0.219351
H18   H     H_    0.930343 0.262060 0.635853 0.232583
C39   C     C_2   0.337523 0.897297 0.375023 0.375529
H19   H     H_    0.318475 0.877090 0.313213 0.063774
O13   O     O_2   0.275712 0.957036 0.391211 -0.549986
C40   C     C_2   0.755240 0.119194 0.630634 0.374327
H20   H     H_    0.760464 0.139978 0.691954 0.070973
O14   O     O_2   0.839124 0.065674 0.617804 -0.557655
N5    N     N_2   0.250010 0.430614 0.854425 -0.272424
H21   H     H_    0.205634 0.383454 0.821462 0.225881
C41   C     C_3   0.127157 0.482701 0.869572 -0.672291
H22   H     H_    0.071545 0.508382 0.812199 0.219715
H23   H     H_    0.174870 0.528799 0.912026 0.247100
H24   H     H_    0.036094 0.451139 0.897024 0.257941
N6    N     N_2   0.698913 0.599972 0.141327 -0.269425
H25   H     H_    0.802841 0.610196 0.178629 0.227314
C42   C     C_3   0.625601 0.670058 0.110703 -0.688669
H26   H     H_    0.586059 0.703726 0.160574 0.210014
H27   H     H_    0.523630 0.657737 0.064066 0.243327
H28   H     H_    0.711494 0.704714 0.082728 0.257043
C43   C     C_2   0.760740 0.575463 0.888640 0.387108
H29   H     H_    0.846671 0.604401 0.857820 0.088657
O15   O     O_2   0.780901 0.575393 0.962104 -0.556929
C44   C     C_2   0.282608 0.395582 0.115188 0.436178
H30   H     H_    0.208521 0.360150 0.147254 0.092423
O16   O     O_2   0.270747 0.388905 0.042120 -0.552683

loop_
_geom_bond_atom_site_label_1
_geom_bond_atom_site_label_2
_ccdc_geom_bond_type
O4    Zn1   S    
N6    H25   S    
N3    C37   S    
C43   H29   S    
C27   C29   A    
C28   N4    S    
N5    H21   S    
C21   C31   A    
C22   C32   A    
C22   C24   A    
C10   N2    A    
C24   C26   A    
C22   C36   S    
C40   O14   D    
C35   O11   D    
C15   C16   T    
C9    N1    A    
C36   O12   D    
C8    H4    S    
N4    C38   S    
C1    O3    A    
C19   C20   D    
C2    O4    A    
C37   H13   S    
C44   O16   D    
C42   H27   S    
C5    C13   A    
C11   C43   S    
C43   O15   D    
C18   O6    A    
O1    Zn1   S    
N5    C41   S    
O7    Zn2   S    
C34   O10   D    
C33   H7    S    
C20   C34   S    
C5    C7    A    
C40   H20   S    
C6    C8    A    
C23   H1    S    
C24   H2    S    
C6    N6    S    
C36   H10   S    
C33   O9    D    
C39   H19   S    
C21   C35   S    
C6    C14   A    
C5    N5    S    
C41   H22   S    
O5    Zn1   S    
C37   H14   S    
C44   H30   S    
C9    H5    S    
C42   H28   S    
C3    C31   S    
C9    C11   A    
C4    C32   S    
C10   C12   A    
O2    Zn2   S    
C1    O1    A    
O8    Zn1   S    
C41   H23   S    
C12   C14   A    
C13   C15   S    
C1    C26   S    
C14   C16   S    
C3    C4    T    
C38   H17   S    
C34   H8    S    
N1    Zn1   S    
C7    H3    S    
C12   C44   S    
C17   O7    A    
C17   O5    A    
C18   O8    A    
C38   H18   S    
O3    Zn2   S    
C29   C39   S    
C25   C27   A    
O6    Zn2   S    
C26   C28   A    
C10   H6    S    
C21   C23   A    
C38   H16   S    
C29   C31   A    
C30   C32   A    
C11   C13   A    
C35   H9    S    
C2    O2    A    
N2    Zn2   S    
C28   C30   A    
C17   C19   S    
C2    C25   S    
C18   C20   S    
C23   C25   A    
N4    H15   S    
N3    H11   S    
C30   C40   S    
C19   C33   S    
C41   H24   S    
C37   H12   S    
C39   O13   D    
N6    C42   S    
C7    N1    A    
C27   N3    S    
C8    N2    A    
C42   H26   S    
