data_mof_unit_9140.cif
_audit_creation_date              2012-12-11T16:24:18-0500
_audit_creation_method            fapswitch 2.2
_symmetry_space_group_name_H-M    P1
_symmetry_Int_Tables_number       1
_space_group_crystal_system       triclinic
_cell_length_a                    14.736893
_cell_length_b                    14.72218
_cell_length_c                    33.343843
_cell_angle_alpha                 95.853671
_cell_angle_beta                  96.228636
_cell_angle_gamma                 61.262755
_cell_volume                      6295.48304616

loop_
_atom_site_label
_atom_site_type_symbol
_atom_type_description
_atom_site_fract_x
_atom_site_fract_y
_atom_site_fract_z
_atom_type_partial_charge
C1    C     C_R   0.391173 0.699475 0.445916 0.597144
C2    C     C_1   0.304377 0.337908 0.229752 0.009689
C3    C     C_3   0.171517 0.335734 0.556335 -0.426832
C4    C     C_3   0.880892 0.127241 0.885573 -0.262039
C5    C     C_3   0.816860 0.080519 0.861780 -0.461701
C6    C     C_3   0.390344 0.990601 0.801631 -0.271671
C7    C     C_3   0.412033 0.074255 0.824651 -0.440164
C8    C     C_3   0.554553 0.699191 0.699250 -0.272511
C9    C     C_3   0.613782 0.759818 0.697898 -0.420723
C10   C     C_3   0.268274 0.722441 0.807694 -0.249717
C11   C     C_3   0.369435 0.620998 0.803819 -0.413908
C12   C     C_3   0.316477 0.483654 0.179805 -0.275594
C13   C     C_1   0.311518 0.345393 0.265967 -0.013897
C14   C     C_3   0.212817 0.577343 0.189456 -0.430721
C15   C     C_3   0.290168 0.449016 0.089073 -0.280982
C16   C     C_3   0.397825 0.411915 0.074550 -0.438826
C17   C     C_R   0.405577 0.386398 0.434007 0.560812
C18   C     C_R   0.286100 0.284839 0.102689 0.013171
C19   C     C_R   0.760625 0.370591 0.411363 0.001916
C20   C     C_R   0.792033 0.432702 0.393917 -0.151052
C21   C     C_R   0.824852 0.408127 0.354853 -0.159602
C22   C     C_R   0.828181 0.320376 0.332620 0.065103
C23   C     C_R   0.807147 0.251667 0.351574 0.088591
C24   C     C_R   0.773626 0.277334 0.390854 -0.125404
C25   C     C_R   0.323978 0.350860 0.309072 0.019883
C26   C     C_R   0.852795 0.295300 0.207588 0.338346
C27   C     C_R   0.841280 0.309806 0.288913 0.361378
C28   C     C_R   0.857575 0.375902 0.146693 -0.137954
C29   C     C_R   0.701470 0.409633 0.447757 0.549070
C30   C     C_R   0.881656 0.370542 0.107082 -0.140494
C31   C     C_R   0.910618 0.193766 0.098401 -0.077258
C32   C     C_R   0.887211 0.197795 0.138270 0.094253
C33   C     C_R   0.864535 0.288790 0.163616 0.040517
C34   C     C_R   0.912995 0.277979 0.083193 -0.011983
C35   C     C_R   0.370322 0.757715 0.409310 0.082009
C36   C     C_R   0.396827 0.263283 0.329130 -0.101425
C37   C     C_R   0.267496 0.827995 0.395888 0.072339
C38   C     C_R   0.246627 0.869080 0.357109 0.014250
C39   C     C_R   0.330699 0.838517 0.332658 0.008292
C40   C     C_R   0.432224 0.777004 0.347942 -0.138354
C41   C     C_R   0.393474 0.701490 0.561092 0.571694
C42   C     C_R   0.452887 0.735686 0.385518 0.046334
C43   C     C_R   0.318518 0.862599 0.208594 0.347664
C44   C     C_R   0.317182 0.858761 0.289618 0.340867
C45   C     C_R   0.244755 0.850555 0.138464 -0.122985
C46   C     C_R   0.232329 0.871332 0.097826 -0.128167
C47   C     C_R   0.419589 0.270696 0.370865 0.091729
C48   C     C_R   0.371826 0.915856 0.107883 -0.145594
C49   C     C_R   0.384027 0.895399 0.148561 -0.138230
C50   C     C_R   0.317270 0.867377 0.164603 0.030364
C51   C     C_R   0.292262 0.909188 0.082663 0.018104
C52   C     C_R   0.382282 0.375071 0.588595 0.014256
C53   C     C_R   0.407589 0.388636 0.549003 0.528183
C54   C     C_R   0.280833 0.402531 0.598636 0.049176
C55   C     C_R   0.262997 0.402784 0.639637 0.112491
C56   C     C_R   0.346595 0.374331 0.669703 0.029326
C57   C     C_R   0.446256 0.343748 0.658390 -0.155132
C58   C     C_R   0.290101 0.235088 0.170262 0.089951
C59   C     C_R   0.463641 0.344373 0.618678 -0.152551
C60   C     C_R   0.323030 0.372165 0.793509 0.351948
C61   C     C_R   0.335395 0.372808 0.712997 0.331722
C62   C     C_R   0.213503 0.395705 0.848742 -0.170292
C63   C     C_R   0.201536 0.368432 0.885619 -0.169142
C64   C     C_R   0.388545 0.282841 0.900471 0.088166
C65   C     C_R   0.702378 0.412880 0.562543 0.553029
C66   C     C_R   0.400358 0.311679 0.863162 0.137589
C67   C     C_R   0.312633 0.363162 0.836191 0.038936
C68   C     C_R   0.288346 0.307540 0.910929 0.005081
C69   C     C_R   0.285316 0.216501 0.128622 -0.119097
C70   C     C_R   0.758572 0.378519 0.602384 0.025834
C71   C     C_R   0.777468 0.449420 0.628774 -0.129396
C72   C     C_R   0.809878 0.429938 0.669429 0.100574
C73   C     C_R   0.822192 0.337858 0.684215 0.033901
C74   C     C_R   0.811968 0.263171 0.657568 -0.136538
C75   C     C_R   0.781488 0.281992 0.616668 0.072607
C76   C     C_R   0.861001 0.225938 0.823779 -0.079028
C77   C     C_R   0.368512 0.367692 0.392554 0.056612
C78   C     C_R   0.882892 0.215218 0.865901 0.008606
C79   C     C_R   0.901269 0.372503 0.870457 -0.140593
C80   C     C_R   0.292225 0.374937 0.118221 0.009044
C81   C     C_R   0.877311 0.382465 0.829200 -0.124908
C82   C     C_R   0.860992 0.307432 0.805670 0.022425
C83   C     C_1   0.847840 0.313331 0.762628 -0.030882
C84   C     C_1   0.837464 0.322099 0.726743 -0.024752
C85   C     C_R   0.909961 0.286736 0.889198 0.017088
C86   C     C_R   0.378993 0.750359 0.602396 0.027911
C87   C     C_R   0.279459 0.814092 0.616403 0.095061
C88   C     C_R   0.268562 0.840379 0.658219 0.105720
C89   C     C_R   0.289842 0.453123 0.372187 -0.158871
C90   C     C_R   0.356937 0.802059 0.685462 0.067138
C91   C     C_R   0.301568 0.392658 0.160995 0.017488
C92   C     C_R   0.456863 0.742540 0.671225 -0.017738
C93   C     C_R   0.466584 0.718616 0.629772 -0.158247
C94   C     C_R   0.348628 0.937614 0.825881 0.003919
C95   C     C_R   0.330515 0.964667 0.866821 -0.130544
C96   C     C_R   0.269450 0.838424 0.869585 0.091488
C97   C     C_R   0.288432 0.808654 0.828432 0.061241
C98   C     C_R   0.325076 0.860825 0.806608 0.017228
C99   C     C_1   0.335266 0.838850 0.763793 -0.037377
C100  C     C_1   0.344189 0.822561 0.728073 0.010372
C101  C     C_R   0.268283 0.444816 0.330701 -0.125743
C102  C     C_R   0.298275 0.322730 0.186483 0.060291
C103  C     C_R   0.288588 0.918502 0.888471 -0.002308
C104  C     C_R   0.964290 0.263631 0.045807 0.543340
C105  C     C_R   0.273222 0.259804 0.059584 0.532992
C106  C     C_R   0.258691 0.960342 0.044093 0.539844
C107  C     C_R   0.961942 0.267933 0.930655 0.534072
C108  C     C_R   0.270950 0.264806 0.945643 0.535950
C109  C     C_R   0.256400 0.964493 0.929228 0.537515
C110  C     C_3   0.136982 0.946698 0.342411 -0.271982
C111  C     C_3   0.125626 0.055312 0.341953 -0.417502
C112  C     C_3   0.192242 0.427929 0.566385 -0.251982
Cr1   Cr    Cr6+3 0.576280 0.580550 0.506370 1.026663
Cr2   Cr    Cr6+3 0.346780 0.572400 0.496520 1.028220
Cr3   Cr    Cr6+3 0.576960 0.347070 0.497150 1.046922
Cr4   Cr    Cr6+3 0.087320 0.083240 0.984860 0.998610
Cr5   Cr    Cr6+3 0.087720 0.316210 0.996740 1.012763
Cr6   Cr    Cr6+3 0.317350 0.090340 0.995890 1.006547
H1    H     H_    0.278521 0.148895 0.116117 0.122106
H2    H     H_    0.419612 0.944356 0.097037 0.133757
H3    H     H_    0.442082 0.907032 0.167810 0.133900
H4    H     H_    0.541263 0.325112 0.611780 0.144395
H5    H     H_    0.123797 0.389511 0.893040 0.141546
H6    H     H_    0.511438 0.322037 0.680659 0.140980
H7    H     H_    0.438760 0.189956 0.312202 0.117070
H8    H     H_    0.144871 0.436385 0.828881 0.140552
H9    H     H_    0.846353 0.170037 0.804520 0.119982
H10   H     H_    0.824266 0.191228 0.668784 0.112496
H11   H     H_    0.762323 0.523152 0.618413 0.142858
H12   H     H_    0.751582 0.227250 0.404156 0.129953
H13   H     H_    0.875895 0.446691 0.815363 0.110616
H14   H     H_    0.919149 0.429560 0.887226 0.131328
H15   H     H_    0.344229 0.025896 0.881937 0.145788
H16   H     H_    0.543293 0.668828 0.619216 0.140189
H17   H     H_    0.248948 0.528510 0.387801 0.138704
H18   H     H_    0.211213 0.512760 0.315274 0.121225
H19   H     H_    0.784806 0.504032 0.409345 0.143229
H20   H     H_    0.738801 0.164833 0.329293 0.229878
H21   H     H_    0.864008 0.096280 0.346773 0.220047
H22   H     H_    0.952257 0.073085 0.172874 0.265107
H23   H     H_    0.881629 0.437229 0.096024 0.141217
H24   H     H_    0.819942 0.129902 0.165265 0.251853
H25   H     H_    0.148385 0.937682 0.427546 0.229890
H26   H     H_    0.132969 0.833351 0.408295 0.229748
H27   H     H_    0.585908 0.603100 0.376156 0.232219
H28   H     H_    0.602327 0.703203 0.398417 0.224563
H29   H     H_    0.360683 0.122562 0.209976 0.236101
H30   H     H_    0.266951 0.112080 0.179757 0.238473
H31   H     H_    0.144299 0.081329 0.372707 0.148838
H32   H     H_    0.177753 0.056544 0.320605 0.176304
H33   H     H_    0.044475 0.110601 0.332210 0.173622
H34   H     H_    0.842799 0.460861 0.341251 0.133866
H35   H     H_    0.116190 0.922126 0.311853 0.182605
H36   H     H_    0.077460 0.952088 0.361508 0.130709
H37   H     H_    0.241948 0.267457 0.545021 0.151297
H38   H     H_    0.148979 0.315060 0.583343 0.183274
H39   H     H_    0.107262 0.355856 0.532457 0.136709
H40   H     H_    0.120859 0.496585 0.576833 0.168859
H41   H     H_    0.208202 0.448670 0.537945 0.147112
H42   H     H_    0.163960 0.371521 0.666126 0.243961
H43   H     H_    0.131524 0.499800 0.667589 0.252699
H44   H     H_    0.493664 0.151688 0.927605 0.250777
H45   H     H_    0.838811 0.447419 0.164694 0.143691
H46   H     H_    0.465753 0.264229 0.955841 0.237888
H47   H     H_    0.533947 0.320267 0.874119 0.247924
H48   H     H_    0.547836 0.205620 0.852206 0.240086
H49   H     H_    0.738572 0.142712 0.852349 0.165109
H50   H     H_    0.856884 0.032891 0.834882 0.146292
H51   H     H_    0.807668 0.028873 0.881184 0.141898
H52   H     H_    0.961612 0.064177 0.890917 0.177039
H53   H     H_    0.846171 0.157474 0.915185 0.157023
H54   H     H_    0.843982 0.137017 0.590445 0.220932
H55   H     H_    0.719569 0.185763 0.601818 0.223948
H56   H     H_    0.933025 0.121973 0.080117 0.151054
H57   H     H_    0.473431 0.123118 0.385803 0.227732
H58   H     H_    0.566192 0.153473 0.376933 0.223321
H59   H     H_    0.848476 0.485468 0.724580 0.236141
H60   H     H_    0.885327 0.513647 0.684013 0.234958
H61   H     H_    0.339364 0.139106 0.836028 0.160980
H62   H     H_    0.471180 0.041149 0.850118 0.147724
H63   H     H_    0.442587 0.105917 0.803927 0.170832
H64   H     H_    0.463775 0.930258 0.788986 0.146658
H65   H     H_    0.333496 0.027310 0.775850 0.163307
H66   H     H_    0.638546 0.753545 0.666986 0.159261
H67   H     H_    0.171043 0.864399 0.078986 0.131546
H68   H     H_    0.564154 0.842840 0.707041 0.151043
H69   H     H_    0.683939 0.727826 0.719127 0.159431
H70   H     H_    0.537831 0.700671 0.731025 0.144161
H71   H     H_    0.604910 0.616337 0.690097 0.177286
H72   H     H_    0.151664 0.931608 0.590329 0.222642
H73   H     H_    0.140556 0.823918 0.595720 0.231145
H74   H     H_    0.423447 0.630459 0.785983 0.149205
H75   H     H_    0.407295 0.595611 0.834243 0.169178
H76   H     H_    0.352898 0.559797 0.788173 0.175769
H77   H     H_    0.215348 0.708613 0.824444 0.184255
H78   H     H_    0.496498 0.754445 0.329304 0.140090
H79   H     H_    0.228365 0.744648 0.777281 0.148572
H80   H     H_    0.157504 0.836595 0.899548 0.250190
H81   H     H_    0.281117 0.760420 0.918374 0.235589
H82   H     H_    0.122575 0.867050 0.665377 0.226620
H83   H     H_    0.133181 0.975163 0.660265 0.228148
H84   H     H_    0.160354 0.602081 0.161652 0.148311
H85   H     H_    0.174831 0.558198 0.211809 0.160889
H86   H     H_    0.225947 0.642892 0.202470 0.171004
H87   H     H_    0.367795 0.461643 0.208016 0.153086
H88   H     H_    0.357565 0.505874 0.160053 0.148817
H89   H     H_    0.193549 0.826930 0.149752 0.130685
H90   H     H_    0.453886 0.405965 0.100566 0.156839
H91   H     H_    0.425526 0.334877 0.057998 0.159724
H92   H     H_    0.394499 0.468021 0.053816 0.141098
H93   H     H_    0.235299 0.455950 0.062518 0.152018
H94   H     H_    0.260269 0.529169 0.102694 0.142752
N1    N     N_R   0.813259 0.388971 0.228369 -0.236654
N2    N     N_R   0.379583 0.888350 0.274038 -0.233905
N3    N     N_R   0.379545 0.891115 0.234302 -0.237536
N4    N     N_R   0.241881 0.441593 0.770546 -0.257798
N5    N     N_3   0.812142 0.160026 0.330236 -0.609082
N6    N     N_3   0.889093 0.107674 0.151882 -0.636712
N7    N     N_3   0.185768 0.857078 0.422203 -0.614131
N8    N     N_3   0.558038 0.664918 0.397904 -0.591284
N9    N     N_3   0.286099 0.165326 0.196438 -0.605020
N10   N     N_3   0.160409 0.430306 0.649832 -0.649874
N11   N     N_3   0.479198 0.228258 0.926803 -0.649919
N12   N     N_R   0.248292 0.442483 0.731083 -0.251057
N13   N     N_3   0.501696 0.286158 0.852160 -0.604119
N14   N     N_3   0.771708 0.203751 0.590166 -0.601712
N15   N     N_3   0.496521 0.180536 0.390657 -0.602896
N16   N     N_3   0.824724 0.507428 0.694891 -0.655705
N17   N     N_3   0.190319 0.850529 0.588130 -0.607451
N18   N     N_3   0.233153 0.785283 0.891923 -0.648565
N19   N     N_3   0.168064 0.903678 0.673508 -0.636511
N20   N     N_R   0.416353 0.303778 0.736017 -0.241810
N21   N     N_R   0.410063 0.303047 0.775369 -0.201834
N22   N     N_R   0.807389 0.396112 0.268132 -0.239944
N23   N     N_R   0.881330 0.215948 0.268325 -0.184738
N24   N     N_R   0.887545 0.208931 0.228505 -0.237099
N25   N     N_R   0.256029 0.833144 0.224243 -0.246401
N26   N     N_R   0.256173 0.830251 0.263986 -0.239007
O1    O     O_R   0.679450 0.499830 0.463150 -0.498170
O2    O     O_R   0.340240 0.172500 0.045430 -0.517501
O3    O     O_R   0.309670 0.000990 0.032050 -0.502483
O4    O     O_R   0.480650 0.664000 0.464630 -0.465894
O5    O     O_R   0.168330 0.982130 0.939200 -0.524674
O6    O     O_R   0.000140 0.178170 0.944610 -0.508857
O7    O     O_R   0.983010 0.336750 0.948660 -0.520588
O8    O     O_R   0.181800 0.312190 0.959860 -0.502971
O9    O     O_R   0.338500 0.175680 0.956950 -0.526305
O10   O     O_R   0.308050 0.003930 0.950020 -0.501337
O11   O     O_3   0.164130 0.163270 0.992500 -0.233408
O12   O     O_R   0.356040 0.477400 0.534170 -0.508287
O13   O     O_R   0.323930 0.675950 0.455370 -0.490959
O14   O     O_R   0.354700 0.475360 0.451930 -0.522454
O15   O     O_R   0.494470 0.320860 0.448390 -0.469947
O16   O     O_R   0.662580 0.357570 0.460050 -0.503980
O17   O     O_R   0.680900 0.502040 0.551870 -0.539187
O18   O     O_R   0.481990 0.666040 0.546870 -0.519287
O19   O     O_R   0.325370 0.678160 0.544080 -0.472069
O20   O     O_R   0.495910 0.323070 0.537100 -0.507063
O21   O     O_R   0.663920 0.359620 0.542290 -0.457005
O22   O     O_3   0.500010 0.500010 0.500010 -0.257109
O23   O     O_R   0.170070 0.978950 0.027680 -0.518874
O24   O     O_R   0.001760 0.175230 0.026640 -0.505248
O25   O     O_R   0.984760 0.333570 0.037150 -0.510937
O26   O     O_R   0.183410 0.309240 0.041890 -0.497904

loop_
_geom_bond_atom_site_label_1
_geom_bond_atom_site_label_2
_ccdc_geom_bond_type
C56   C61   S    
C65   O17   A    
H42   N10   S    
C55   C56   A    
Cr4   O6    S    
Cr1   O17   S    
C112  H41   S    
C73   C74   A    
C12   C91   S    
C19   C20   A    
C11   H76   S    
C87   C88   A    
C43   N3    A    
Cr6   O9    S    
C23   N5    S    
C97   C98   A    
C48   H2    S    
C104  O25   A    
Cr5   O8    S    
C8    H70   S    
C41   C86   S    
H27   N8    S    
C41   O18   A    
C17   O15   A    
C37   C38   A    
C30   H23   S    
C4    H52   S    
C62   C67   A    
C6    H64   S    
C26   N1    A    
C89   H17   S    
C64   C68   A    
C3    H39   S    
C16   H91   S    
C35   C37   A    
H81   N18   S    
C76   C78   A    
C42   N8    S    
H55   N14   S    
H48   N13   S    
C38   C39   A    
Cr6   O10   S    
C57   C59   A    
Cr4   O11   S    
C109  O5    A    
Cr6   O2    S    
C15   C16   S    
Cr2   O12   S    
C108  O8    A    
C95   H15   S    
C61   N20   A    
H57   N15   S    
C56   C57   A    
C36   C47   A    
C11   H74   S    
C5    H50   S    
C35   C42   A    
C2    C13   T    
C110  C111  S    
C92   C93   A    
C52   C59   A    
C15   H93   S    
Cr4   O23   S    
C43   N25   A    
C27   N22   A    
C63   C68   A    
Cr5   O26   S    
H54   N14   S    
C48   C51   A    
C74   H10   S    
C36   H7    S    
C109  O10   A    
C52   C54   A    
C8    C9    S    
C6    C94   S    
C14   H86   S    
N23   N24   A    
C70   C71   A    
C8    C92   S    
H82   N19   S    
C96   N18   S    
C38   C110  S    
C8    H71   S    
C73   C84   S    
H60   N16   S    
H29   N9    S    
Cr6   O3    S    
C27   N23   A    
H28   N8    S    
C18   C69   A    
C40   C42   A    
C66   C67   A    
Cr4   O5    S    
C49   H3    S    
C45   H89   S    
Cr1   O18   S    
H24   N6    S    
C21   C22   A    
C96   C97   A    
C13   C25   S    
C94   C95   A    
C104  O24   A    
C111  H31   S    
C90   C100  S    
C58   N9    S    
C95   C103  A    
C81   C82   A    
C21   H34   S    
C15   H94   S    
C74   C75   A    
C7    H63   S    
C54   C112  S    
C32   C33   A    
C51   C106  S    
C60   C67   S    
H26   N7    S    
C93   H16   S    
C1    O4    A    
C76   C82   A    
C39   C40   A    
C62   H8    S    
C30   C34   A    
C86   C87   A    
C72   C73   A    
C25   C36   A    
C9    H69   S    
C87   N17   S    
C46   C51   A    
Cr6   O11   S    
C106  O23   A    
C34   C104  S    
C64   N11   S    
C44   N26   A    
C12   H88   S    
C20   H19   S    
C10   C97   S    
C82   C83   S    
H30   N9    S    
N4    N12   A    
C4    C78   S    
C62   C63   A    
C110  H36   S    
C86   C93   A    
C24   H12   S    
C71   H11   S    
C17   C77   S    
H21   N5    S    
C26   C33   S    
C90   C92   A    
C83   C84   T    
C108  O9    A    
Cr1   O1    S    
C3    C112  S    
H73   N17   S    
Cr2   O14   S    
C14   H85   S    
C88   N19   S    
H47   N13   S    
C31   C34   A    
C7    H61   S    
C58   C69   A    
C29   O16   A    
C20   C21   A    
C41   O19   A    
C64   C66   A    
Cr3   O22   S    
C6    C7    S    
C4    H53   S    
C112  H40   S    
H20   N5    S    
C55   N10   S    
C58   C102  A    
C78   C85   A    
H22   N6    S    
C48   C49   A    
Cr1   O22   S    
C12   C14   S    
C28   C33   A    
C9    H68   S    
C22   C27   S    
C110  H35   S    
C49   C50   A    
C44   N2    A    
C107  O6    A    
C3    H37   S    
C47   C77   A    
C106  O3    A    
N1    N22   A    
C19   C29   S    
C111  H32   S    
C79   C85   A    
C52   C53   S    
C1    C35   S    
C79   C81   A    
C40   H78   S    
C101  H18   S    
C26   N24   A    
H58   N15   S    
C54   C55   A    
C5    H51   S    
C53   O20   A    
C37   N7    S    
C65   O21   A    
N2    N3    A    
C10   H79   S    
C107  O7    A    
C31   C32   A    
C60   N21   A    
C11   H75   S    
C88   C90   A    
C4    C5    S    
C16   H90   S    
Cr3   O20   S    
C111  H33   S    
C63   H5    S    
H80   N18   S    
H43   N10   S    
C39   C44   S    
C77   C89   A    
Cr5   O7    S    
C68   C108  S    
C17   O14   A    
C75   N14   S    
C99   C100  T    
C6    H65   S    
C103  C109  S    
H72   N17   S    
Cr3   O15   S    
C12   H87   S    
C85   C107  S    
C80   C91   A    
C28   C30   A    
C19   C24   A    
C60   N4    A    
C61   N12   A    
C71   C72   A    
C9    H66   S    
Cr3   O21   S    
C10   H77   S    
Cr5   O11   S    
H59   N16   S    
H46   N11   S    
C25   C101  A    
Cr3   O16   S    
C45   C50   A    
C59   H4    S    
C105  O26   A    
Cr2   O13   S    
C14   H84   S    
C66   N13   S    
C16   H92   S    
C3    H38   S    
C105  O2    A    
C69   H1    S    
C7    H62   S    
C53   O12   A    
C79   H14   S    
C46   H67   S    
C89   C101  A    
Cr2   O19   S    
C15   C80   S    
C18   C105  S    
C81   H13   S    
C10   C11   S    
C23   C24   A    
H25   N7    S    
Cr5   O25   S    
C45   C46   A    
H83   N19   S    
C43   C50   S    
C47   N15   S    
H44   N11   S    
C18   C80   A    
C98   C99   S    
C72   N16   S    
C96   C103  A    
C70   C75   A    
Cr1   O4    S    
C76   H9    S    
C2    C102  S    
C22   C23   A    
Cr4   O24   S    
C91   C102  A    
C94   C98   A    
C5    H49   S    
N25   N26   A    
Cr2   O22   S    
C29   O1    A    
C32   N6    S    
C1    O13   A    
C65   C70   S    
C28   H45   S    
N20   N21   A    
C57   H6    S    
C31   H56   S    
