data_mof_unit_19654.cif
_audit_creation_date              2012-10-26T21:23:30-0400
_audit_creation_method            fapswitch 2.2
_symmetry_space_group_name_H-M    P1
_symmetry_Int_Tables_number       1
_space_group_crystal_system       triclinic
_cell_length_a                    27.787704
_cell_length_b                    10.93028
_cell_length_c                    9.690854
_cell_angle_alpha                 90.281848
_cell_angle_beta                  90.095111
_cell_angle_gamma                 90.602912
_cell_volume                      2943.17486609

loop_
_atom_site_label
_atom_site_type_symbol
_atom_type_description
_atom_site_fract_x
_atom_site_fract_y
_atom_site_fract_z
_atom_type_partial_charge
C1    C     C_R   0.500501 0.265382 0.499842 0.552054
C2    C     C_R   0.973897 0.393524 0.467017 0.034335
C3    C     C_R   0.975671 0.603782 0.559484 0.015532
C4    C     C_R   0.407445 0.498910 0.500006 0.550494
C5    C     C_R   0.949519 0.499965 0.511490 0.022554
C6    C     C_R   0.946874 0.301090 0.398830 -0.100212
C7    C     C_R   0.896957 0.305309 0.392163 -0.120063
C8    C     C_R   0.872266 0.404144 0.449082 0.023909
C9    C     C_R   0.898477 0.502898 0.506537 -0.028363
C10   C     C_R   0.873612 0.604767 0.558342 0.026065
C11   C     C_R   0.823083 0.604627 0.554931 0.398083
C12   C     C_R   0.279207 0.497239 0.628007 -0.063616
C13   C     C_R   0.821801 0.407723 0.447578 0.401271
C14   C     C_R   0.721355 0.503275 0.625571 -0.057452
C15   C     C_R   0.671170 0.501446 0.625571 -0.146899
C16   C     C_R   0.499432 0.734658 0.500336 0.546794
C17   C     C_R   0.671119 0.507874 0.375317 -0.140235
C18   C     C_R   0.721301 0.509892 0.375637 -0.055096
C19   C     C_R   0.746622 0.507207 0.500674 0.240648
C20   C     C_R   0.024573 0.385405 0.485841 0.031754
C21   C     C_R   0.050901 0.494206 0.516713 -0.009664
C22   C     C_R   0.026679 0.604164 0.551184 0.020867
C23   C     C_R   0.253490 0.490988 0.503912 0.246090
C24   C     C_R   0.049356 0.271847 0.479297 0.255634
C25   C     C_R   0.104315 0.710136 0.567110 -0.121189
C26   C     C_R   0.949674 0.704169 0.612520 -0.143347
C27   C     C_R   0.899621 0.704122 0.612513 -0.110324
C28   C     C_R   0.592555 0.500869 0.500117 0.542276
C29   C     C_R   0.054462 0.711204 0.575314 -0.146692
C30   C     C_2   0.500516 0.932545 0.386957 -0.151681
C31   C     C_2   0.496941 0.866606 0.502851 -0.112971
C32   C     C_2   0.498332 0.066448 0.386607 -0.155320
C33   C     C_2   0.502841 0.133520 0.501984 -0.118633
C34   C     C_R   0.101848 0.492992 0.514600 -0.041156
C35   C     C_2   0.472493 0.426232 0.920629 0.437006
C36   C     C_2   0.479878 0.413688 0.077089 0.019139
C37   C     C_R   0.176953 0.384738 0.485384 0.399809
C38   C     C_R   0.178850 0.599071 0.532274 0.397919
C39   C     C_R   0.278141 0.486329 0.378174 -0.058460
C40   C     C_R   0.328366 0.488994 0.376453 -0.145563
C41   C     C_R   0.329343 0.499396 0.626677 -0.144201
C42   C     C_3   0.425831 0.248932 0.901864 -0.039383
C43   C     C_3   0.395803 0.179098 0.795639 -0.347210
C44   C     C_3   0.553830 0.647715 0.884827 0.029406
C45   C     C_R   0.126338 0.383252 0.489917 -0.019388
C46   C     C_3   0.594046 0.685565 0.983615 -0.404946
C47   C     C_3   0.044136 0.053692 0.456318 -0.002512
C48   C     C_3   0.051720 0.044922 0.299551 -0.284046
C49   C     C_3   0.072119 0.920658 0.259289 -0.462803
C50   C     C_R   0.100249 0.273641 0.477027 -0.116340
C51   C     C_R   0.128443 0.601659 0.537887 0.034856
C52   C     C_R   0.354430 0.495959 0.500810 0.001848
C53   C     C_R   0.645572 0.503240 0.500342 0.001793
Cu1   Cu    Cu3+1 0.500010 0.500020 0.638630 1.032703
Cu2   Cu    Cu3+1 0.499990 0.499980 0.361370 0.937920
H1    H     H_    0.348380 0.504273 0.724186 0.156873
H2    H     H_    0.490995 0.907811 0.603008 0.093511
H3    H     H_    0.493664 0.110529 0.287295 0.140773
H4    H     H_    0.260249 0.500735 0.725464 0.126072
H5    H     H_    0.509319 0.093203 0.601927 0.099556
H6    H     H_    0.466777 0.332362 0.128749 0.103488
H7    H     H_    0.503876 0.582889 0.108387 0.229372
H8    H     H_    0.120310 0.190089 0.468541 0.155420
H9    H     H_    0.652488 0.498152 0.723501 0.143582
H10   H     H_    0.740676 0.500750 0.722633 0.134534
H11   H     H_    0.877826 0.230946 0.341159 0.166896
H12   H     H_    0.258342 0.481662 0.281927 0.125647
H13   H     H_    0.963803 0.226651 0.344622 0.163306
H14   H     H_    0.346713 0.485724 0.278017 0.131988
H15   H     H_    0.405141 0.251453 0.999937 0.120052
H16   H     H_    0.460163 0.198624 0.916702 0.114803
H17   H     H_    0.415384 0.174294 0.696002 0.163257
H18   H     H_    0.388605 0.084646 0.832519 0.102489
H19   H     H_    0.360966 0.225838 0.779174 0.166484
H20   H     H_    0.521954 0.706014 0.905924 0.106494
H21   H     H_    0.567039 0.665631 0.779276 0.188118
H22   H     H_    0.626646 0.630450 0.963065 0.159828
H23   H     H_    0.123901 0.795022 0.584842 0.157977
H24   H     H_    0.603108 0.783832 0.968937 0.107378
H25   H     H_    0.582752 0.671532 0.092260 0.159584
H26   H     H_    0.018547 0.979415 0.484686 0.157021
H27   H     H_    0.077162 0.034706 0.516805 0.128183
H28   H     H_    0.016703 0.057332 0.246139 0.165695
H29   H     H_    0.076871 0.117559 0.263725 0.164998
H30   H     H_    0.107419 0.906688 0.310530 0.167964
H31   H     H_    0.077339 0.916537 0.145803 0.160000
H32   H     H_    0.046917 0.845984 0.289714 0.157080
H33   H     H_    0.966989 0.783261 0.658139 0.112888
H34   H     H_    0.652401 0.509929 0.277249 0.138472
H35   H     H_    0.881373 0.783016 0.654635 0.169590
H36   H     H_    0.740577 0.513383 0.278688 0.134279
H37   H     H_    0.038656 0.798444 0.597498 0.093614
H38   H     H_    0.504520 0.887451 0.287532 0.144371
N1    N     N_R   0.201947 0.491714 0.505924 -0.395078
N2    N     N_R   0.798279 0.506656 0.500867 -0.397909
N3    N     N_2   0.499480 0.498660 0.846910 -0.039628
N4    N     N_2   0.499460 0.498630 0.153040 -0.345012
O1    O     O_R   0.500010 0.321960 0.617040 -0.469657
O2    O     O_R   0.569740 0.500000 0.617090 -0.491075
O3    O     O_R   0.569730 0.499960 0.382940 -0.492035
O4    O     O_2   0.201041 0.280147 0.461699 -0.498872
O5    O     O_3   0.434012 0.368928 0.853718 -0.553657
O6    O     O_3   0.543195 0.522290 0.903097 -0.504148
O7    O     O_3   0.022151 0.164442 0.496547 -0.581476
O8    O     O_2   0.796403 0.312435 0.394878 -0.491505
O9    O     O_2   0.204642 0.702926 0.552821 -0.497408
O10   O     O_2   0.798922 0.701940 0.604232 -0.495130
O11   O     O_R   0.499990 0.321920 0.382900 -0.501965
O12   O     O_R   0.430270 0.500040 0.617060 -0.461070
O13   O     O_R   0.430260 0.500000 0.382910 -0.508185
O14   O     O_R   0.500010 0.678080 0.617100 -0.534582
O15   O     O_R   0.499990 0.678040 0.382960 -0.506245

loop_
_geom_bond_atom_site_label_1
_geom_bond_atom_site_label_2
_ccdc_geom_bond_type
C10   C27   A    
C43   H18   S    
C30   C32   S    
C4    O12   A    
C43   H17   S    
C22   C29   A    
Cu2   O15   S    
C49   H32   S    
C35   C36   S    
C32   H3    S    
C35   O5    S    
C1    C33   S    
C7    C8    A    
C35   N3    D    
C16   C31   S    
C12   C23   A    
C34   C51   A    
C8    C13   A    
C13   N2    A    
C18   H36   S    
C15   C53   A    
C30   H38   S    
C30   C31   D    
C42   H15   S    
C27   H35   S    
C18   C19   A    
C47   H27   S    
C44   H21   S    
C12   H4    S    
C20   C24   A    
C8    C9    A    
Cu2   O3    S    
C37   N1    A    
C15   H9    S    
C36   N4    D    
C9    C10   A    
C41   C52   A    
Cu1   N3    S    
C28   O3    A    
C43   H19   S    
C6    H13   S    
C21   C22   A    
C24   C50   A    
C50   H8    S    
Cu2   N4    S    
C2    C6    A    
C42   O5    S    
C44   O6    S    
C44   C46   S    
C25   C29   A    
C40   H14   S    
C2    C20   A    
C25   H23   S    
C49   H30   S    
C17   H34   S    
C13   O8    S    
C39   C40   A    
C38   C51   A    
C40   C52   A    
C48   H29   S    
Cu1   O12   S    
C24   O7    S    
C38   O9    S    
C44   H20   S    
C25   C51   A    
C41   H1    S    
C5    C9    A    
C12   C41   A    
H7    N4    S    
C47   C48   S    
C38   N1    A    
C17   C18   A    
C26   C27   A    
C34   C45   A    
C28   O2    A    
C48   C49   S    
C4    C52   S    
C33   H5    S    
Cu2   O13   S    
C11   O10   S    
Cu1   O2    S    
C2    C5    A    
C42   C43   S    
C37   C45   A    
C36   H6    S    
C17   C53   A    
C19   N2    S    
C16   O15   A    
C11   N2    A    
C4    O13   A    
Cu1   Cu2   S    
C47   O7    S    
C39   H12   S    
C14   C19   A    
C3    C26   A    
C3    C5    A    
C1    O1    A    
C46   H22   S    
C28   C53   S    
C48   H28   S    
C6    C7    A    
C21   C34   A    
C23   N1    S    
Cu2   O11   S    
C32   C33   D    
C31   H2    S    
C7    H11   S    
C37   O4    S    
C46   H24   S    
C45   C50   A    
C23   C39   A    
C42   H16   S    
C14   H10   S    
Cu1   O14   S    
C49   H31   S    
C47   H26   S    
C10   C11   A    
C1    O11   A    
C20   C21   A    
C26   H33   S    
N3    O6    S    
C14   C15   A    
Cu1   O1    S    
C3    C22   A    
C46   H25   S    
C29   H37   S    
C16   O14   A    
