data_mof_unit_10605.cif
_audit_creation_date              2013-03-05T16:00:49-0500
_audit_creation_method            fapswitch 2.2
_symmetry_space_group_name_H-M    P1
_symmetry_Int_Tables_number       1
_space_group_crystal_system       triclinic
_cell_length_a                    14.77721
_cell_length_b                    14.745539
_cell_length_c                    15.869475
_cell_angle_alpha                 76.19656
_cell_angle_beta                  102.497705
_cell_angle_gamma                 115.05564
_cell_volume                      3015.79034618

loop_
_atom_site_label
_atom_site_type_symbol
_atom_site_description
_atom_site_fract_x
_atom_site_fract_y
_atom_site_fract_z
_atom_type_partial_charge
O1    O     O_R   0.977910 0.338120 0.529720 -0.602937
O2    O     O_R   0.839850 0.379180 0.491640 -0.557428
C1    C     C_R   0.880489 0.312273 0.514102 0.808834
O3    O     O_R   0.069060 0.479460 0.639610 -0.576459
O4    O     O_R   0.931000 0.520530 0.601530 -0.518797
C2    C     C_R   0.999799 0.500144 0.659492 0.834218
Cu1   Cu    Cu3+1 0.081750 0.475690 0.522550 0.976205
Cu2   Cu    Cu3+1 0.918250 0.524310 0.477450 1.064261
O5    O     O_R   0.160150 0.620820 0.508360 -0.600702
O6    O     O_R   0.022090 0.661880 0.470280 -0.548758
O7    O     O_R   0.069000 0.479470 0.398470 -0.578437
O8    O     O_R   0.930940 0.520540 0.360390 -0.545461
C3    C     C_R   0.119577 0.687627 0.485370 0.813216
C4    C     C_R   0.000412 0.500169 0.340499 0.825106
C5    C     C_3   0.005952 0.401832 0.974360 0.195478
C6    C     C_3   0.908611 0.514007 0.930591 -0.400876
C7    C     C_3   0.907845 0.508926 0.029021 -0.401880
H1    H     H_    0.948251 0.338771 0.100382 0.169619
H2    H     H_    0.932723 0.339870 0.955903 0.131206
H3    H     H_    0.906425 0.587401 0.893221 0.239643
H4    H     H_    0.839542 0.452463 0.905205 0.202362
H5    H     H_    0.842749 0.439908 0.052065 0.193744
C8    C     C_1   0.002098 0.501395 0.250976 -0.049878
C9    C     C_3   0.004110 0.503212 0.917107 0.065630
C10   C     C_3   0.012499 0.405123 0.072671 -0.454054
C11   C     C_3   0.007794 0.505197 0.083425 0.050145
C12   C     C_3   0.100359 0.600314 0.046187 0.554055
C13   C     C_3   0.097098 0.595303 0.947421 -0.419108
C14   C     C_1   0.004390 0.502955 0.175573 0.066358
C15   C     C_1   0.001266 0.502303 0.824489 0.012671
C16   C     C_1   0.999968 0.501304 0.748905 -0.072683
H6    H     H_    0.166682 0.590852 0.936533 0.229322
H7    H     H_    0.096419 0.666133 0.903532 0.204349
H8    H     H_    0.081337 0.396009 0.110755 0.255979
C17   C     C_R   0.813075 0.204194 0.522304 -0.047252
C18   C     C_R   0.187722 0.795121 0.480212 -0.049425
C19   C     C_R   0.784797 0.026351 0.553312 -0.094583
C20   C     C_R   0.850666 0.127938 0.547905 -0.193066
C21   C     C_R   0.709091 0.177624 0.504733 -0.169108
C22   C     C_R   0.640600 0.075722 0.514851 0.039568
C23   C     C_R   0.679638 0.998827 0.534498 0.032118
C24   C     C_R   0.534739 0.049108 0.505208 0.075663
C25   C     C_R   0.467920 0.945840 0.505892 0.016375
C26   C     C_R   0.509211 0.871402 0.522881 -0.252488
C27   C     C_R   0.612917 0.896401 0.536991 0.335561
C28   C     C_R   0.493781 0.122212 0.498535 -0.177060
C29   C     C_R   0.390746 0.095811 0.489277 -0.208572
C30   C     C_R   0.324201 0.995920 0.485572 0.156498
C31   C     C_R   0.361732 0.920106 0.492219 0.117432
C32   C     C_R   0.220097 0.970821 0.476499 -0.175997
C33   C     C_R   0.152230 0.870673 0.475078 -0.123692
C34   C     C_R   0.291214 0.820912 0.485429 -0.208277
H9    H     H_    0.314573 0.761718 0.483486 0.152156
H10   H     H_    0.363022 0.154218 0.485447 0.149142
H11   H     H_    0.817279 0.970001 0.573836 0.193730
H12   H     H_    0.930985 0.146665 0.562973 0.160674
N1    N     N_R   0.795410 0.560790 0.443550 -0.290913
N2    N     N_R   0.204590 0.439170 0.556520 -0.190642
C35   C     C_R   0.709542 0.658782 0.344944 -0.237375
C36   C     C_R   0.790584 0.629038 0.368979 0.449152
C37   C     C_R   0.717578 0.518023 0.494224 0.413861
C38   C     C_R   0.627143 0.536735 0.465105 -0.125651
C39   C     C_R   0.628907 0.616134 0.394074 -0.046797
C40   C     C_R   0.536302 0.481090 0.505105 0.126010
C41   C     C_R   0.457040 0.517246 0.484821 0.033573
C42   C     C_R   0.467326 0.603519 0.419850 -0.228006
C43   C     C_R   0.549913 0.650996 0.373101 0.412341
C44   C     C_R   0.518775 0.386019 0.559360 -0.141614
C45   C     C_R   0.434559 0.335258 0.602821 -0.193557
C46   C     C_R   0.360800 0.374142 0.589784 0.151613
C47   C     C_R   0.368971 0.463950 0.528807 0.010166
C48   C     C_R   0.276437 0.321100 0.634485 -0.280915
C49   C     C_R   0.198876 0.355251 0.616916 0.104210
C50   C     C_R   0.286589 0.494026 0.513337 0.040590
H13   H     H_    0.284223 0.558914 0.465976 0.132136
H14   H     H_    0.425839 0.263344 0.645267 0.158795
H15   H     H_    0.710278 0.714643 0.286531 0.226791
H16   H     H_    0.566833 0.346347 0.565816 0.178206
H17   H     H_    0.269521 0.252393 0.681297 0.160012
N3    N     N_R   0.086894 0.377315 0.958712 0.140017
O9    O     O_R   0.180772 0.427479 0.987085 -0.307220
O10   O     O_R   0.064247 0.300271 0.920367 -0.322654
N4    N     N_R   0.092769 0.694738 0.054060 0.127677
O11   O     O_R   0.126991 0.729827 0.127569 -0.265666
O12   O     O_R   0.043703 0.738747 0.992237 -0.349423
N5    N     N_R   0.648556 0.816240 0.551615 0.116641
O13   O     O_R   0.603579 0.730208 0.600578 -0.333884
O14   O     O_R   0.713107 0.822073 0.504219 -0.334355
H18   H     H_    0.072473 0.852293 0.471181 0.193497
H19   H     H_    0.683168 0.238273 0.480869 0.160512
H20   H     H_    0.462875 0.791641 0.527327 0.171400
H21   H     H_    0.539350 0.200511 0.503723 0.139747
H22   H     H_    0.191303 0.028479 0.472241 0.149496
N6    N     N_R   0.553762 0.737633 0.306674 0.119964
O15   O     O_R   0.472699 0.736863 0.253986 -0.271396
O16   O     O_R   0.632030 0.822979 0.308912 -0.302237
H23   H     H_    0.132402 0.313051 0.649611 0.144569
N7    N     N_R   0.870519 0.675937 0.316144 0.155431
O17   O     O_R   0.855162 0.650416 0.239661 -0.331282
O18   O     O_R   0.940392 0.763591 0.329829 -0.330856
N8    N     N_R   0.735630 0.473438 0.583682 0.129268
O19   O     O_R   0.734341 0.516223 0.646023 -0.321579
O20   O     O_R   0.741300 0.385024 0.603624 -0.390763
H24   H     H_    0.411271 0.635671 0.402596 0.160295
H25   H     H_    0.895351 0.574839 0.038535 0.251076
N9    N     N_R   0.198930 0.601910 0.093600 0.144820
O21   O     O_R   0.281198 0.672858 0.066236 -0.258841
O22   O     O_R   0.206589 0.545172 0.169190 -0.340583

loop_
_geom_bond_atom_site_label_1
_geom_bond_atom_site_label_2
_geom_bond_distance
_ccdc_geom_bond_type
N8    O19   1.301272 A    
C37   N8    1.434588 S    
C35   H15   1.081820 S    
C27   N5    1.439393 S    
Cu1   Cu2   2.708784 S    
C34   H9    1.074520 S    
Cu1   O7    1.926618 S    
C11   C12   1.586429 S    
C19   C20   1.392309 A    
O4    C2    1.300851 A    
C7    C11   1.556952 S    
C40   C44   1.409494 A    
C48   H17   1.083861 S    
C36   N7    1.427101 S    
C45   C46   1.390933 A    
C15   C16   1.198994 T    
O7    C4    1.300478 A    
N5    O14   1.301229 A    
C5    C10   1.553264 S    
C28   H21   1.075223 S    
N9    O21   1.302082 A    
N7    O17   1.301033 A    
C45   H14   1.084346 S    
C24   C28   1.417718 A    
O5    C3    1.302720 A    
C38   C40   1.437196 A    
C5    H2    1.115647 S    
N4    O11   1.302067 A    
C44   C45   1.385936 A    
C43   N6    1.438151 S    
C46   C47   1.417144 A    
Cu1   N2    2.035087 S    
C18   C34   1.399257 A    
Cu2   O8    1.923047 S    
C10   H8    1.108616 S    
C48   C49   1.388717 A    
C22   C24   1.424645 A    
C2    C16   1.422555 S    
C35   C36   1.392609 A    
C6    C9    1.549150 S    
N6    O15   1.301419 A    
H1    C10   1.113839 S    
O3    Cu1   1.923045 S    
C44   H16   1.071826 S    
C39   C43   1.412842 A    
C50   H13   1.074891 S    
C29   C30   1.389070 A    
C42   H24   1.076281 S    
C13   H6    1.109480 S    
C17   C20   1.396919 A    
C3    C18   1.467986 S    
O3    C2    1.300074 A    
C21   C22   1.405370 A    
N5    O13   1.301464 A    
C25   C31   1.428619 A    
N1    C36   1.369039 A    
C12   N9    1.481044 S    
C10   C11   1.556831 S    
C41   C47   1.436540 A    
O1    C1    1.305793 A    
C4    C8    1.421967 S    
C17   C21   1.396114 A    
C25   C26   1.415848 A    
C38   C39   1.413908 A    
C7    H25   1.111565 S    
Cu2   N1    2.034734 S    
C47   C50   1.419491 A    
C5    N3    1.469911 S    
C1    C17   1.470241 S    
C6    H3    1.113103 S    
C31   C34   1.404469 A    
C32   C33   1.392389 A    
C32   H22   1.083954 S    
N6    O16   1.301320 A    
C26   H20   1.075307 S    
C18   C33   1.398549 A    
C29   H10   1.084605 S    
N3    O10   1.301016 A    
C22   C23   1.422356 A    
N4    O12   1.302398 A    
O8    C4    1.300177 A    
C13   H7    1.111192 S    
C49   H23   1.081717 S    
N7    O18   1.300146 A    
C24   C25   1.420235 A    
C8    C14   1.198862 T    
C26   C27   1.395329 A    
N2    C50   1.362675 A    
N8    O20   1.300381 A    
Cu1   O5    1.937937 S    
C28   C29   1.385559 A    
C5    C9    1.560955 S    
C21   H19   1.075038 S    
O1    Cu1   1.952301 S    
O2    Cu2   1.937937 S    
C9    C13   1.552014 S    
N3    O9    1.301460 A    
O6    C3    1.306757 A    
O4    Cu2   1.926617 S    
C6    H4    1.113357 S    
N1    C37   1.382451 A    
C35   C39   1.398787 A    
C7    H5    1.113668 S    
C40   C41   1.429525 A    
C12   N4    1.479219 S    
O2    C1    1.304753 A    
C33   H18   1.082693 S    
C6    C7    1.548154 S    
N9    O22   1.301647 A    
C30   C31   1.418441 A    
C30   C32   1.404145 A    
C42   C43   1.396522 A    
C19   C23   1.411200 A    
C37   C38   1.435193 A    
C9    C15   1.464388 S    
C19   H11   1.080698 S    
C20   H12   1.083143 S    
C11   C14   1.466093 S    
Cu2   O6    1.952301 S    
C41   C42   1.408086 A    
C12   C13   1.576063 S    
C23   C27   1.407783 A    
C46   C48   1.400424 A    
N2    C49   1.355570 A    
