data_mof_unit_46003.cif
_audit_creation_date              2013-03-05T16:09:50-0500
_audit_creation_method            fapswitch 2.2
_symmetry_space_group_name_H-M    P1
_symmetry_Int_Tables_number       1
_space_group_crystal_system       triclinic
_cell_length_a                    6.941383
_cell_length_b                    13.38318
_cell_length_c                    14.693722
_cell_angle_alpha                 98.987151
_cell_angle_beta                  89.882067
_cell_angle_gamma                 90.220408
_cell_volume                      1348.24494677

loop_
_atom_site_label
_atom_site_type_symbol
_atom_site_description
_atom_site_fract_x
_atom_site_fract_y
_atom_site_fract_z
_atom_type_partial_charge
O1    O     O_R   0.354890 0.151580 0.148210 -0.592715
O2    O     O_R   0.645110 0.848420 0.851790 -0.592715
O3    O     O_R   0.682370 0.152980 0.336770 -0.605755
O4    O     O_R   0.317630 0.847020 0.663230 -0.605755
O5    O     O_R   0.854980 0.348430 0.351800 -0.584511
O6    O     O_R   0.145020 0.651570 0.648200 -0.584511
C1    C     C_R   0.513695 0.131238 0.366451 0.915277
C2    C     C_R   0.486304 0.868762 0.633549 0.915276
O7    O     O_R   0.684450 0.139580 0.148000 -0.573553
O8    O     O_R   0.315550 0.860420 0.852000 -0.573553
O9    O     O_R   0.857080 0.334940 0.161680 -0.565096
O10   O     O_R   0.142920 0.665060 0.838320 -0.565096
C3    C     C_R   0.515510 0.112695 0.114010 1.017354
C4    C     C_R   0.484490 0.887305 0.885989 1.017354
O11   O     O_R   0.352790 0.165070 0.338330 -0.603643
O12   O     O_R   0.647210 0.834930 0.661670 -0.603643
O13   O     O_3   0.522170 0.314120 0.254710 -0.254445
O14   O     O_3   0.477830 0.685880 0.745290 -0.254444
V1    V     V_3+5 0.796120 0.238110 0.249130 1.248112
V2    V     V_3+5 0.203880 0.761890 0.750870 1.248111
O15   O     O_R   0.186930 0.347040 0.163240 -0.599917
O16   O     O_R   0.813070 0.652960 0.836760 -0.599917
C5    C     C_R   0.018428 0.368489 0.133974 1.143301
C6    C     C_R   0.981572 0.631511 0.866025 1.143301
O17   O     O_R   0.184850 0.360440 0.352010 -0.597144
O18   O     O_R   0.815150 0.639560 0.647990 -0.597144
C7    C     C_R   0.015853 0.387351 0.385965 1.000067
C8    C     C_R   0.984147 0.612649 0.614035 1.000067
V3    V     V_3+5 0.296410 0.261900 0.250880 1.233556
V4    V     V_3+5 0.703590 0.738100 0.749120 1.233556
O19   O     O_3   0.020490 0.185890 0.245290 -0.286237
O20   O     O_3   0.979510 0.814110 0.754710 -0.286237
C9    C     C_1   0.005176 0.466918 0.466333 -0.191010
C10   C     C_1   0.994824 0.533082 0.533667 -0.191010
C11   C     C_3   0.076200 0.588565 0.033851 0.308372
C12   C     C_3   0.923800 0.411435 0.966149 0.308372
C13   C     C_3   0.902257 0.539809 0.074026 0.294133
C14   C     C_3   0.097743 0.460191 0.925974 0.294133
C15   C     C_3   0.009364 0.437956 0.063760 -0.425052
C16   C     C_3   0.990636 0.562043 0.936240 -0.425052
C17   C     C_3   0.187657 0.487200 0.023280 -0.340933
C18   C     C_3   0.812343 0.512800 0.976719 -0.340932
H1    H     H_    0.341293 0.478152 0.041118 0.200325
H2    H     H_    0.658707 0.521848 0.958881 0.200325
C19   C     C_3   0.401925 0.958140 0.424810 -0.112767
C20   C     C_3   0.598075 0.041860 0.575190 -0.112767
C21   C     C_3   0.579742 0.910881 0.465334 -0.107730
C22   C     C_3   0.420258 0.089119 0.534666 -0.107729
H3    H     H_    0.645863 0.837084 0.437160 0.143981
H4    H     H_    0.354137 0.162915 0.562840 0.143981
H5    H     H_    0.320851 0.924025 0.362523 0.151084
H6    H     H_    0.679149 0.075975 0.637477 0.151084
C23   C     C_3   0.494226 0.938847 0.562686 -0.111843
C24   C     C_3   0.505774 0.061152 0.437314 -0.111842
C25   C     C_3   0.316074 0.985325 0.522938 -0.104256
C26   C     C_3   0.683926 0.014675 0.477062 -0.104256
H7    H     H_    0.163939 0.973124 0.542093 0.124414
H8    H     H_    0.836061 0.026876 0.457907 0.124414
C27   C     C_1   0.504910 0.033108 0.033658 -0.153528
C28   C     C_1   0.495090 0.966892 0.966342 -0.153528
N1    N     N_R   0.795866 0.588364 0.154461 0.255137
O21   O     O_R   0.708811 0.673724 0.151847 -0.336596
O22   O     O_R   0.790636 0.548420 0.229598 -0.402822
N2    N     N_R   0.204134 0.411636 0.845539 0.255137
O23   O     O_R   0.291189 0.326276 0.848152 -0.336596
O24   O     O_R   0.209364 0.451580 0.770402 -0.402822
N3    N     N_R   0.158338 0.685337 0.075494 0.256775
O25   O     O_R   0.228897 0.695462 0.158351 -0.335599
O26   O     O_R   0.157896 0.762414 0.031516 -0.406737
N4    N     N_R   0.841661 0.314663 0.924505 0.256775
O27   O     O_R   0.771103 0.304538 0.841649 -0.335599
O28   O     O_R   0.842103 0.237585 0.968484 -0.406737

loop_
_geom_bond_atom_site_label_1
_geom_bond_atom_site_label_2
_geom_bond_distance
_ccdc_geom_bond_type
C22   C25   1.549281 S    
V4    O20   2.160869 S    
O13   V3    1.710846 S    
C12   C18   1.550721 S    
O4    C2    1.296399 A    
V1    O19   1.706725 S    
C21   H3    1.110136 S    
C7    C9    1.463324 S    
C22   C24   1.539361 S    
O9    V1    2.005823 S    
C11   C13   1.530825 S    
O3    C1    1.296398 A    
C19   H5    1.110138 S    
O12   V4    2.002462 S    
C20   H6    1.110138 S    
C19   C21   1.550729 S    
O9    C5    1.293461 A    
C13   C18   1.550801 S    
N1    O22   1.300034 A    
O7    C3    1.302723 A    
O13   V1    2.155404 S    
O5    C7    1.298635 A    
O7    V1    1.983049 S    
O6    C8    1.298635 A    
O8    V2    1.983049 S    
O3    V1    2.006753 S    
N4    O27   1.300340 A    
O14   V4    1.710845 S    
C14   N2    1.457619 S    
C21   C23   1.539360 S    
C16   C18   1.559781 S    
C8    C10   1.463325 S    
C27   C28   1.222408 T    
C2    O12   1.299026 A    
C17   H1    1.110285 S    
C18   H2    1.110284 S    
O2    C4    1.298788 A    
C12   N4    1.457734 S    
O11   V3    2.002461 S    
C20   C22   1.550729 S    
C23   C25   1.542609 S    
O15   C5    1.295601 A    
O17   V3    1.984399 S    
C24   C26   1.542609 S    
N3    O25   1.300339 A    
C14   C17   1.550801 S    
C15   C17   1.559782 S    
O8    C4    1.302723 A    
C1    O11   1.299025 A    
O15   V3    2.000823 S    
N3    O26   1.299986 A    
N2    O24   1.300034 A    
C11   N3    1.457735 S    
O10   V2    2.005821 S    
O1    V3    1.981598 S    
C9    C10   1.222547 T    
O5    V1    1.981082 S    
C19   C24   1.538762 S    
O18   V4    1.984398 S    
C25   H7    1.110355 S    
O16   C6    1.295601 A    
O1    C3    1.298788 A    
O6    V2    1.981082 S    
V2    O20   1.706725 S    
O16   V4    2.000820 S    
C12   C15   1.542304 S    
C2    C23   1.507145 S    
C13   N1    1.457619 S    
C3    C27   1.463138 S    
O17   C7    1.303627 A    
C4    C28   1.463137 S    
O10   C6    1.293461 A    
O18   C8    1.303627 A    
O2    V4    1.981598 S    
N2    O23   1.300302 A    
C12   C14   1.530827 S    
C11   C16   1.542304 S    
V3    O19   2.160868 S    
C14   C16   1.541641 S    
C5    C15   1.494362 S    
C20   C23   1.538762 S    
C22   H4    1.110136 S    
C6    C16   1.494364 S    
C26   H8    1.110355 S    
O14   V2    2.155404 S    
N1    O21   1.300301 A    
C11   C17   1.550719 S    
O4    V2    2.006752 S    
C19   C25   1.549416 S    
C13   C15   1.541642 S    
C20   C26   1.549416 S    
N4    O28   1.299988 A    
C1    C24   1.507145 S    
C21   C26   1.549281 S    
