data_mof_unit_46464.cif
_audit_creation_date              2012-12-10T18:03:33-0500
_audit_creation_method            fapswitch 2.2
_symmetry_space_group_name_H-M    P1
_symmetry_Int_Tables_number       1
_space_group_crystal_system       triclinic
_cell_length_a                    10.887122
_cell_length_b                    9.584106
_cell_length_c                    19.543179
_cell_angle_alpha                 89.884138
_cell_angle_beta                  93.142667
_cell_angle_gamma                 90.0332
_cell_volume                      2036.12930496

loop_
_atom_site_label
_atom_site_type_symbol
_atom_type_description
_atom_site_fract_x
_atom_site_fract_y
_atom_site_fract_z
_atom_type_partial_charge
C1    C     C_R   0.871441 0.500151 0.489744 -0.460147
C2    C     C_R   0.128531 0.499745 0.510160 -0.460149
C3    C     C_R   0.409816 0.571260 0.962161 -0.187529
C4    C     C_R   0.571565 0.393164 0.036287 -0.187365
C5    C     C_R   0.413524 0.571691 0.033431 -0.187192
C6    C     C_R   0.566741 0.391667 0.964891 -0.185082
C7    C     C_R   0.495537 0.483951 0.071203 0.160636
C8    C     C_R   0.486823 0.481843 0.927514 0.152644
C9    C     C_R   0.262819 0.499918 0.505025 0.844197
C10   C     C_R   0.737169 0.500062 0.494944 0.844609
C11   C     C_R   0.499975 0.499789 0.367491 0.806912
C12   C     C_R   0.499587 0.499494 0.632488 0.806761
C13   C     C_R   0.062722 0.372288 0.507096 0.368677
C14   C     C_R   0.937286 0.627598 0.492507 0.368861
C15   C     C_R   0.936992 0.372595 0.491817 0.370129
C16   C     C_R   0.062938 0.627291 0.508311 0.369856
C17   C     C_R   0.476523 0.367681 0.742892 0.393039
C18   C     C_R   0.483721 0.620923 0.252058 0.403961
C19   C     C_R   0.519726 0.369224 0.256737 0.392473
C20   C     C_R   0.511437 0.619735 0.747943 0.402307
C21   C     C_R   0.477612 0.363731 0.814414 -0.272761
C22   C     C_R   0.491782 0.615434 0.180749 -0.275192
C23   C     C_R   0.514523 0.365486 0.185142 -0.270635
C24   C     C_R   0.499727 0.613916 0.819005 -0.272003
C25   C     C_R   0.487154 0.486425 0.852451 -0.022952
C26   C     C_R   0.501492 0.488156 0.146792 -0.018310
C27   C     C_R   0.406716 0.073631 0.466565 0.401537
C28   C     C_R   0.593674 0.926563 0.533019 0.423029
C29   C     C_R   0.593282 0.073513 0.533435 0.403252
C30   C     C_R   0.406328 0.926684 0.467000 0.423765
C31   C     C_R   0.496095 0.496179 0.708486 -0.228923
C32   C     C_R   0.501251 0.497261 0.291389 -0.227823
Cu1   Cu    Cu3+1 0.500000 0.640660 0.500000 0.974878
Cu2   Cu    Cu3+1 0.500000 0.359340 0.500000 0.969734
H1    H     H_    0.467484 0.264413 0.840129 0.151159
H2    H     H_    0.488103 0.711828 0.151654 0.152551
H3    H     H_    0.520686 0.265581 0.159737 0.149407
H4    H     H_    0.505111 0.709504 0.848558 0.153373
H5    H     H_    0.346602 0.640409 0.933984 0.134806
H6    H     H_    0.636623 0.325660 0.064103 0.126723
H7    H     H_    0.351858 0.640403 0.058995 0.126184
H8    H     H_    0.627737 0.322953 0.938815 0.134493
N1    N     N_R   0.500000 0.852070 0.500000 -0.338907
N2    N     N_R   0.500000 0.147930 0.500000 -0.346675
O1    O     O_R   0.319640 0.618740 0.500000 -0.563377
O2    O     O_R   0.680360 0.381260 0.500000 -0.559865
O3    O     O_R   0.680360 0.618740 0.500000 -0.563941
O4    O     O_R   0.319640 0.381260 0.500000 -0.560753
O5    O     O_R   0.500020 0.618830 0.400190 -0.570194
O6    O     O_R   0.499980 0.381170 0.599810 -0.568612
O7    O     O_R   0.499980 0.618830 0.599810 -0.570257
O8    O     O_R   0.500020 0.381170 0.400190 -0.568569
O9    O     O_3   0.311016 0.137974 0.430204 -0.623606
H9    H     H_    0.343233 0.222779 0.409338 0.370655
O10   O     O_3   0.690114 0.862317 0.568590 -0.630307
H10   H     H_    0.658681 0.775709 0.587930 0.366268
O11   O     O_3   0.688874 0.137761 0.569851 -0.624078
H11   H     H_    0.656450 0.222191 0.590783 0.370033
O12   O     O_3   0.309913 0.862527 0.431466 -0.630684
H12   H     H_    0.341501 0.776165 0.412148 0.366194
O13   O     O_3   0.118292 0.244427 0.517837 -0.582964
H13   H     H_    0.174725 0.253497 0.559109 0.325464
O14   O     O_3   0.881827 0.755328 0.480942 -0.582609
H14   H     H_    0.825006 0.745417 0.439814 0.332200
O15   O     O_3   0.881167 0.245197 0.480037 -0.584247
H15   H     H_    0.824143 0.256186 0.439102 0.324578
O16   O     O_3   0.118652 0.754563 0.520796 -0.583684
H16   H     H_    0.175843 0.742982 0.561674 0.331269
O17   O     O_3   0.462283 0.243549 0.707327 -0.571288
C33   C     C_3   0.336086 0.208314 0.702587 0.060601
H17   H     H_    0.281309 0.291739 0.675349 0.129355
H18   H     H_    0.300324 0.191593 0.754288 0.137379
C34   C     C_3   0.318577 0.073378 0.662366 -0.735806
H19   H     H_    0.368187 0.986742 0.689596 0.264528
H20   H     H_    0.219243 0.046875 0.656760 0.221241
H21   H     H_    0.354341 0.085621 0.610679 0.246059
O18   O     O_3   0.468309 0.748912 0.283305 -0.575967
C35   C     C_3   0.351767 0.806152 0.262962 0.020042
H22   H     H_    0.281665 0.766348 0.297258 0.172230
H23   H     H_    0.318689 0.780840 0.209481 0.121373
C36   C     C_3   0.358254 0.964320 0.268163 -0.658845
H24   H     H_    0.420237 0.005848 0.229677 0.234923
H25   H     H_    0.265187 0.009814 0.258268 0.207240
H26   H     H_    0.394347 0.995809 0.319941 0.285939
O19   O     O_3   0.535533 0.244931 0.292212 -0.571428
C37   C     C_3   0.661835 0.210440 0.295674 0.058957
H27   H     H_    0.717223 0.294201 0.322142 0.129452
H28   H     H_    0.695716 0.193865 0.243550 0.135306
C38   C     C_3   0.681178 0.075706 0.336124 -0.735620
H29   H     H_    0.631449 0.988582 0.309480 0.263682
H30   H     H_    0.780730 0.050092 0.340992 0.220861
H31   H     H_    0.646680 0.087681 0.388124 0.246947
O20   O     O_3   0.528533 0.747878 0.716948 -0.576294
C39   C     C_3   0.645524 0.803117 0.737775 0.021046
H32   H     H_    0.715584 0.762431 0.703776 0.170913
H33   H     H_    0.677273 0.776931 0.791420 0.126243
C40   C     C_3   0.641210 0.961407 0.732493 -0.664110
H34   H     H_    0.579049 0.003717 0.770582 0.234995
H35   H     H_    0.734727 0.005371 0.742900 0.206326
H36   H     H_    0.606486 0.993748 0.680534 0.286497

loop_
_geom_bond_atom_site_label_1
_geom_bond_atom_site_label_2
_ccdc_geom_bond_type
O10   H10   S    
C9    O1    A    
O20   C39   S    
Cu1   O1    S    
C34   H19   S    
C20   O20   S    
C12   O7    A    
C40   H36   S    
C36   H24   S    
O18   C35   S    
C17   O17   S    
C7    C26   S    
C28   C29   A    
O17   C33   S    
O19   C37   S    
C35   H23   S    
Cu1   O5    S    
C15   O15   S    
C23   C26   A    
C2    C13   A    
C21   C25   A    
C11   O8    A    
C40   H35   S    
C27   N2    A    
C20   C24   A    
C10   O2    A    
C24   H4    S    
C33   H17   S    
Cu2   O2    S    
C38   H30   S    
C2    C16   A    
C3    H5    S    
O12   H12   S    
C27   C30   A    
C8    C25   S    
C34   H20   S    
O13   H13   S    
C4    C7    A    
C19   C32   A    
C36   H25   S    
C28   O10   S    
C40   H34   S    
Cu2   O6    S    
O16   H16   S    
Cu1   N1    S    
C4    H6    S    
Cu2   N2    S    
C24   C25   A    
C4    C6    A    
C3    C8    A    
C5    C7    A    
C37   H27   S    
C6    C8    A    
C39   C40   S    
C3    C5    A    
C23   H3    S    
C17   C21   A    
C19   C23   A    
C11   O5    A    
C30   O12   S    
C33   C34   S    
Cu1   Cu2   S    
C13   O13   S    
C16   O16   S    
C38   H31   S    
C39   H33   S    
C1    C15   A    
C29   O11   S    
C11   C32   S    
C13   C15   A    
C29   N2    A    
C6    H8    S    
Cu1   O3    S    
C34   H21   S    
C14   C16   A    
C30   N1    A    
Cu2   O4    S    
C36   H26   S    
C5    H7    S    
C18   C22   A    
C1    C10   S    
C19   O19   S    
C37   C38   S    
C12   O6    A    
C27   O9    S    
O9    H9    S    
C21   H1    S    
Cu1   O7    S    
C22   H2    S    
C28   N1    A    
Cu2   O8    S    
C12   C31   S    
C35   H22   S    
C35   C36   S    
O11   H11   S    
C18   O18   S    
C17   C31   A    
C14   O14   S    
C37   H28   S    
C39   H32   S    
O14   H14   S    
C18   C32   A    
C9    O4    A    
O15   H15   S    
C22   C26   A    
C10   O3    A    
C33   H18   S    
C1    C14   A    
C38   H29   S    
C2    C9    S    
C20   C31   A    
