data_mof_unit_63410.cif
_audit_creation_date              2012-12-10T17:04:17-0500
_audit_creation_method            fapswitch 2.2
_symmetry_space_group_name_H-M    P1
_symmetry_Int_Tables_number       1
_space_group_crystal_system       triclinic
_cell_length_a                    15.099113
_cell_length_b                    15.143159
_cell_length_c                    16.030187
_cell_angle_alpha                 89.251352
_cell_angle_beta                  90.159947
_cell_angle_gamma                 90.709954
_cell_volume                      3664.66759937

loop_
_atom_site_label
_atom_site_type_symbol
_atom_type_description
_atom_site_fract_x
_atom_site_fract_y
_atom_site_fract_z
_atom_type_partial_charge
C1    C     C_R   0.259873 0.485116 0.488357 0.501278
C2    C     C_R   0.979190 0.456718 0.496617 0.047022
C3    C     C_R   0.019650 0.540258 0.509670 0.043391
C4    C     C_R   0.739914 0.515029 0.512039 0.500181
C5    C     C_R   0.111564 0.548911 0.506134 -0.121667
C6    C     C_R   0.123149 0.393694 0.472187 -0.129165
C7    C     C_R   0.031401 0.383917 0.477551 -0.136881
C8    C     C_R   0.514172 0.163604 0.519292 0.021428
C9    C     C_R   0.483548 0.835196 0.476204 0.032117
C10   C     C_R   0.497944 0.963580 0.385888 -0.140823
C11   C     C_R   0.490758 0.872683 0.396299 -0.128954
C12   C     C_1   0.478891 0.519370 0.886624 -0.046494
C13   C     C_R   0.483582 0.888791 0.546321 -0.123534
C14   C     C_R   0.493764 0.980301 0.536820 0.034989
C15   C     C_R   0.499766 0.018907 0.455746 0.038025
C16   C     C_R   0.512988 0.259960 0.512980 0.503371
C17   C     C_R   0.509217 0.111410 0.446878 -0.022378
C18   C     C_R   0.511727 0.124006 0.598661 -0.142732
C19   C     C_R   0.500629 0.033179 0.607421 -0.141916
C20   C     C_R   0.487021 0.739769 0.485586 0.500305
C21   C     C_R   0.513029 0.488576 0.277201 0.505325
C22   C     C_R   0.487413 0.511197 0.722622 0.501394
C23   C     C_1   0.522982 0.479578 0.113370 -0.057090
C24   C     C_1   0.518646 0.483777 0.188209 0.008495
C25   C     C_2   0.527621 0.474752 0.023915 -0.126837
C26   C     C_2   0.474373 0.523916 0.976114 -0.120837
C27   C     C_R   0.515188 0.153993 0.362906 0.039280
C28   C     C_R   0.594776 0.194232 0.336512 -0.088379
C29   C     C_R   0.599349 0.237292 0.258910 -0.109259
C30   C     C_R   0.524644 0.240467 0.207321 -0.089077
C31   C     C_R   0.445152 0.200801 0.233331 -0.097813
C32   C     C_R   0.440233 0.157793 0.310934 -0.078051
C33   C     C_1   0.482757 0.515595 0.811721 0.013567
C34   C     C_R   0.163498 0.475875 0.487550 0.026041
C35   C     C_R   0.835687 0.522351 0.515584 0.036545
C36   C     C_R   0.967496 0.613994 0.525297 -0.133817
C37   C     C_R   0.875689 0.605241 0.526888 -0.123581
C38   C     C_R   0.887142 0.447974 0.501450 -0.121224
H1    H     H_    0.426971 0.568107 0.003975 0.135684
H2    H     H_    0.997561 0.678441 0.534825 0.109206
H3    H     H_    0.001355 0.319713 0.466731 0.107388
H4    H     H_    0.835699 0.663019 0.537057 0.118069
H5    H     H_    0.855286 0.384434 0.491127 0.102874
H6    H     H_    0.652885 0.192613 0.376240 0.098052
H7    H     H_    0.660722 0.268435 0.238861 0.103721
H8    H     H_    0.528279 0.273882 0.147312 0.110688
H9    H     H_    0.387252 0.203684 0.193491 0.106710
H10   H     H_    0.378109 0.128001 0.330869 0.105634
H11   H     H_    0.514885 0.163994 0.654181 0.129963
H12   H     H_    0.504250 0.989472 0.322953 0.120800
H13   H     H_    0.497165 0.004245 0.669543 0.111744
H14   H     H_    0.491958 0.831195 0.341739 0.125221
H15   H     H_    0.480314 0.858884 0.608118 0.111478
H16   H     H_    0.575025 0.430509 0.996135 0.133207
H17   H     H_    0.142731 0.612632 0.517195 0.122689
H18   H     H_    0.162744 0.336609 0.458232 0.131282
O1    O     O_3   0.500000 0.500000 0.500000 -0.438725
O2    O     O_R   0.461330 0.435620 0.316920 -0.530385
O3    O     O_R   0.434750 0.558200 0.677930 -0.536522
O4    O     O_R   0.559650 0.545720 0.316320 -0.538455
O5    O     O_R   0.544270 0.460460 0.688830 -0.538573
O6    O     O_R   0.559890 0.307360 0.561630 -0.546672
O7    O     O_R   0.434610 0.697530 0.534530 -0.541648
O8    O     O_R   0.307380 0.433810 0.444990 -0.545902
O9    O     O_R   0.698130 0.561300 0.458860 -0.539503
O10   O     O_R   0.296270 0.542620 0.535390 -0.543041
O11   O     O_R   0.698230 0.462280 0.560770 -0.538947
O12   O     O_R   0.461480 0.296280 0.460320 -0.531441
O13   O     O_R   0.544020 0.698820 0.443520 -0.543602
Zn1   Zn    Zn3+2 0.574310 0.433680 0.576480 0.937331
Zn2   Zn    Zn3+2 0.433700 0.417860 0.431740 0.942984
Zn3   Zn    Zn3+2 0.574160 0.575160 0.430870 0.939386
Zn4   Zn    Zn3+2 0.417840 0.573310 0.560900 0.937056

loop_
_geom_bond_atom_site_label_1
_geom_bond_atom_site_label_2
_ccdc_geom_bond_type
O5    Zn1   S    
C2    C7    A    
C36   C37   A    
C35   C37   A    
C10   C15   A    
C30   C31   A    
C26   H1    S    
O4    Zn3   S    
O6    Zn1   S    
C18   C19   A    
O8    Zn2   S    
O1    Zn4   S    
C37   H4    S    
C9    C13   A    
C11   H14   S    
C23   C24   T    
C16   O12   A    
O1    Zn1   S    
O3    Zn4   S    
C23   C25   S    
C4    C35   S    
C8    C16   S    
C31   H9    S    
C13   C14   A    
C32   H10   S    
C16   O6    A    
C5    H17   S    
C1    C34   S    
C13   H15   S    
C17   C27   S    
C36   H2    S    
C35   C38   A    
C25   H16   S    
C21   O4    A    
C22   O3    A    
O7    Zn4   S    
C25   C26   D    
O10   Zn4   S    
C28   H6    S    
C8    C18   A    
C6    C34   A    
C12   C26   S    
O13   Zn3   S    
C29   C30   A    
C2    C38   A    
C9    C20   S    
C31   C32   A    
C5    C34   A    
C1    O10   A    
O1    Zn2   S    
C9    C11   A    
C20   O13   A    
C10   H12   S    
C1    O8    A    
C15   C17   A    
C22   C33   S    
C28   C29   A    
C27   C32   A    
C14   C19   A    
C30   H8    S    
C6    H18   S    
C3    C5    A    
C4    O11   A    
C6    C7    A    
O9    Zn3   S    
C8    C17   A    
O11   Zn1   S    
C20   O7    A    
C2    C3    A    
C21   O2    A    
C22   O5    A    
C4    O9    A    
C3    C36   A    
O12   Zn2   S    
C7    H3    S    
O1    Zn3   S    
O2    Zn2   S    
C10   C11   A    
C19   H13   S    
C38   H5    S    
C21   C24   S    
C29   H7    S    
C27   C28   A    
C14   C15   A    
C12   C33   T    
C18   H11   S    
