data_mof_unit_17762.cif
_audit_creation_date              2012-12-10T17:27:54-0500
_audit_creation_method            fapswitch 2.2
_symmetry_space_group_name_H-M    P1
_symmetry_Int_Tables_number       1
_space_group_crystal_system       triclinic
_cell_length_a                    10.895553
_cell_length_b                    12.056637
_cell_length_c                    12.572232
_cell_angle_alpha                 93.137967
_cell_angle_beta                  91.193108
_cell_angle_gamma                 86.205795
_cell_volume                      1645.19929632

loop_
_atom_site_label
_atom_site_type_symbol
_atom_type_description
_atom_site_fract_x
_atom_site_fract_y
_atom_site_fract_z
_atom_type_partial_charge
C1    C     C_R   0.491261 0.522390 0.702508 0.918224
C2    C     C_R   0.488088 0.644978 0.872722 -0.023692
C3    C     C_R   0.504691 0.443797 0.879619 -0.115758
C4    C     C_R   0.740498 0.501180 0.507456 0.892319
C5    C     C_R   0.564129 0.452043 0.979175 0.027345
C6    C     C_R   0.569149 0.558366 0.031346 0.117366
C7    C     C_R   0.593741 0.565129 0.140539 -0.051046
C8    C     C_R   0.615418 0.363770 0.144110 -0.058470
C9    C     C_R   0.613032 0.357527 0.031313 0.015542
C10   C     C_R   0.423915 0.948173 0.373249 -0.138619
C11   C     C_R   0.414527 0.835932 0.395750 0.056163
C12   C     C_R   0.941833 0.405017 0.559982 0.070705
C13   C     C_R   0.537035 0.858946 0.553151 0.076676
C14   C     C_R   0.528611 0.977359 0.546168 0.026224
C15   C     C_R   0.474765 0.022318 0.452203 -0.044527
C16   C     C_R   0.532218 0.479298 0.304643 0.904583
C17   C     C_R   0.469613 0.140538 0.443207 0.021854
C18   C     C_R   0.569849 0.166582 0.610342 -0.102503
C19   C     C_R   0.572722 0.053088 0.627551 -0.083563
C20   C     C_R   0.261036 0.500076 0.512316 0.916829
C21   C     C_R   0.885382 0.310769 0.594079 -0.066028
C22   C     C_R   0.936254 0.204815 0.562025 -0.124912
C23   C     C_R   0.873335 0.503744 0.531247 -0.107137
C24   C     C_R   0.060840 0.194358 0.537990 -0.041827
C25   C     C_R   0.130058 0.287506 0.558047 0.028368
C26   C     C_R   0.071039 0.397427 0.552774 -0.002519
C27   C     C_1   0.873014 0.706561 0.491722 0.270773
C28   C     C_2   0.672013 0.262125 0.966001 0.587350
C29   C     C_2   0.423157 0.745607 0.830592 0.470241
C30   C     C_2   0.411536 0.360358 0.860471 0.429519
C31   C     C_2   0.394239 0.195069 0.360102 0.508450
C32   C     C_2   0.388976 0.982819 0.264371 0.362468
C33   C     C_2   0.613596 0.023056 0.735390 0.429095
C34   C     C_R   0.934176 0.603075 0.525253 -0.085048
C35   C     C_2   0.341981 0.764391 0.323279 0.631759
C36   C     C_1   0.617012 0.805322 0.630372 0.312149
C37   C     C_2   0.806739 0.321801 0.689534 0.461087
C38   C     C_2   0.861221 0.107013 0.558308 0.352046
C39   C     C_1   0.120805 0.086512 0.508339 0.380159
C40   C     C_1   0.238175 0.262579 0.621974 0.225961
C41   C     C_1   0.114589 0.706562 0.571682 0.358391
C42   C     C_1   0.624179 0.669705 0.194440 0.187500
C43   C     C_2   0.652737 0.265795 0.206945 0.484690
C44   C     C_R   0.060009 0.601492 0.545307 -0.083060
C45   C     C_R   0.130601 0.498768 0.539851 -0.179670
C46   C     C_R   0.583751 0.468385 0.196764 -0.257933
C47   C     C_R   0.490247 0.538400 0.819499 -0.137105
C48   C     C_R   0.531477 0.653989 0.977534 -0.242856
H1    H     H_    0.595926 0.224260 0.673798 0.139348
H2    H     H_    0.786366 0.248006 0.729501 0.018867
H3    H     H_    0.774065 0.110720 0.515787 0.081786
H4    H     H_    0.697713 0.277719 0.284200 0.056636
H5    H     H_    0.526816 0.735224 0.019281 0.148335
H6    H     H_    0.648567 0.250357 0.882153 0.043066
H7    H     H_    0.439306 0.826564 0.867702 0.144889
H8    H     H_    0.331771 0.382541 0.811395 0.076012
H9    H     H_    0.434988 0.214357 0.286396 0.088134
H10   H     H_    0.454126 0.023927 0.218598 0.119309
H11   H     H_    0.699225 0.051963 0.768681 0.097799
H12   H     H_    0.374447 0.740832 0.243727 0.031207
N1    N     N_R   0.523130 0.207800 0.519340 -0.136457
N2    N     N_R   0.476870 0.792180 0.480660 -0.158724
N3    N     N_1   0.826047 0.789229 0.463981 -0.151547
N4    N     N_1   0.682055 0.762655 0.692084 -0.167571
N5    N     N_1   0.168296 0.000512 0.484169 -0.118322
N6    N     N_1   0.323024 0.236266 0.673106 -0.158475
N7    N     N_1   0.157343 0.790343 0.593283 -0.077659
N8    N     N_1   0.649102 0.752947 0.237102 -0.189693
O1    O     O_R   0.506170 0.421690 0.658830 -0.629194
O2    O     O_2   0.343171 0.739094 0.761618 -0.559828
O3    O     O_2   0.416052 0.272278 0.904328 -0.544253
O4    O     O_2   0.283870 0.213860 0.370968 -0.559789
O5    O     O_2   0.287267 0.967329 0.225970 -0.503939
O6    O     O_2   0.547389 0.973952 0.791031 -0.560304
O7    O     O_2   0.240775 0.738717 0.348836 -0.545616
O8    O     O_2   0.771779 0.412889 0.729081 -0.584020
O9    O     O_2   0.897222 0.021688 0.600472 -0.561711
O10   O     O_2   0.630429 0.171643 0.175148 -0.551298
O11   O     O_R   0.491330 0.609320 0.646410 -0.583365
O12   O     O_R   0.690660 0.406170 0.506210 -0.636571
O13   O     O_R   0.675810 0.593790 0.493790 -0.639061
O14   O     O_R   0.508670 0.390680 0.353590 -0.654181
O15   O     O_R   0.493830 0.578310 0.341170 -0.632295
O16   O     O_R   0.324190 0.406210 0.506210 -0.598627
O17   O     O_R   0.309340 0.593830 0.493790 -0.573679
O18   O     O_2   0.754088 0.200683 0.002305 -0.520085
Zn1   Zn    Zn3+2 0.509910 0.374720 0.508290 0.961093
Zn2   Zn    Zn3+2 0.490090 0.625280 0.491710 1.012222

loop_
_geom_bond_atom_site_label_1
_geom_bond_atom_site_label_2
_ccdc_geom_bond_type
C8    C43   S    
C32   H10   S    
C11   N2    A    
C30   O3    D    
C41   N7    T    
C43   O10   D    
C12   C23   A    
C35   O7    D    
C6    C48   A    
C2    C29   S    
C4    O12   A    
O12   Zn1   S    
C10   C15   A    
C25   C40   S    
C5    C6    A    
C43   H4    S    
O14   Zn1   S    
C22   C38   S    
C24   C39   S    
C18   C19   A    
C7    C42   S    
N1    Zn1   S    
C26   C45   A    
C17   N1    A    
C13   N2    A    
C8    C9    A    
O16   Zn1   S    
C20   C45   S    
O1    Zn1   S    
O15   Zn2   S    
C33   H11   S    
C40   N6    T    
C21   C22   A    
C42   N8    T    
C39   N5    T    
O11   Zn2   S    
C27   C34   S    
C48   H5    S    
C4    O13   A    
C7    C46   A    
C34   C44   A    
C24   C25   A    
C13   C36   S    
C19   C33   S    
C16   C46   S    
C32   O5    D    
C4    C23   S    
C28   H6    S    
C1    C47   S    
C38   H3    S    
C29   H7    S    
C2    C48   A    
C25   C26   A    
C30   H8    S    
C12   C21   A    
C16   O15   A    
C1    O1    A    
C12   C26   A    
C35   H12   S    
C3    C30   S    
C5    C9    A    
C23   C34   A    
C20   O17   A    
C16   O14   A    
C27   N3    T    
C31   O4    D    
C37   O8    D    
C20   O16   A    
C28   O18   D    
C17   C31   S    
C41   C44   S    
C22   C24   A    
C44   C45   A    
C29   O2    D    
O17   Zn2   S    
C15   C17   A    
C14   C19   A    
C3    C5    A    
C18   N1    A    
C6    C7    A    
C38   O9    D    
C2    C47   A    
C31   H9    S    
C11   C35   S    
C36   N4    T    
C37   H2    S    
N2    Zn2   S    
C1    O11   A    
C3    C47   A    
C8    C46   A    
O13   Zn2   S    
C10   C11   A    
C10   C32   S    
C33   O6    D    
C21   C37   S    
C18   H1    S    
C14   C15   A    
C13   C14   A    
C9    C28   S    
