data_mof_unit_26852.cif
_audit_creation_date              2013-03-05T16:19:40-0500
_audit_creation_method            fapswitch 2.2
_symmetry_space_group_name_H-M    P1
_symmetry_Int_Tables_number       1
_space_group_crystal_system       triclinic
_cell_length_a                    10.655626
_cell_length_b                    9.671382
_cell_length_c                    27.251009
_cell_angle_alpha                 90.136484
_cell_angle_beta                  89.070699
_cell_angle_gamma                 91.050396
_cell_volume                      2807.49528869

loop_
_atom_site_label
_atom_site_type_symbol
_atom_site_description
_atom_site_fract_x
_atom_site_fract_y
_atom_site_fract_z
_atom_type_partial_charge
O1    O     O_R   0.314910 0.616040 0.499990 -0.641033
O2    O     O_R   0.314910 0.383960 0.499990 -0.626594
C1    C     C_R   0.257218 0.498810 0.499609 0.868945
O3    O     O_R   0.500140 0.616020 0.428740 -0.615827
O4    O     O_R   0.500140 0.383980 0.428740 -0.628627
C2    C     C_R   0.504206 0.499980 0.405650 0.887848
Zn1   Zn    Zn3+2 0.500150 0.654960 0.499980 0.897435
Zn2   Zn    Zn3+2 0.500150 0.345040 0.499980 0.897713
O5    O     O_R   0.685320 0.616040 0.499970 -0.633419
O6    O     O_R   0.685320 0.383960 0.499970 -0.635028
O7    O     O_R   0.500090 0.616050 0.571230 -0.621678
O8    O     O_R   0.500090 0.383950 0.571230 -0.628705
C3    C     C_R   0.742294 0.501364 0.498246 0.875064
C4    C     C_R   0.504141 0.500327 0.594540 0.872590
C5    C     C_R   0.493111 0.573201 0.173285 0.510154
O9    O     O_2   0.395650 0.633074 0.196805 -0.561107
N1    N     N_R   0.575721 0.496529 0.199021 -0.352134
C6    C     C_R   0.675757 0.434695 0.176660 0.509336
C7    C     C_R   0.635997 0.580372 0.279574 -0.107289
C8    C     C_R   0.618505 0.585697 0.330408 0.169389
C9    C     C_R   0.454288 0.407352 0.323818 -0.289183
C10   C     C_R   0.472259 0.404185 0.273159 -0.094034
C11   C     C_R   0.562559 0.491347 0.251129 0.276094
C12   C     C_R   0.612950 0.529331 0.098675 -0.052124
C13   C     C_R   0.510480 0.591686 0.122728 -0.023673
C14   C     C_R   0.427999 0.671464 0.096056 -0.138552
C15   C     C_R   0.696014 0.449422 0.125970 -0.024269
C16   C     C_R   0.524552 0.499895 0.352575 -0.049983
H1    H     H_    0.384300 0.339023 0.340535 0.155297
H2    H     H_    0.415452 0.335225 0.250958 0.147692
H3    H     H_    0.347701 0.719066 0.113659 0.189699
C17   C     C_R   0.545019 0.505331 0.645817 -0.134105
C18   C     C_R   0.569236 0.649364 0.969782 0.044349
C19   C     C_R   0.742754 0.483508 0.971222 0.043469
C20   C     C_R   0.660875 0.569431 0.944875 0.069985
C21   C     C_R   0.498222 0.742992 0.942327 -0.217034
C22   C     C_R   0.506379 0.745830 0.891557 -0.139239
C23   C     C_R   0.586917 0.657076 0.866479 -0.019626
C24   C     C_R   0.667687 0.572267 0.892898 -0.052845
C25   C     C_R   0.751813 0.486646 0.867186 -0.020602
C26   C     C_R   0.747483 0.480636 0.815787 0.500349
N2    N     N_R   0.662612 0.557674 0.791319 -0.351564
C27   C     C_R   0.585211 0.647358 0.815362 0.494422
C28   C     C_R   0.562047 0.419205 0.728599 -0.141879
C29   C     C_R   0.511132 0.405135 0.681793 0.140904
C30   C     C_R   0.630803 0.612719 0.657507 -0.250453
C31   C     C_R   0.679260 0.627710 0.704674 0.208755
C32   C     C_R   0.640440 0.531416 0.740544 0.212107
O10   O     O_2   0.503651 0.723290 0.789823 -0.569056
C33   C     C_R   0.549652 0.631336 0.020867 0.044759
C34   C     C_R   0.631910 0.546442 0.047410 0.071538
C35   C     C_R   0.731929 0.477253 0.023197 0.043136
C36   C     C_R   0.446979 0.691103 0.046124 -0.215648
H4    H     H_    0.535591 0.346401 0.757252 0.154229
H5    H     H_    0.446830 0.815876 0.871994 0.188087
H6    H     H_    0.435121 0.815824 0.959000 0.143456
H7    H     H_    0.376597 0.750240 0.028098 0.143542
O11   O     O_2   0.755387 0.359957 0.203481 -0.560951
C37   C     C_R   0.798042 0.387953 0.102353 -0.135636
H8    H     H_    0.705786 0.646593 0.261626 0.139687
H9    H     H_    0.864618 0.328246 0.122721 0.189569
C38   C     C_R   0.829891 0.403160 0.944288 -0.214252
C39   C     C_R   0.833871 0.404640 0.893289 -0.141191
O12   O     O_2   0.824672 0.396180 0.790537 -0.572905
C40   C     C_R   0.815948 0.401517 0.051983 -0.214455
H10   H     H_    0.893406 0.333311 0.961330 0.142647
H11   H     H_    0.660104 0.684588 0.629069 0.176520
H12   H     H_    0.899794 0.338324 0.874359 0.187740
H13   H     H_    0.897832 0.352433 0.036866 0.142777
C41   C     C_3   0.065694 0.470888 0.554542 0.352971
C42   C     C_3   0.066856 0.384968 0.459561 0.404941
C43   C     C_3   0.921715 0.448644 0.548365 -0.391395
C44   C     C_3   0.924853 0.412113 0.454134 -0.410690
H14   H     H_    0.894419 0.337798 0.552303 0.166601
H15   H     H_    0.869037 0.313850 0.451655 0.172398
H16   H     H_    0.868592 0.502308 0.578037 0.155838
H17   H     H_    0.906026 0.464992 0.418971 0.163614
H18   H     H_    0.114599 0.729514 0.507195 0.175891
H19   H     H_    0.104150 0.677189 0.447726 0.206144
H20   H     H_    0.901393 0.722427 0.518104 0.181088
H21   H     H_    0.894275 0.693926 0.453552 0.183301
C45   C     C_3   0.073693 0.645021 0.484545 -0.489279
C46   C     C_3   0.120062 0.496337 0.499651 0.091558
C47   C     C_3   0.877928 0.503156 0.497473 0.059400
C48   C     C_3   0.930984 0.650951 0.488251 -0.445273
C49   C     C_3   0.444841 0.079956 0.453422 -0.236062
C50   C     C_3   0.442155 0.917234 0.453932 -0.222296
H22   H     H_    0.500254 0.116616 0.420887 0.156987
H23   H     H_    0.492771 0.879006 0.420857 0.151750
H24   H     H_    0.348576 0.118653 0.448640 0.138100
H25   H     H_    0.343641 0.878161 0.451133 0.146061
H26   H     H_    0.687650 0.123599 0.470975 0.146023
H27   H     H_    0.686144 0.884406 0.469798 0.146812
C51   C     C_3   0.628917 0.083801 0.502163 -0.225206
C52   C     C_3   0.628969 0.921081 0.501617 -0.241194
C53   C     C_3   0.426496 0.079935 0.541132 -0.237280
C54   C     C_3   0.427343 0.917331 0.541388 -0.226674
N3    N     N_3   0.499750 0.138610 0.498940 -0.032385
N4    N     N_3   0.499750 0.861390 0.498940 -0.034367
H28   H     H_    0.466211 0.118868 0.576082 0.148469
H29   H     H_    0.468317 0.881227 0.576270 0.155367
H30   H     H_    0.328284 0.116087 0.540127 0.141328
H31   H     H_    0.329259 0.875977 0.540911 0.141539
H32   H     H_    0.673840 0.122535 0.536247 0.147748
H33   H     H_    0.675324 0.882804 0.535137 0.142947
C55   C     C_3   0.771231 0.743541 0.718291 -0.364805
C56   C     C_3   0.808624 0.843917 0.677000 -0.927176
H34   H     H_    0.854096 0.788244 0.645996 0.255603
H35   H     H_    0.725069 0.899165 0.663895 0.263077
H36   H     H_    0.876825 0.922025 0.691060 0.266148
H37   H     H_    0.730097 0.805524 0.748671 0.235684
H38   H     H_    0.858136 0.696160 0.732042 0.214442
C57   C     C_3   0.089684 0.600629 0.589395 -0.384542
C58   C     C_3   0.060569 0.579585 0.644386 -0.865409
H39   H     H_    0.965376 0.534181 0.650717 0.268113
H40   H     H_    0.130996 0.512818 0.661323 0.268164
H41   H     H_    0.065619 0.680985 0.663537 0.254283
H42   H     H_    0.189446 0.635313 0.585994 0.203482
H43   H     H_    0.031572 0.689121 0.579093 0.196088
C59   C     C_3   0.136566 0.386118 0.407769 -0.396303
C60   C     C_3   0.150666 0.520092 0.378377 -0.917940
H44   H     H_    0.060968 0.575818 0.376168 0.263613
H45   H     H_    0.226970 0.586505 0.393389 0.254369
H46   H     H_    0.179857 0.494487 0.340161 0.269476
H47   H     H_    0.232378 0.344465 0.411706 0.215491
H48   H     H_    0.086494 0.312158 0.383196 0.216290
C61   C     C_3   0.125239 0.346730 0.581785 -0.887588
H49   H     H_    0.138436 0.251372 0.561165 0.229120
H50   H     H_    0.220209 0.376964 0.594428 0.238688
H51   H     H_    0.067232 0.316644 0.614402 0.248426
C62   C     C_3   0.074408 0.229881 0.475169 -1.008611
H52   H     H_    0.170429 0.199111 0.483998 0.252967
H53   H     H_    0.008403 0.201591 0.505363 0.241848
H54   H     H_    0.044917 0.160144 0.444772 0.226767
C63   C     C_3   0.420181 0.285234 0.673004 -0.439392
C64   C     C_3   0.306847 0.288301 0.708147 -0.840627
H55   H     H_    0.333549 0.256176 0.745570 0.261291
H56   H     H_    0.267821 0.393711 0.710046 0.266944
H57   H     H_    0.232819 0.215343 0.695106 0.251871
H58   H     H_    0.383165 0.284668 0.635556 0.215842
H59   H     H_    0.470024 0.186369 0.677832 0.213143
C65   C     C_3   0.703726 0.678701 0.359990 -0.914677
H60   H     H_    0.746359 0.618784 0.389851 0.224428
H61   H     H_    0.781323 0.723845 0.337123 0.235396
H62   H     H_    0.649908 0.765320 0.375873 0.246659

loop_
_geom_bond_atom_site_label_1
_geom_bond_atom_site_label_2
_geom_bond_distance
_ccdc_geom_bond_type
C41   C61   1.563035 S    
C28   C32   1.398339 A    
C53   H30   1.110211 S    
C44   H15   1.114319 S    
C26   N2    1.365354 A    
C20   C24   1.417424 A    
C7    C8    1.395709 A    
C12   C15   1.408240 A    
C43   H16   1.112442 S    
C62   H54   1.112558 S    
C58   H39   1.108977 S    
C63   C64   1.529730 S    
C55   H38   1.111560 S    
C28   C29   1.399539 A    
Zn1   O7    1.978636 S    
C3    C47   1.444862 S    
C22   C23   1.394819 A    
C25   C39   1.395644 A    
Zn1   N4    1.996817 S    
C42   C59   1.584199 S    
C21   C22   1.385167 A    
C50   H25   1.112865 S    
O3    Zn1   1.976674 S    
C23   C24   1.407338 A    
O7    C4    1.289976 A    
C49   H22   1.112316 S    
C5    C13   1.398575 A    
C55   C56   1.530920 S    
C51   N3    1.487937 S    
C5    O9    1.350298 S    
C19   C38   1.416437 A    
C18   C21   1.413851 A    
Zn1   O5    2.015448 S    
C19   C20   1.420210 A    
C17   C29   1.418022 A    
O5    C3    1.274493 A    
C60   H46   1.110728 S    
Zn2   N3    1.996525 S    
C52   H33   1.112814 S    
C57   H43   1.104960 S    
C6    O11   1.349728 S    
C2    C16   1.459009 S    
C53   N3    1.486950 S    
C56   H34   1.110259 S    
C44   C47   1.553126 S    
C42   C46   1.633140 S    
C12   C34   1.417960 A    
C51   H32   1.112833 S    
C14   H3    1.083619 S    
H27   C52   1.112729 S    
C9    C10   1.390994 A    
C56   H35   1.111039 S    
C65   H62   1.107164 S    
C64   H57   1.110803 S    
C54   N4    1.486420 S    
C33   C34   1.419621 A    
C50   N4    1.487403 S    
C55   H37   1.110126 S    
C10   C11   1.396708 A    
C41   C57   1.591325 S    
C63   H58   1.099995 S    
C29   C63   1.518639 S    
C33   C36   1.414796 A    
C37   H9    1.083565 S    
C38   H10   1.076347 S    
C34   C35   1.421336 A    
C8    C65   1.507936 S    
C12   C13   1.408749 A    
C64   H56   1.108837 S    
C49   H24   1.108096 S    
C24   C25   1.408650 A    
C42   C44   1.549952 S    
C36   H7    1.076976 S    
C49   C50   1.573576 S    
C27   O10   1.350709 S    
N2    C32   1.428842 S    
C8    C16   1.417070 A    
C18   C33   1.415047 A    
C9    H1    1.082934 S    
C43   C47   1.566051 S    
C30   H11   1.080710 S    
O1    C1    1.279868 A    
C7    C11   1.395110 A    
C61   H50   1.108261 S    
H20   C48   1.111792 S    
C21   H6    1.077322 S    
H19   C45   1.093641 S    
H18   C45   1.109961 S    
C31   C32   1.403905 A    
Zn2   O8    1.976880 S    
C31   C55   1.524014 S    
C53   C54   1.572830 S    
C38   C39   1.389852 A    
H26   C51   1.112473 S    
N1    C6    1.365932 A    
N1    C11   1.425546 S    
C47   C48   1.547054 S    
C41   C46   1.613131 S    
C60   H44   1.108386 S    
C54   H31   1.112453 S    
C59   H48   1.113585 S    
C43   H14   1.110615 S    
C25   C26   1.403216 A    
C9    C16   1.402447 A    
O8    C4    1.291463 A    
C50   H23   1.109033 S    
C1    C46   1.461218 S    
C56   H36   1.110449 S    
C65   H61   1.110849 S    
O3    C2    1.286403 A    
N2    C27   1.366686 A    
C62   H52   1.101272 S    
C14   C36   1.385413 A    
C59   C60   1.528684 S    
C57   C58   1.538632 S    
C5    N1    1.364928 A    
C30   C31   1.399165 A    
C10   H2    1.082772 S    
O1    Zn1   2.002624 S    
C17   C30   1.410236 A    
O2    Zn2   2.016180 S    
C6    C15   1.401831 A    
C4    C17   1.470823 S    
C64   H55   1.109822 S    
C62   H53   1.105362 S    
O6    C3    1.278316 A    
O4    Zn2   1.978436 S    
C58   H40   1.106167 S    
C7    H8    1.083816 S    
C45   C48   1.524488 S    
C39   H12   1.083559 S    
C19   C35   1.420550 A    
O2    C1    1.279497 A    
C13   C14   1.394379 A    
C61   H51   1.110662 S    
C23   C27   1.396321 A    
C15   C37   1.395979 A    
C37   C40   1.388941 A    
O4    C2    1.287289 A    
C40   H13   1.076547 S    
C53   H28   1.110625 S    
C18   C20   1.419678 A    
C52   N4    1.486069 S    
C59   H47   1.111277 S    
C51   C52   1.573767 S    
C49   N3    1.486872 S    
H21   C48   1.113430 S    
C60   H45   1.109680 S    
C58   H41   1.110645 S    
C42   C62   1.563862 S    
C57   H42   1.111308 S    
C22   H5    1.083613 S    
C28   H4    1.083105 S    
C63   H59   1.111350 S    
Zn2   O6    2.001892 S    
C45   C46   1.586454 S    
C44   H17   1.110115 S    
C65   H60   1.108244 S    
C41   C43   1.557066 S    
C26   O12   1.349353 S    
C54   H29   1.112084 S    
C35   C40   1.415247 A    
C61   H49   1.088934 S    
