data_mof_unit_44938.cif
_audit_creation_date              2013-03-05T16:41:15-0500
_audit_creation_method            fapswitch 2.2
_symmetry_space_group_name_H-M    P1
_symmetry_Int_Tables_number       1
_space_group_crystal_system       triclinic
_cell_length_a                    10.783804
_cell_length_b                    10.759689
_cell_length_c                    9.969668
_cell_angle_alpha                 88.11039
_cell_angle_beta                  89.769312
_cell_angle_gamma                 91.35286
_cell_volume                      1155.81965523

loop_
_atom_site_label
_atom_site_type_symbol
_atom_site_description
_atom_site_fract_x
_atom_site_fract_y
_atom_site_fract_z
_atom_type_partial_charge
O1    O     O_R   0.500020 0.316790 0.614690 -0.601143
O2    O     O_R   0.500000 0.316760 0.385350 -0.637645
C1    C     C_R   0.504146 0.260365 0.501547 0.957018
O3    O     O_R   0.319080 0.500020 0.614640 -0.581160
O4    O     O_R   0.319070 0.499980 0.385300 -0.607418
C2    C     C_R   0.263502 0.498819 0.500354 1.000997
Zn1   Zn    Zn3+2 0.500010 0.500020 0.653130 1.080939
Zn2   Zn    Zn3+2 0.499990 0.499980 0.346870 1.085450
O5    O     O_R   0.500000 0.683240 0.614650 -0.592434
O6    O     O_R   0.499980 0.683210 0.385310 -0.557361
O7    O     O_R   0.680930 0.500020 0.614700 -0.593311
O8    O     O_R   0.680920 0.499980 0.385360 -0.582162
C3    C     C_R   0.503000 0.739789 0.497484 0.934792
C4    C     C_R   0.736443 0.504217 0.499447 0.868347
C5    C     C_2   0.937085 0.471146 0.407092 0.202735
C6    C     C_2   0.866599 0.530254 0.494622 0.211054
C7    C     C_2   0.063976 0.513757 0.397302 0.263987
C8    C     C_2   0.133619 0.478233 0.501002 -0.336998
H1    H     H_    0.094607 0.421264 0.583989 0.176198
C9    C     C_R   0.529270 0.058149 0.620203 -0.032283
C10   C     C_R   0.523627 0.129364 0.501581 -0.084800
C11   C     C_R   0.539857 0.072013 0.378334 -0.166787
H2    H     H_    0.545054 0.125984 0.284654 0.207181
C12   C     C_R   0.534873 0.943485 0.372060 0.315449
C13   C     C_R   0.519421 0.872051 0.493188 -0.164967
C14   C     C_R   0.527346 0.931003 0.615361 -0.188371
C15   C     C_3   0.450972 0.914270 0.741907 0.608374
C16   C     C_3   0.452500 0.056448 0.746533 0.639279
C17   C     C_R   0.391916 0.504557 0.071167 0.127002
N1    N     N_R   0.499170 0.499140 0.142800 -0.175668
C18   C     C_R   0.606670 0.520402 0.070506 0.263708
C19   C     C_R   0.607288 0.516611 0.927703 0.243265
N2    N     N_R   0.499170 0.499180 0.857150 -0.185003
C20   C     C_R   0.391799 0.506962 0.929940 0.133222
C21   C     C_3   0.278510 0.424040 0.929382 0.272737
C22   C     C_3   0.281042 0.420060 0.082860 -0.481621
H3    H     H_    0.196380 0.470828 0.885857 0.209587
H4    H     H_    0.200368 0.465726 0.126943 0.251339
H5    H     H_    0.302564 0.328162 0.130421 0.218655
N3    N     N_R   0.900901 0.355968 0.345525 0.221722
O9    O     O_R   0.968699 0.314448 0.249200 -0.292178
O10   O     O_R   0.816470 0.281794 0.400090 -0.385788
O11   O     O_3   0.516902 0.102696 0.857321 -0.729496
H6    H     H_    0.547832 0.187578 0.830995 0.355158
N4    N     N_R   0.717511 0.559259 0.135972 0.249790
O12   O     O_R   0.723607 0.669044 0.186720 -0.281093
O13   O     O_R   0.819240 0.499739 0.117389 -0.270183
N5    N     N_R   0.721360 0.542950 0.859129 0.254529
O14   O     O_R   0.759059 0.658169 0.842711 -0.323473
O15   O     O_R   0.800479 0.454550 0.846302 -0.306102
O16   O     O_3   0.299487 0.309029 0.873083 -0.675610
H7    H     H_    0.368302 0.269523 0.922981 0.358679
O17   O     O_3   0.916424 0.628200 0.565700 -0.682932
H8    H     H_    0.847826 0.673935 0.606344 0.384350
N6    N     N_R   0.099391 0.612127 0.301541 0.228123
O18   O     O_R   0.035507 0.627624 0.192168 -0.262706
O19   O     O_R   0.177245 0.700145 0.334558 -0.282896
N7    N     N_R   0.533070 0.890437 0.241987 0.236441
O20   O     O_R   0.429180 0.845095 0.196271 -0.272613
O21   O     O_R   0.621961 0.919702 0.157293 -0.270605
N8    N     N_R   0.327463 0.857236 0.721015 0.215566
O22   O     O_R   0.282867 0.774391 0.807379 -0.286597
O23   O     O_R   0.261596 0.887671 0.616269 -0.326074
O24   O     O_3   0.514437 0.854940 0.848830 -0.649171
H9    H     H_    0.603124 0.881996 0.844997 0.385929
O25   O     O_3   0.336272 0.109828 0.727267 -0.689995
H10   H     H_    0.284858 0.082098 0.805960 0.395044

loop_
_geom_bond_atom_site_label_1
_geom_bond_atom_site_label_2
_geom_bond_distance
_ccdc_geom_bond_type
O4    Zn2   1.986754 S    
C16   O25   1.402286 S    
O11   H6    0.991644 S    
Zn1   O5    1.995917 S    
C17   N1    1.363168 A    
C4    C6    1.425070 S    
Zn1   N2    2.033716 S    
C7    N6    1.445308 S    
C16   O11   1.405706 S    
C21   C22   1.529680 S    
Zn2   O8    1.990006 S    
Zn2   N1    2.034882 S    
O24   H9    0.993332 S    
C9    C10   1.390132 A    
N6    O18   1.300339 A    
N5    O15   1.301721 A    
C7    C8    1.331434 D    
N7    O20   1.301484 A    
C18   C19   1.425619 A    
O17   H8    0.990710 S    
C19   N2    1.376329 A    
Zn1   O7    1.986755 S    
C19   N5    1.423001 S    
C17   C22   1.486705 S    
C3    C13   1.429132 S    
C14   C15   1.507343 S    
N1    C18   1.373163 A    
C9    C14   1.370160 A    
O3    Zn1   1.990006 S    
O4    C2    1.291555 A    
C22   H4    1.105800 S    
N5    O14   1.300483 A    
C21   H3    1.111711 S    
O8    C4    1.289146 A    
C10   C11   1.405195 A    
N2    C20   1.369715 A    
O2    C1    1.291329 A    
N6    O19   1.302058 A    
C21   O16   1.398419 S    
N8    O22   1.301159 A    
C2    C8    1.412824 S    
O7    C4    1.292462 A    
C11   C12   1.386176 A    
C5    N3    1.447092 S    
C1    C10   1.429981 S    
O3    C2    1.289847 A    
C15   O24   1.412047 S    
N7    O21   1.301026 A    
O16   H7    0.991356 S    
C12   N7    1.433984 S    
N4    O12   1.300639 A    
O25   H10   0.992562 S    
C12   C13   1.417021 A    
C6    O17   1.388186 S    
Zn2   O6    2.020769 S    
C20   C21   1.495828 S    
C18   N4    1.424845 S    
N4    O13   1.298951 A    
C15   C16   1.531708 S    
C5    C7    1.434758 S    
O5    C3    1.299088 A    
C11   H2    1.083934 S    
C8    H1    1.090324 S    
N3    O9    1.301701 A    
C9    C16   1.503772 S    
C13   C14   1.393726 A    
O1    Zn1   2.020769 S    
C17   C20   1.407376 A    
C22   H5    1.112297 S    
N8    O23   1.302572 A    
O2    Zn2   1.995919 S    
C5    C6    1.340829 D    
N3    O10   1.301891 A    
O1    C1    1.299612 A    
O6    C3    1.290970 A    
C15   N8    1.471731 S    
