data_mof_unit_20143.cif
_audit_creation_date              2012-12-10T18:11:36-0500
_audit_creation_method            fapswitch 2.2
_symmetry_space_group_name_H-M    P1
_symmetry_Int_Tables_number       1
_space_group_crystal_system       triclinic
_cell_length_a                    10.488891
_cell_length_b                    12.619834
_cell_length_c                    13.11516
_cell_angle_alpha                 82.175305
_cell_angle_beta                  90.627423
_cell_angle_gamma                 102.78995
_cell_volume                      1676.8608264

loop_
_atom_site_label
_atom_site_type_symbol
_atom_type_description
_atom_site_fract_x
_atom_site_fract_y
_atom_site_fract_z
_atom_type_partial_charge
C1    C     C_R   0.479741 0.438682 0.691234 0.859867
C2    C     C_3   0.063281 0.579197 0.427246 -0.178789
C3    C     C_3   0.987803 0.599067 0.520651 -0.127036
C4    C     C_3   0.878274 0.502524 0.500508 0.014853
C5    C     C_R   0.406904 0.701618 0.063446 -0.178089
C6    C     C_R   0.501206 0.596615 0.199797 -0.053167
C7    C     C_R   0.494122 0.298846 0.839151 -0.300896
C8    C     C_R   0.502965 0.268534 0.944763 0.052573
C9    C     C_R   0.490022 0.343167 0.011679 -0.182159
C10   C     C_R   0.461847 0.446069 0.973749 0.038903
C11   C     C_R   0.431330 0.466908 0.869374 0.091237
C12   C     C_R   0.742449 0.501008 0.500275 0.865549
C13   C     C_R   0.462469 0.528991 0.036177 0.089436
C14   C     C_R   0.410688 0.621640 0.999543 0.174330
C15   C     C_R   0.361832 0.631982 0.900425 -0.238102
C16   C     C_R   0.372271 0.555728 0.835818 -0.193047
C17   C     C_R   0.516271 0.523288 0.133528 -0.251991
C18   C     C_R   0.449780 0.687983 0.164400 -0.192040
C19   C     C_R   0.462655 0.399099 0.801055 -0.104676
C20   C     C_R   0.322176 0.088900 0.344237 -0.264589
C21   C     C_R   0.652514 0.799183 0.631152 -0.105133
C22   C     C_R   0.683487 0.903323 0.660565 0.599518
C23   C     C_R   0.512989 0.561128 0.308686 0.855700
C24   C     C_R   0.625550 0.984927 0.611088 -0.310898
C25   C     C_R   0.535994 0.962419 0.531276 -0.067301
C26   C     C_R   0.507923 0.854786 0.504170 0.211828
C27   C     C_R   0.473365 0.041841 0.477565 0.028039
C28   C     C_R   0.384583 0.012016 0.398215 0.199079
C29   C     C_R   0.359063 0.905877 0.373224 -0.272077
C30   C     C_R   0.420009 0.828626 0.425467 -0.176196
C31   C     C_R   0.495126 0.150453 0.498832 -0.042375
C32   C     C_R   0.348089 0.194704 0.369008 0.013632
C33   C     C_R   0.257600 0.499035 0.499725 0.842346
C34   C     C_3   0.936995 0.421123 0.572729 -0.171262
C35   C     C_3   0.049168 0.517589 0.592855 -0.171833
C36   C     C_3   0.121925 0.497742 0.499461 0.025943
C37   C     C_3   0.012425 0.401242 0.479317 -0.128523
C38   C     C_3   0.951093 0.482732 0.407109 -0.172882
H1    H     H_    0.093817 0.531395 0.668435 0.133564
H2    H     H_    0.566595 0.459460 0.161511 0.152424
H3    H     H_    0.515053 0.245389 0.786499 0.151719
H4    H     H_    0.498262 0.317997 0.093026 0.173821
H5    H     H_    0.332050 0.566300 0.759758 0.164539
H6    H     H_    0.301251 0.255536 0.327840 0.136221
H7    H     H_    0.291659 0.882331 0.312752 0.149527
H8    H     H_    0.254465 0.067434 0.283441 0.153550
H9    H     H_    0.560838 0.180914 0.557124 0.125823
H10   H     H_    0.696824 0.735245 0.669469 0.170296
H11   H     H_    0.880846 0.357104 0.632050 0.141750
H12   H     H_    0.652630 0.064218 0.636887 0.162770
H13   H     H_    0.396629 0.748838 0.402393 0.201418
H14   H     H_    0.026462 0.320665 0.462463 0.151986
H15   H     H_    0.906459 0.468933 0.331526 0.142250
H16   H     H_    0.119607 0.643236 0.368006 0.130203
H17   H     H_    0.973814 0.679660 0.537497 0.153741
H18   H     H_    0.437009 0.745397 0.215592 0.153530
H19   H     H_    0.318028 0.700201 0.872063 0.152610
H20   H     H_    0.366266 0.772052 0.036682 0.146504
N1    N     N_R   0.432930 0.222190 0.444670 -0.105705
N2    N     N_R   0.566370 0.776980 0.554790 -0.161602
O1    O     O_R   0.467970 0.366730 0.627150 -0.612925
O2    O     O_R   0.510820 0.544830 0.662520 -0.615120
O3    O     O_R   0.664630 0.410960 0.482340 -0.616781
O4    O     O_R   0.707470 0.589060 0.517710 -0.618527
O5    O     O_R   0.489180 0.455170 0.337480 -0.613679
O6    O     O_R   0.532030 0.633270 0.372850 -0.628930
O7    O     O_R   0.292530 0.410940 0.482290 -0.619800
O8    O     O_R   0.335370 0.589040 0.517660 -0.641349
Zn1   Zn    Zn3+2 0.471390 0.381080 0.476380 0.943496
Zn2   Zn    Zn3+2 0.528610 0.618920 0.523620 0.929344
C39   C     C_2   0.531356 0.160597 0.983510 0.396409
H21   H     H_    0.543907 0.105260 0.929754 0.072691
O9    O     O_2   0.540697 0.131902 0.075543 -0.571253
F1    F     F_    0.769253 0.925154 0.737115 -0.664287

loop_
_geom_bond_atom_site_label_1
_geom_bond_atom_site_label_2
_ccdc_geom_bond_type
C30   H13   S    
C34   C37   S    
C35   C36   S    
C1    O2    A    
C7    C8    A    
C11   C19   A    
C9    H4    S    
C29   C30   A    
C5    H20   S    
C23   O6    A    
C36   C37   S    
C12   O4    A    
O1    Zn1   S    
C15   C16   A    
C33   C36   S    
O2    Zn2   S    
C34   C35   S    
C31   N1    A    
C3    H17   S    
O3    Zn1   S    
C8    C9    A    
C8    C39   S    
C3    C35   S    
C4    C12   S    
C9    C10   A    
C18   H18   S    
C21   H10   S    
C31   H9    S    
C21   C22   A    
C15   H19   S    
C24   H12   S    
C6    C18   A    
C4    C34   S    
C1    C19   S    
C27   C31   A    
C24   C25   A    
C21   N2    A    
C2    H16   S    
C39   O9    D    
C37   H14   S    
C5    C18   A    
C20   C28   A    
C25   C26   A    
C29   H7    S    
O7    Zn1   S    
C17   H2    S    
C35   H1    S    
O4    Zn2   S    
C37   C38   S    
C11   C16   A    
C2    C38   S    
N2    Zn2   S    
C32   H6    S    
C16   H5    S    
C5    C14   A    
N1    Zn1   S    
C4    C38   S    
C26   C30   A    
C7    C19   A    
C22   C24   A    
C22   F1    S    
C3    C4    S    
C33   O7    A    
C20   C32   A    
C2    C36   S    
C12   O3    A    
C6    C17   A    
C28   C29   A    
C34   H11   S    
C10   C13   A    
C1    O1    A    
C25   C27   A    
C13   C17   A    
C23   O5    A    
C2    C3    S    
C39   H21   S    
O6    Zn2   S    
C38   H15   S    
O5    Zn1   S    
C6    C23   S    
C7    H3    S    
C10   C11   A    
O8    Zn2   S    
C27   C28   A    
C14   C15   A    
C32   N1    A    
C13   C14   A    
C26   N2    A    
C20   H8    S    
C33   O8    A    
