data_mof_unit_42906.cif
_audit_creation_date              2012-12-11T14:36:15-0500
_audit_creation_method            fapswitch 2.2
_symmetry_space_group_name_H-M    P1
_symmetry_Int_Tables_number       1
_space_group_crystal_system       triclinic
_cell_length_a                    13.529885
_cell_length_b                    13.509728
_cell_length_c                    27.532987
_cell_angle_alpha                 90.825164
_cell_angle_beta                  89.795668
_cell_angle_gamma                 59.861958
_cell_volume                      4351.51002671

loop_
_atom_site_label
_atom_site_type_symbol
_atom_type_description
_atom_site_fract_x
_atom_site_fract_y
_atom_site_fract_z
_atom_type_partial_charge
C1    C     C_R   0.620198 0.101776 0.569968 0.548465
C2    C     C_1   0.627013 0.735627 0.616764 0.089520
C3    C     C_3   0.667581 0.580767 0.770369 0.362752
C4    C     C_3   0.676630 0.662952 0.807022 -0.043590
C5    C     C_3   0.566591 0.682884 0.745803 -0.017533
C6    C     C_3   0.651768 0.692547 0.711518 -0.013106
C7    C     C_3   0.575746 0.764915 0.782561 0.344673
C8    C     C_3   0.660625 0.774979 0.748226 -0.030360
C9    C     C_1   0.687329 0.639507 0.859139 0.084675
C10   C     C_1   0.641036 0.711078 0.659015 0.131677
C11   C     C_3   0.105177 0.125600 0.740052 0.339806
C12   C     C_R   0.598912 0.780239 0.568802 0.539099
C13   C     C_3   0.200405 0.055246 0.776487 0.475852
C14   C     C_1   0.104437 0.196362 0.903473 0.071088
C15   C     C_1   0.231275 0.138722 0.617841 0.077894
C16   C     C_3   0.063790 0.233440 0.772836 -0.088007
C17   C     C_3   0.159643 0.162632 0.809316 -0.047001
C18   C     C_3   0.144458 0.264088 0.745470 -0.122480
C19   C     C_3   0.185203 0.156367 0.712783 -0.010077
C20   C     C_3   0.240123 0.193403 0.781963 -0.060958
C21   C     C_3   0.280793 0.085874 0.749083 0.404359
C22   C     C_1   0.136380 0.174756 0.861773 0.092025
C23   C     C_R   0.277781 0.122154 0.569685 0.533337
C24   C     C_1   0.205245 0.148350 0.660210 0.120279
C25   C     C_3   0.687547 0.270772 0.730155 0.420933
C26   C     C_3   0.595731 0.300315 0.770061 -0.061988
C27   C     C_1   0.726156 0.232142 0.895828 0.049311
C28   C     C_1   0.638252 0.136989 0.616798 0.066834
C29   C     C_3   0.781602 0.182028 0.763065 -0.022571
C30   C     C_3   0.689610 0.209652 0.802343 -0.054420
C31   C     C_3   0.757917 0.089895 0.742179 0.412343
C32   C     C_3   0.665710 0.178225 0.709254 0.030385
C33   C     C_3   0.667828 0.115714 0.782179 -0.109167
C34   C     C_R   0.622633 0.100334 0.431509 0.564383
C35   C     C_3   0.574039 0.205683 0.748869 -0.213531
C36   C     C_1   0.707663 0.222805 0.853791 0.028031
C37   C     C_1   0.651660 0.158557 0.657989 0.085148
C38   C     C_R   0.724929 0.724105 0.357725 -0.127436
C39   C     C_R   0.733697 0.709529 0.307520 0.024370
C40   C     C_R   0.746128 0.687083 0.205851 -0.009766
C41   C     C_R   0.822903 0.709503 0.230836 -0.049652
C42   C     C_R   0.814659 0.723929 0.281194 0.338558
C43   C     C_R   0.758120 0.663614 0.155665 0.410243
C44   C     C_R   0.679251 0.641540 0.132004 0.001223
C45   C     C_R   0.603185 0.774018 0.430795 0.532060
C46   C     C_R   0.576867 0.671420 0.360324 0.016082
C47   C     C_R   0.576079 0.667884 0.309076 -0.045087
C48   C     C_R   0.655804 0.686818 0.282957 -0.077281
C49   C     C_R   0.496099 0.650594 0.282797 0.468439
C50   C     C_R   0.491959 0.658171 0.232600 0.474557
C51   C     C_R   0.575064 0.669434 0.207124 -0.070088
C52   C     C_R   0.658699 0.681713 0.232006 -0.093020
C53   C     C_R   0.581113 0.658964 0.157048 -0.131333
C54   C     C_R   0.641805 0.713247 0.383750 -0.064906
C55   C     C_R   0.223209 0.053262 0.357709 0.387981
C56   C     C_R   0.275847 0.121280 0.431818 0.557075
C57   C     C_R   0.192334 0.069831 0.308999 -0.041745
C58   C     C_R   0.153280 0.097902 0.208477 -0.054447
C59   C     C_R   0.194701 0.989947 0.229006 0.447561
C60   C     C_R   0.213290 0.976185 0.278671 0.422868
C61   C     C_R   0.131903 0.113729 0.158411 0.369414
C62   C     C_R   0.090331 0.222490 0.138759 -0.003314
C63   C     C_R   0.145220 0.258587 0.370342 -0.048795
C64   C     C_R   0.120269 0.277225 0.320088 -0.008662
C65   C     C_R   0.147162 0.180268 0.289449 -0.081951
C66   C     C_R   0.076747 0.386375 0.298228 -0.014352
C67   C     C_3   0.752387 0.590974 0.736196 0.410509
C68   C     C_R   0.065731 0.395444 0.248101 -0.043848
C69   C     C_R   0.091336 0.300809 0.218571 0.013407
C70   C     C_R   0.130164 0.193021 0.238892 -0.125550
C71   C     C_R   0.074816 0.314562 0.168853 0.320215
C72   C     C_R   0.208427 0.145500 0.387153 -0.027296
C73   C     C_R   0.560970 0.239705 0.363404 0.368535
C74   C     C_R   0.569590 0.257406 0.313870 -0.045300
C75   C     C_R   0.581950 0.284017 0.213186 -0.016221
C76   C     C_R   0.489514 0.367526 0.240914 0.409537
C77   C     C_R   0.483334 0.354077 0.290801 -0.017344
C78   C     C_3   0.763124 0.672801 0.773111 -0.171824
C79   C     C_R   0.592685 0.299262 0.163600 -0.153864
C80   C     C_R   0.681047 0.211132 0.136083 -0.020465
C81   C     C_R   0.742418 0.061034 0.358304 -0.162398
C82   C     C_R   0.750633 0.076460 0.309018 0.000465
C83   C     C_R   0.663185 0.173389 0.286303 -0.017103
C84   C     C_R   0.843473 0.993401 0.282023 -0.116258
C85   C     C_R   0.848714 0.001364 0.231764 -0.010199
C86   C     C_R   0.757505 0.095641 0.208003 0.032211
C87   C     C_R   0.668043 0.184721 0.235867 -0.065079
C88   C     C_R   0.752121 0.104711 0.157440 0.410074
C89   C     C_1   0.696869 0.610816 0.900902 0.069431
C90   C     C_R   0.644799 0.138069 0.385031 0.004221
C91   C     C_R   0.050879 0.235105 0.950275 0.542827
C92   C     C_R   0.711719 0.563028 0.948318 0.546283
C93   C     C_R   0.751094 0.244930 0.945219 0.549950
C94   C     C_R   0.044988 0.247527 0.089346 0.588457
C95   C     C_R   0.706521 0.576592 0.086022 0.566907
C96   C     C_R   0.717982 0.233551 0.089258 0.570599
Cr1   Cr    Cr6+3 0.417550 0.169090 0.500530 1.157641
Cr2   Cr    Cr6+3 0.669180 0.913420 0.499920 1.087450
Cr3   Cr    Cr6+3 0.413260 0.917540 0.499520 1.152285
Cr4   Cr    Cr6+3 0.909170 0.177380 0.020380 1.165102
Cr5   Cr    Cr6+3 0.912710 0.429210 0.018220 1.155466
Cr6   Cr    Cr6+3 0.657170 0.432570 0.019030 1.083857
H1    H     H_    0.843730 0.668829 0.784354 0.168763
H2    H     H_    0.528951 0.387621 0.782001 0.180791
H3    H     H_    0.489246 0.214715 0.741865 0.159034
H4    H     H_    0.661464 0.052337 0.805175 0.166527
H5    H     H_    0.867635 0.168056 0.770705 0.180516
H6    H     H_    0.777551 0.752052 0.376198 0.201569
H7    H     H_    0.889169 0.716116 0.211525 0.202983
H8    H     H_    0.516439 0.648358 0.138475 0.231754
H9    H     H_    0.034411 0.478816 0.232150 0.210566
H10   H     H_    0.535309 0.380210 0.146888 0.214486
H11   H     H_    0.409943 0.418739 0.311143 0.259946
H12   H     H_    0.913184 0.922251 0.300394 0.199128
H13   H     H_    0.808299 0.983582 0.374837 0.181914
O1    O     O_R   0.301710 0.195650 0.554160 -0.490343
O2    O     O_R   0.658900 0.818120 0.449760 -0.510647
O3    O     O_R   0.503220 0.801620 0.445520 -0.444724
O4    O     O_R   0.319370 0.022040 0.450020 -0.430318
O5    O     O_3   0.499990 0.000010 0.499990 -0.298969
O6    O     O_R   0.818720 0.150820 0.967160 -0.479390
O7    O     O_R   0.006410 0.181720 0.970200 -0.506620
O8    O     O_R   0.027890 0.334070 0.964920 -0.494611
O9    O     O_R   0.809600 0.521790 0.967960 -0.493105
O10   O     O_R   0.635520 0.542770 0.964420 -0.494332
O11   O     O_R   0.665950 0.325030 0.970100 -0.481903
O12   O     O_R   0.522390 0.158990 0.550460 -0.498003
O13   O     O_R   0.816620 0.158530 0.074540 -0.403909
O14   O     O_R   0.004460 0.188870 0.069750 -0.449977
O15   O     O_R   0.025800 0.341780 0.072300 -0.420426
O16   O     O_R   0.807650 0.528950 0.067500 -0.411924
O17   O     O_R   0.633420 0.550490 0.071810 -0.528698
O18   O     O_R   0.664000 0.332180 0.069640 -0.511563
O19   O     O_3   0.826350 0.346390 0.019210 -0.327477
O20   O     O_R   0.694390 0.003530 0.554040 -0.473449
O21   O     O_R   0.657700 0.819660 0.549320 -0.487152
O22   O     O_R   0.501930 0.803280 0.552920 -0.486110
O23   O     O_R   0.318170 0.023580 0.549580 -0.492765
O24   O     O_R   0.303010 0.193990 0.446760 -0.449855
O25   O     O_R   0.523600 0.157450 0.450900 -0.419696
O26   O     O_R   0.695690 0.001860 0.446640 -0.525969
C97   C     C_2   0.317490 0.228575 0.805501 0.258925
H14   H     H_    0.305359 0.313088 0.799451 0.091329
O27   O     O_2   0.393900 0.162637 0.831862 -0.442037
C98   C     C_2   0.111397 0.382402 0.729769 0.307988
H15   H     H_    0.082078 0.451159 0.756655 0.130098
O28   O     O_2   0.116891 0.402102 0.687052 -0.424699
C99   C     C_2   0.941160 0.316157 0.784823 0.291129
H16   H     H_    0.877698 0.337218 0.757074 0.252854
O29   O     O_2   0.912143 0.359672 0.825302 -0.510052
F1    F     F_    0.697926 0.349339 0.702195 -0.549010
F2    F     F_    0.843300 0.982081 0.727491 -0.518928
F3    F     F_    0.849035 0.655423 0.130847 -0.549728
F4    F     F_    0.842039 0.503063 0.710459 -0.580523
F5    F     F_    0.887143 0.750097 0.304314 -0.644121
F6    F     F_    0.408911 0.649652 0.208651 -0.471831
F7    F     F_    0.418794 0.629562 0.304671 -0.494067
C100  C     C_2   0.512895 0.631148 0.390218 0.362885
H17   H     H_    0.559682 0.554431 0.411410 0.077658
O30   O     O_2   0.408821 0.686951 0.393712 -0.283334
F8    F     F_    0.149113 0.024835 0.128863 -0.506803
F9    F     F_    0.276433 0.945439 0.375474 -0.515052
F10   F     F_    0.219850 0.896292 0.201128 -0.457035
C101  C     C_2   0.654090 0.884253 0.734140 0.321019
H18   H     H_    0.594414 0.963448 0.752605 0.182232
O31   O     O_2   0.715276 0.884488 0.701572 -0.434192
F11   F     F_    0.253008 0.870009 0.296752 -0.464881
F12   F     F_    0.035719 0.420841 0.150588 -0.563819
C102  C     C_2   0.044959 0.493995 0.324829 0.315327
H19   H     H_    0.978138 0.526671 0.352477 0.107490
O32   O     O_2   0.092613 0.547950 0.315362 -0.343323
C103  C     C_2   0.103844 0.353435 0.406733 0.229175
H20   H     H_    0.028353 0.375462 0.428506 0.085428
O33   O     O_2   0.155826 0.404591 0.413548 -0.389082
F13   F     F_    0.468074 0.317755 0.389520 -0.581394
F14   F     F_    0.402483 0.459635 0.219447 -0.516416
F15   F     F_    0.815589 0.011163 0.128458 -0.547120
F16   F     F_    0.485799 0.854540 0.807558 -0.526734
C104  C     C_2   0.955721 0.913750 0.207308 0.364886
H21   H     H_    0.000854 0.827245 0.221010 0.168387
O34   O     O_2   0.999024 0.938658 0.174231 -0.307614
C105  C     C_2   0.457207 0.687478 0.732608 0.389552
H22   H     H_    0.406188 0.677971 0.760623 0.161328
O35   O     O_2   0.424917 0.701955 0.690650 -0.436522
F17   F     F_    0.670349 0.481127 0.783312 -0.612900
F18   F     F_    0.230138 0.947150 0.792178 -0.528408
F19   F     F_    0.037412 0.089484 0.717482 -0.565132
F20   F     F_    0.392251 0.009675 0.735387 -0.598325

loop_
_geom_bond_atom_site_label_1
_geom_bond_atom_site_label_2
_ccdc_geom_bond_type
C53   H8    S    
C45   O3    A    
C66   C68   A    
C34   O26   A    
C41   C42   A    
C66   C102  S    
C83   C87   A    
C74   C83   A    
Cr1   O12   S    
Cr6   O10   S    
C2    C12   S    
C92   O10   A    
C34   C90   S    
C98   H15   S    
C63   C103  S    
C88   F15   S    
C47   C49   A    
Cr5   O19   S    
C6    C67   S    
C11   C19   S    
Cr5   O8    S    
C79   H10   S    
Cr2   O2    S    
C67   F4    S    
C11   F19   S    
C28   C37   T    
C101  H18   S    
C19   C21   S    
C99   O29   D    
C73   C90   A    
C18   C19   S    
C92   O9    A    
C5    C6    S    
C86   C88   A    
C65   C70   A    
C46   C100  S    
Cr2   O21   S    
C17   C20   S    
C96   O13   A    
Cr4   O6    S    
C73   C74   A    
C34   O25   A    
C74   C77   A    
C69   C71   A    
C93   O11   A    
C12   O22   A    
C23   O23   A    
C26   H2    S    
Cr3   O5    S    
C105  H22   S    
C44   C53   A    
C100  O30   D    
C40   C43   A    
C31   C32   S    
C50   F6    S    
C16   C17   S    
C56   C72   S    
C91   O7    A    
C62   C71   A    
C1    C28   S    
C31   C33   S    
Cr3   O23   S    
C80   C96   S    
Cr1   O25   S    
Cr4   O7    S    
C55   C72   A    
Cr5   O15   S    
C18   C98   S    
C58   C61   A    
C15   C23   S    
C23   O1    A    
Cr1   O1    S    
C59   C60   A    
C91   O8    A    
C8    C78   S    
C102  O32   D    
C49   F7    S    
C61   C62   A    
C67   C78   S    
C4    C7    S    
C77   H11   S    
C3    F17   S    
C98   O28   D    
C103  O33   D    
C81   C82   A    
C39   C42   A    
C25   C29   S    
C38   C39   A    
C60   F11   S    
C51   C52   A    
C94   O14   A    
C32   C35   S    
C20   C97   S    
C7    C8    S    
C84   C85   A    
C8    C101  S    
C9    C89   T    
C5    C7    S    
C56   O24   A    
Cr4   O14   S    
C58   C70   A    
C57   C60   A    
C6    C8    S    
C3    C5    S    
C58   C59   A    
C85   C86   A    
Cr2   O20   S    
C95   O16   A    
C79   C80   A    
C7    F16   S    
C51   C53   A    
C68   H9    S    
C64   C66   A    
C73   F13   S    
C75   C76   A    
Cr6   O19   S    
C4    C78   S    
C29   C30   S    
C35   H3    S    
C11   C16   S    
C47   C48   A    
C38   C54   A    
C76   F14   S    
C85   C104  S    
C57   C65   A    
C81   H13   S    
C93   O6    A    
C50   C51   A    
C13   C21   S    
C102  H19   S    
C94   O15   A    
C32   C37   S    
C76   C77   A    
C89   C92   S    
C104  H21   S    
C81   C90   A    
Cr5   O16   S    
C75   C87   A    
C40   C41   A    
C46   C54   A    
C45   C54   S    
C49   C50   A    
C82   C84   A    
C71   F12   S    
C55   C57   A    
C43   C44   A    
C100  H17   S    
C56   O4    A    
C61   F8    S    
C27   C93   S    
C3    C4    S    
C2    C10   T    
C20   C21   S    
C5    C105  S    
Cr4   O19   S    
C97   O27   D    
C103  H20   S    
C86   C87   A    
C21   F20   S    
C45   O2    A    
C46   C47   A    
C15   C24   T    
C84   H12   S    
C13   F18   S    
C30   C33   S    
C78   H1    S    
Cr4   O13   S    
C68   C69   A    
C16   C18   S    
C3    C67   S    
C33   H4    S    
C1    O12   A    
C55   F9    S    
Cr6   O17   S    
Cr6   O11   S    
C6    C10   S    
C29   H5    S    
Cr2   O5    S    
C96   O18   A    
C30   C36   S    
C27   C36   T    
C17   C22   S    
C13   C17   S    
C25   F1    S    
C64   C65   A    
C14   C22   T    
Cr1   O5    S    
C62   C94   S    
C42   F5    S    
C25   C26   S    
Cr6   O18   S    
C29   C31   S    
C44   C95   S    
C40   C52   A    
Cr3   O3    S    
C31   F2    S    
C11   C13   S    
C16   C99   S    
C95   O17   A    
Cr2   O26   S    
C25   C32   S    
C101  O31   D    
C33   C35   S    
Cr5   O9    S    
C19   C24   S    
C18   C20   S    
C99   H16   S    
C38   H6    S    
C69   C70   A    
C105  O35   D    
C14   C91   S    
C59   F10   S    
Cr3   O4    S    
C63   C64   A    
C26   C35   S    
C48   C52   A    
C63   C72   A    
C43   F3    S    
C80   C88   A    
C82   C83   A    
C12   O21   A    
C97   H14   S    
Cr3   O22   S    
C41   H7    S    
C4    C9    S    
C1    O20   A    
C75   C79   A    
Cr1   O24   S    
C39   C48   A    
C104  O34   D    
C26   C30   S    
