data_mof_unit_20714.cif
_audit_creation_date              2013-03-05T16:43:03-0500
_audit_creation_method            fapswitch 2.2
_symmetry_space_group_name_H-M    P1
_symmetry_Int_Tables_number       1
_space_group_crystal_system       triclinic
_cell_length_a                    10.682194
_cell_length_b                    10.611655
_cell_length_c                    9.884604
_cell_angle_alpha                 90.065003
_cell_angle_beta                  90.15066
_cell_angle_gamma                 91.243534
_cell_volume                      1120.20821253

loop_
_atom_site_label
_atom_site_type_symbol
_atom_site_description
_atom_site_fract_x
_atom_site_fract_y
_atom_site_fract_z
_atom_type_partial_charge
O1    O     O_R   0.500020 0.316790 0.614690 -0.639644
O2    O     O_R   0.500000 0.316760 0.385350 -0.560989
C1    C     C_R   0.512804 0.260552 0.499523 0.928186
O3    O     O_R   0.314800 0.500000 0.614670 -0.646831
O4    O     O_R   0.314790 0.499960 0.385330 -0.585129
C2    C     C_R   0.258144 0.487860 0.499512 0.984074
Zn1   Zn    Zn3+2 0.500010 0.500020 0.653130 0.956852
Zn2   Zn    Zn3+2 0.499990 0.499980 0.346870 1.047290
O5    O     O_R   0.500000 0.683240 0.614650 -0.627618
O6    O     O_R   0.499980 0.683210 0.385310 -0.616549
O7    O     O_R   0.685210 0.500040 0.614670 -0.636880
O8    O     O_R   0.685200 0.500000 0.385330 -0.598865
C3    C     C_R   0.506931 0.740412 0.499945 0.981715
C4    C     C_R   0.742036 0.499296 0.500004 0.904498
C5    C     C_3   0.064964 0.392804 0.609104 -0.002697
H1    H     H_    0.107492 0.416820 0.708964 0.160662
C6    C     C_3   0.922988 0.415015 0.621072 -0.519276
H2    H     H_    0.868248 0.324665 0.627052 0.203541
H3    H     H_    0.904711 0.465037 0.717965 0.197361
H4    H     H_    0.098442 0.635796 0.641413 0.113373
H5    H     H_    0.898731 0.668810 0.614610 0.103441
C7    C     C_3   0.078093 0.621714 0.531462 -0.009337
C8    C     C_3   0.066102 0.440704 0.355301 0.138717
C9    C     C_3   0.120962 0.483792 0.497122 -0.146529
H6    H     H_    0.088979 0.513451 0.278437 0.178209
C10   C     C_3   0.877918 0.495509 0.499472 -0.101670
C11   C     C_3   0.934115 0.631101 0.516702 0.076910
C12   C     C_3   0.923144 0.431541 0.366912 -0.358433
H7    H     H_    0.890685 0.331076 0.368723 0.225352
H8    H     H_    0.881457 0.471973 0.273987 0.234106
C13   C     C_R   0.563720 0.065481 0.618823 0.087490
C14   C     C_R   0.549971 0.131080 0.497422 -0.245028
C15   C     C_R   0.568698 0.065377 0.374086 0.327793
C16   C     C_R   0.558225 0.934460 0.375887 -0.168308
H9    H     H_    0.560732 0.883100 0.281173 0.197134
C17   C     C_R   0.537873 0.871784 0.498965 -0.128870
C18   C     C_R   0.558976 0.936802 0.619321 0.133497
C19   C     C_3   0.494334 0.929995 0.752825 -0.423127
C20   C     C_3   0.498838 0.072774 0.752356 -0.410854
H10   H     H_    0.397676 0.889263 0.745808 0.234176
H11   H     H_    0.554272 0.889196 0.832891 0.210817
H12   H     H_    0.404637 0.112408 0.744452 0.197027
H13   H     H_    0.560013 0.114228 0.832768 0.243185
C21   C     C_R   0.453987 0.398631 0.071157 0.270764
N1    N     N_R   0.499150 0.499140 0.142800 -0.123109
C22   C     C_R   0.557232 0.594617 0.072197 -0.085999
H14   H     H_    0.601638 0.672115 0.126472 0.168931
C23   C     C_R   0.557470 0.594451 0.928303 -0.113343
H15   H     H_    0.602657 0.671307 0.874398 0.150392
N2    N     N_R   0.499150 0.499180 0.857150 -0.113478
C24   C     C_R   0.453945 0.398384 0.928694 0.220792
C25   C     C_3   0.322852 0.348390 0.924699 -0.570264
C26   C     C_3   0.323437 0.349603 0.077119 -0.345529
H16   H     H_    0.256572 0.415897 0.879911 0.222195
H17   H     H_    0.316913 0.251063 0.885458 0.212229
H18   H     H_    0.259207 0.420114 0.119861 0.223755
H19   H     H_    0.318042 0.253505 0.121414 0.274440
N3    N     N_R   0.147754 0.723112 0.460210 0.249096
O9    O     O_R   0.200974 0.813565 0.530026 -0.408356
O10   O     O_R   0.162729 0.721936 0.329690 -0.330155
N4    N     N_R   0.894395 0.718832 0.410303 0.250637
O11   O     O_R   0.837419 0.821218 0.444237 -0.391095
O12   O     O_R   0.914762 0.697214 0.282799 -0.355919
N5    N     N_R   0.592688 0.128263 0.247785 0.224898
O13   O     O_R   0.681239 0.214143 0.240395 -0.383252
O14   O     O_R   0.542970 0.084684 0.136364 -0.421262
N6    N     N_2   0.085772 0.260588 0.577341 -0.232763
H20   H     H_    0.013336 0.206664 0.536877 0.278014
C27   C     C_3   0.173125 0.193539 0.659665 -0.695284
H21   H     H_    0.189423 0.099309 0.614861 0.279055
H22   H     H_    0.135123 0.181347 0.763367 0.239229
H23   H     H_    0.263238 0.246764 0.661384 0.238215
N7    N     N_R   0.112452 0.320252 0.301867 0.196920
O15   O     O_R   0.061089 0.272612 0.193114 -0.373566
O16   O     O_R   0.211484 0.266818 0.350326 -0.394954

loop_
_geom_bond_atom_site_label_1
_geom_bond_atom_site_label_2
_geom_bond_distance
_ccdc_geom_bond_type
N7    O15   1.302238 A    
N1    C22   1.369346 A    
C21   N1    1.358662 A    
Zn1   O7    2.015513 S    
C10   C11   1.555986 S    
C6    C10   1.556686 S    
C12   H7    1.114069 S    
C27   H21   1.110535 S    
O4    C2    1.287260 A    
O7    C4    1.287245 A    
N3    O10   1.300519 A    
C5    H1    1.112521 S    
C5    C6    1.544693 S    
C16   H9    1.083440 S    
C27   H22   1.110166 S    
O5    C3    1.288075 A    
Zn2   N1    2.017156 S    
C11   N4    1.473049 S    
C21   C26   1.479177 S    
C17   C18   1.390010 A    
C8    C9    1.581222 S    
C25   H17   1.103301 S    
C23   N2    1.368796 A    
H5    C11   1.116781 S    
C5    N6    1.459236 S    
N7    O16   1.301560 A    
C1    C14   1.438517 S    
C8    N7    1.478237 S    
O3    Zn1   2.013657 S    
C25   H16   1.109753 S    
C15   C16   1.391464 A    
C20   H12   1.101645 S    
C22   C23   1.422344 A    
N6    H20   1.031880 S    
C19   H11   1.110800 S    
O3    C2    1.292763 A    
C26   H19   1.110647 S    
C20   H13   1.111897 S    
N2    C24   1.363253 A    
N3    O9    1.301347 A    
C13   C18   1.365352 A    
N6    C27   1.437099 S    
N5    O14   1.301538 A    
C27   H23   1.105530 S    
C18   C19   1.492086 S    
C13   C14   1.396981 A    
Zn2   O8    2.013655 S    
C2    C9    1.465223 S    
N4    O12   1.300511 A    
C6    H2    1.113841 S    
C8    C12   1.532705 S    
C4    C10   1.452966 S    
C3    C17   1.425778 S    
C21   C24   1.408186 A    
C5    C9    1.579912 S    
O8    C4    1.284570 A    
C7    C11   1.549891 S    
C7    C9    1.579807 S    
C25   C26   1.506652 S    
C26   H18   1.110042 S    
Zn1   O5    1.981548 S    
C22   H14   1.081607 S    
C23   H15   1.080412 S    
O1    Zn1   1.980731 S    
O2    Zn2   1.981548 S    
Zn1   N2    2.016731 S    
H4    C7    1.117024 S    
O6    C3    1.286072 A    
C7    N3    1.475553 S    
O4    Zn2   2.015516 S    
C10   C12   1.557761 S    
N5    O13   1.301428 A    
C12   H8    1.110458 S    
O2    C1    1.285447 A    
C24   C25   1.487091 S    
C14   C15   1.420494 A    
C19   H10   1.112627 S    
C19   C20   1.514844 S    
C15   N5    1.437263 S    
C6    H3    1.114222 S    
C13   C20   1.495143 S    
C16   C17   1.402364 A    
C8    H6    1.107708 S    
N4    O11   1.300902 A    
Zn2   O6    1.980731 S    
O1    C1    1.293645 A    
