data_mof_unit_7910.cif
_audit_creation_date              2012-12-11T16:09:00-0500
_audit_creation_method            fapswitch 2.2
_symmetry_space_group_name_H-M    P1
_symmetry_Int_Tables_number       1
_space_group_crystal_system       triclinic
_cell_length_a                    12.900783
_cell_length_b                    13.296624
_cell_length_c                    27.700132
_cell_angle_alpha                 95.021793
_cell_angle_beta                  89.997295
_cell_angle_gamma                 118.957138
_cell_volume                      4136.7130971

loop_
_atom_site_label
_atom_site_type_symbol
_atom_type_description
_atom_site_fract_x
_atom_site_fract_y
_atom_site_fract_z
_atom_type_partial_charge
C1    C     C_R   0.628934 0.894873 0.427419 0.540894
C2    C     C_R   0.179200 0.745991 0.302178 -0.003973
C3    C     C_1   0.360160 0.951848 0.817448 0.234006
C4    C     C_1   0.880002 0.933398 0.806879 0.339203
C5    C     C_1   0.440432 0.710654 0.802758 0.302172
C6    C     C_1   0.190617 0.005181 0.124011 0.326828
C7    C     C_R   0.160324 0.730081 0.201804 0.013098
C8    C     C_R   0.601328 0.222327 0.440654 0.551570
C9    C     C_R   0.171345 0.644493 0.224304 0.287764
C10   C     C_R   0.178628 0.651049 0.274726 0.274208
C11   C     C_R   0.106266 0.706924 0.155921 0.271753
C12   C     C_R   0.116973 0.798789 0.130122 -0.025932
C13   C     C_R   0.213510 0.949322 0.356758 -0.073435
C14   C     C_R   0.223965 0.949141 0.305961 -0.051590
C15   C     C_R   0.201318 0.845181 0.278706 -0.042495
C16   C     C_R   0.728545 0.447559 0.240212 0.248024
C17   C     C_R   0.264743 0.050399 0.281780 -0.001153
C18   C     C_R   0.259164 0.043279 0.230736 0.250440
C19   C     C_R   0.210283 0.933442 0.203127 0.028914
C20   C     C_R   0.265916 0.875421 0.426570 0.552615
C21   C     C_R   0.193210 0.837429 0.227759 -0.048268
C22   C     C_R   0.176268 0.913481 0.152590 -0.046828
C23   C     C_R   0.202538 0.854601 0.379583 -0.001099
C24   C     C_R   0.748509 0.939596 0.355192 0.268149
C25   C     C_R   0.735776 0.939602 0.305078 0.017695
C26   C     C_R   0.723943 0.930038 0.202623 0.000317
C27   C     C_R   0.719648 0.431027 0.289869 0.319291
C28   C     C_R   0.791792 0.037640 0.231293 -0.004918
C29   C     C_R   0.796332 0.041887 0.282062 0.216340
C30   C     C_R   0.724440 0.917325 0.151013 0.241823
C31   C     C_R   0.673913 0.805987 0.126431 0.028061
C32   C     C_R   0.627191 0.899216 0.565021 0.547669
C33   C     C_R   0.574981 0.750113 0.353017 -0.052385
C34   C     C_R   0.583919 0.734854 0.301952 0.014340
C35   C     C_R   0.657212 0.834605 0.277847 -0.047890
C36   C     C_R   0.519312 0.626402 0.273827 0.273443
C37   C     C_R   0.517854 0.620302 0.223151 0.029680
C38   C     C_R   0.667436 0.318450 0.303977 0.003326
C39   C     C_R   0.586528 0.720218 0.199688 -0.019700
C40   C     C_R   0.655428 0.828612 0.226751 0.006343
C41   C     C_R   0.596891 0.711034 0.149682 -0.131908
C42   C     C_R   0.654947 0.856509 0.379251 -0.027466
C43   C     C_R   0.751258 0.321065 0.651639 0.180757
C44   C     C_R   0.604060 0.229109 0.578528 0.581678
C45   C     C_R   0.765696 0.350424 0.702901 -0.021150
C46   C     C_R   0.777971 0.365510 0.805602 0.046653
C47   C     C_R   0.883371 0.410089 0.779589 0.274218
C48   C     C_R   0.877243 0.402529 0.728659 0.021550
C49   C     C_R   0.685272 0.351272 0.204899 0.041962
C50   C     C_R   0.780941 0.366332 0.856388 0.255503
C51   C     C_R   0.685206 0.360706 0.881988 -0.021942
C52   C     C_R   0.556677 0.305719 0.654629 0.186717
C53   C     C_R   0.555136 0.295382 0.704558 -0.029473
C54   C     C_R   0.662583 0.324002 0.729477 -0.031656
C55   C     C_R   0.448781 0.252298 0.729313 0.012922
C56   C     C_R   0.271292 0.879503 0.563252 0.557719
C57   C     C_R   0.450757 0.250848 0.779885 0.207897
C58   C     C_R   0.561161 0.293816 0.806709 0.005481
C59   C     C_R   0.667217 0.328259 0.780629 -0.038289
C60   C     C_1   0.692844 0.369165 0.154072 0.138526
C61   C     C_R   0.572119 0.308991 0.858370 -0.036057
C62   C     C_R   0.642492 0.293355 0.627636 0.027153
C63   C     C_1   0.221380 0.862922 0.609890 0.055966
C64   C     C_R   0.057586 0.777587 0.718981 0.035673
C65   C     C_R   0.042896 0.768601 0.769080 0.241404
C66   C     C_R   0.256048 0.893454 0.784898 0.004338
C67   C     C_R   0.269641 0.902861 0.735209 -0.087628
C68   C     C_1   0.633684 0.269677 0.395036 0.076496
C69   C     C_R   0.171596 0.845177 0.702238 0.005540
C70   C     C_R   0.142420 0.826402 0.802078 0.063698
C71   C     C_1   0.652613 0.296906 0.354273 0.079001
C72   C     C_1   0.126056 0.814106 0.853187 0.078573
C73   C     C_1   0.192968 0.853211 0.651313 0.014324
C74   C     C_1   0.102273 0.797143 0.894735 0.084099
C75   C     C_1   0.641949 0.867690 0.611577 0.087679
C76   C     C_R   0.762604 0.885261 0.729833 0.207178
C77   C     C_R   0.766379 0.878565 0.780102 0.013595
C78   C     C_R   0.549933 0.769478 0.778121 -0.004248
C79   C     C_R   0.546346 0.777389 0.727862 0.199244
C80   C     C_R   0.624370 0.223411 0.268762 -0.113449
C81   C     C_R   0.652730 0.834166 0.703722 0.037129
C82   C     C_1   0.701986 0.394248 0.112920 0.122345
C83   C     C_R   0.660052 0.819484 0.804254 -0.059597
C84   C     C_1   0.666237 0.804957 0.855196 -0.003147
C85   C     C_1   0.648592 0.849053 0.652910 0.102111
C86   C     C_1   0.681801 0.792316 0.896597 0.049552
C87   C     C_R   0.059450 0.768497 0.080875 0.555271
C88   C     C_R   0.716429 0.440372 0.067011 0.564780
C89   C     C_R   0.718408 0.783550 0.080213 0.578210
C90   C     C_R   0.057172 0.766198 0.941454 0.551978
C91   C     C_R   0.709135 0.430026 0.929770 0.559697
C92   C     C_R   0.632736 0.239094 0.219452 0.235076
C93   C     C_R   0.167460 0.749006 0.352449 0.268010
C94   C     C_R   0.715728 0.776528 0.943335 0.562585
C95   C     C_1   0.325674 0.163471 0.308817 0.283917
C96   C     C_1   0.199652 0.038392 0.385487 0.284075
C97   C     C_1   0.863562 0.145676 0.210752 0.381308
C98   C     C_1   0.446619 0.509341 0.195168 0.331829
C99   C     C_1   0.481454 0.661947 0.378495 0.345861
C100  C     C_1   0.987225 0.463650 0.704406 0.359256
C101  C     C_1   0.471405 0.269036 0.889025 0.337040
C102  C     C_1   0.334658 0.195611 0.702557 0.339923
C103  C     C_1   0.956179 0.716055 0.685022 0.304397
Cl1   Cl    Cl    0.322583 0.175429 0.203951 -0.498233
Cl2   Cl    Cl    0.310434 0.194647 0.806610 -0.523578
Cl3   Cl    Cl    0.464087 0.351498 0.627277 -0.458537
Cl4   Cl    Cl    0.792103 0.589248 0.222442 -0.537599
Cl5   Cl    Cl    0.899551 0.683283 0.790416 -0.614995
Cl6   Cl    Cl    0.896047 0.959501 0.699577 -0.508871
Cl7   Cl    Cl    0.407991 0.717358 0.695130 -0.536451
Cl8   Cl    Cl    0.772326 0.551017 0.334195 -0.423022
Cl9   Cl    Cl    0.994846 0.561155 0.139348 -0.453152
Cl10  Cl    Cl    0.089859 0.621915 0.382289 -0.368095
Cl11  Cl    Cl    0.191489 0.537183 0.189568 -0.416788
Cl12  Cl    Cl    0.778332 0.034167 0.114466 -0.478647
Cl13  Cl    Cl    0.203530 0.547873 0.301483 -0.356978
Cl14  Cl    Cl    0.888181 0.026840 0.386611 -0.407813
Cl15  Cl    Cl    0.864224 0.179750 0.316391 -0.447810
Cl16  Cl    Cl    0.453278 0.493245 0.299722 -0.445125
Cl17  Cl    Cl    0.573836 0.116162 0.176846 -0.537575
Cl18  Cl    Cl    0.889021 0.347868 0.888128 -0.430153
Cl19  Cl    Cl    0.863072 0.309435 0.618222 -0.486780
Cl20  Cl    Cl    0.025782 0.494604 0.809699 -0.442649
Cr1   Cr    Cr6+3 0.416430 0.829200 0.492370 1.132001
Cr2   Cr    Cr6+3 0.674630 0.087020 0.504170 1.183120
Cr3   Cr    Cr6+3 0.408920 0.083740 0.503490 1.124019
Cr4   Cr    Cr6+3 0.914010 0.832750 0.013970 1.132073
Cr5   Cr    Cr6+3 0.922310 0.578600 0.003000 1.185400
Cr6   Cr    Cr6+3 0.656280 0.574630 0.003870 1.094270
H1    H     H_    0.582937 0.136478 0.279672 0.146214
H2    H     H_    0.553496 0.627096 0.128992 0.152834
H3    H     H_    0.357497 0.954116 0.722005 0.129092
N1    N     N_1   0.374780 0.253187 0.330821 -0.144498
N2    N     N_1   0.443671 0.998548 0.843456 -0.273500
N3    N     N_1   0.970717 0.977239 0.828276 -0.169416
N4    N     N_1   0.352881 0.663777 0.822448 -0.165249
N5    N     N_1   0.201329 0.077450 0.100656 -0.163258
N6    N     N_1   0.188199 0.108939 0.408585 -0.137236
N7    N     N_1   0.921501 0.232995 0.195135 -0.073764
N8    N     N_1   0.389891 0.421515 0.172490 -0.112854
N9    N     N_1   0.406935 0.592375 0.399224 -0.110818
N10   N     N_1   0.075518 0.513322 0.685475 -0.124135
N11   N     N_1   0.392303 0.237451 0.914233 -0.174691
N12   N     N_1   0.243492 0.149857 0.681441 -0.133957
N13   N     N_1   0.874995 0.666679 0.657920 -0.202914
O1    O     O_R   0.296680 0.802170 0.437540 -0.452610
O2    O     O_R   0.637200 0.461990 0.052510 -0.508642
O3    O     O_R   0.664790 0.681920 0.057970 -0.514530
O4    O     O_R   0.525380 0.838530 0.443500 -0.516360
O5    O     O_R   0.815840 0.852920 0.961840 -0.477196
O6    O     O_R   0.012100 0.822630 0.963670 -0.494459
O7    O     O_R   0.037010 0.668460 0.953040 -0.459182
O8    O     O_R   0.813390 0.478970 0.949660 -0.440325
O9    O     O_R   0.632250 0.456930 0.945520 -0.508121
O10   O     O_R   0.660200 0.677230 0.958780 -0.489192
O11   O     O_3   0.830870 0.661990 0.006950 -0.294952
O12   O     O_R   0.662610 0.183990 0.557860 -0.449520
O13   O     O_R   0.702130 0.995190 0.446810 -0.433649
O14   O     O_R   0.661770 0.181390 0.458760 -0.469728
O15   O     O_R   0.499820 0.198480 0.455280 -0.492352
O16   O     O_R   0.311660 0.976250 0.449080 -0.511702
O17   O     O_R   0.297580 0.804960 0.544440 -0.466611
O18   O     O_R   0.526220 0.841130 0.542590 -0.487172
O19   O     O_R   0.703030 0.997990 0.553710 -0.459456
O20   O     O_R   0.500730 0.201280 0.562180 -0.455623
O21   O     O_R   0.312500 0.978850 0.548170 -0.489654
O22   O     O_3   0.499990 0.999990 0.500010 -0.309503
O23   O     O_R   0.820790 0.857990 0.068830 -0.445914
O24   O     O_R   0.016700 0.827330 0.062850 -0.502745
O25   O     O_R   0.041970 0.673520 0.060040 -0.445051
O26   O     O_R   0.817980 0.483660 0.048840 -0.447817

loop_
_geom_bond_atom_site_label_1
_geom_bond_atom_site_label_2
_ccdc_geom_bond_type
C28   C97   S    
C89   O3    A    
C57   Cl2   S    
Cr1   O4    S    
Cr5   O25   S    
C12   C22   A    
C46   C59   A    
C5    N4    T    
C24   C42   A    
C67   H3    S    
C51   C61   A    
Cr3   O20   S    
C32   C75   S    
C39   C41   A    
C66   C70   A    
C53   C54   A    
C7    C11   A    
C55   C102  S    
C24   Cl14  S    
C49   C60   S    
C9    Cl11  S    
C28   C29   A    
Cr2   O22   S    
C84   C86   T    
C91   O8    A    
Cr4   O5    S    
C96   N6    T    
C30   C31   A    
C34   C35   A    
Cr2   O12   S    
C77   C83   A    
C27   C38   A    
C65   C70   A    
C87   O24   A    
C32   O18   A    
C56   O17   A    
C95   N1    T    
C13   C23   A    
C18   C19   A    
C36   Cl16  S    
Cr6   O3    S    
C86   C94   S    
C16   Cl4   S    
C51   C91   S    
C46   C47   A    
C60   C82   T    
C78   C83   A    
C75   C85   T    
C2    C10   A    
C47   C48   A    
C94   O10   A    
C31   C89   S    
C69   C73   S    
C17   C95   S    
Cr3   O16   S    
C9    C10   A    
C65   Cl5   S    
C12   C87   S    
C30   Cl12  S    
Cr1   O18   S    
Cr4   O6    S    
C58   C61   A    
C66   C67   A    
C27   Cl8   S    
C88   O26   A    
C13   C14   A    
C44   O12   A    
C14   C17   A    
C50   Cl18  S    
C102  N12   T    
C37   C98   S    
Cr5   O7    S    
C33   C34   A    
Cr1   O17   S    
C54   C59   A    
C53   C55   A    
C25   C29   A    
C48   C100  S    
C80   H1    S    
C13   C96   S    
C19   C22   A    
C76   C77   A    
C91   O9    A    
C90   O7    A    
Cr3   O22   S    
C39   C40   A    
C41   H2    S    
C78   C79   A    
C76   Cl6   S    
C93   Cl10  S    
C63   C73   T    
C44   C62   S    
C58   C59   A    
C7    C21   A    
C87   O25   A    
Cr1   O1    S    
C23   C93   A    
C98   N8    T    
C67   C69   A    
C80   C92   A    
C61   C101  S    
C89   O23   A    
Cr1   O22   S    
C47   Cl20  S    
C83   C84   S    
C20   C23   S    
C17   C18   A    
C56   C63   S    
C50   C51   A    
C18   Cl1   S    
C64   C69   A    
C24   C25   A    
C1    O4    A    
C2    C15   A    
C43   C45   A    
C43   Cl19  S    
Cr5   O8    S    
C25   C35   A    
C4    N3    T    
C72   C74   T    
C45   C54   A    
C8    C68   S    
C55   C57   A    
C20   O1    A    
Cr2   O19   S    
C94   O5    A    
C33   C42   A    
C49   C92   A    
C8    O15   A    
C16   C49   A    
C10   Cl13  S    
C52   C53   A    
C103  N13   T    
Cr6   O10   S    
C45   C48   A    
C7    C9    A    
C38   C71   S    
C1    O13   A    
C31   C41   A    
C79   Cl7   S    
C19   C21   A    
C11   Cl9   S    
Cr2   O13   S    
C99   N9    T    
C2    C93   A    
C90   O6    A    
Cr3   O21   S    
C76   C81   A    
Cr6   O11   S    
C70   C72   S    
C11   C12   A    
Cr2   O14   S    
C26   C30   A    
Cr3   O15   S    
Cr4   O24   S    
C29   Cl15  S    
C46   C50   A    
C26   C28   A    
C3    N2    T    
C64   C65   A    
C74   C90   S    
C6    N5    T    
C35   C40   A    
C92   Cl17  S    
C4    C77   S    
C37   C39   A    
C52   C62   A    
C101  N11   T    
C26   C40   A    
C57   C58   A    
Cr4   O23   S    
C38   C80   A    
C16   C27   A    
C68   C71   T    
C82   C88   S    
C20   O16   A    
C32   O19   A    
C88   O2    A    
C34   C36   A    
C44   O20   A    
C79   C81   A    
C64   C103  S    
Cr6   O2    S    
Cr5   O11   S    
Cr4   O11   S    
C52   Cl3   S    
C3    C66   S    
C1    C42   S    
C15   C21   A    
Cr5   O26   S    
C36   C37   A    
C56   O21   A    
C14   C15   A    
C100  N10   T    
C33   C99   S    
C5    C78   S    
C8    O14   A    
C97   N7    T    
C81   C85   S    
Cr6   O9    S    
C43   C62   A    
C6    C22   S    
