data_mof_unit_60751.cif
_audit_creation_date              2012-12-10T17:20:12-0500
_audit_creation_method            fapswitch 2.2
_symmetry_space_group_name_H-M    P1
_symmetry_Int_Tables_number       1
_space_group_crystal_system       triclinic
_cell_length_a                    10.217905
_cell_length_b                    10.790853
_cell_length_c                    14.152848
_cell_angle_alpha                 90.563849
_cell_angle_beta                  81.417275
_cell_angle_gamma                 97.124059
_cell_volume                      1531.04456436

loop_
_atom_site_label
_atom_site_type_symbol
_atom_type_description
_atom_site_fract_x
_atom_site_fract_y
_atom_site_fract_z
_atom_type_partial_charge
C1    C     C_R   0.558587 0.733199 0.493555 0.901203
C2    C     C_1   0.500305 0.499937 0.042616 0.056719
C3    C     C_2   0.598203 0.867795 0.492893 -0.297712
C4    C     C_2   0.401797 0.132205 0.507112 -0.297709
C5    C     C_2   0.508745 0.941024 0.473740 0.294460
C6    C     C_2   0.491258 0.058978 0.526264 0.294455
C7    C     C_2   0.928744 0.509286 0.510616 0.327244
C8    C     C_2   0.071256 0.490715 0.489383 0.327250
C9    C     C_2   0.266840 0.080532 0.487402 1.003770
C10   C     C_2   0.733155 0.919463 0.512614 1.003777
C11   C     C_R   0.441412 0.266801 0.506445 0.901201
C12   C     C_R   0.499601 0.500125 0.670571 0.898370
C13   C     C_R   0.500399 0.499875 0.329429 0.898369
C14   C     C_1   0.498955 0.500221 0.772199 -0.106766
C15   C     C_1   0.501045 0.499779 0.227801 -0.106769
C16   C     C_1   0.499099 0.500185 0.857483 0.046026
C17   C     C_1   0.500901 0.499815 0.142517 0.046025
C18   C     C_1   0.499695 0.500062 0.957384 0.056720
Cl1   Cl    Cl    0.579359 0.103326 0.623396 -0.550583
Cl2   Cl    Cl    0.420644 0.896679 0.376607 -0.550584
Cl3   Cl    Cl    0.125159 0.386171 0.399725 -0.517652
Cl4   Cl    Cl    0.874841 0.613830 0.600274 -0.517660
H1    H     H_    0.126609 0.612680 0.587534 0.210071
H2    H     H_    0.873391 0.387319 0.412467 0.210073
H3    H     H_    0.111857 0.943894 0.513687 0.371056
H4    H     H_    0.888147 0.056093 0.486337 0.371060
N1    N     N_2   0.842710 0.448890 0.464580 -0.189346
N2    N     N_2   0.157290 0.551110 0.535420 -0.189347
O1    O     O_R   0.431050 0.692470 0.507130 -0.550856
O2    O     O_R   0.202937 0.970060 0.532859 -0.742130
O3    O     O_2   0.788463 0.865681 0.567914 -0.534216
O4    O     O_R   0.797073 0.029928 0.467155 -0.742124
O5    O     O_R   0.568950 0.307530 0.492870 -0.550859
O6    O     O_R   0.651120 0.659650 0.484400 -0.563235
O7    O     O_R   0.348880 0.340350 0.515600 -0.563228
O8    O     O_R   0.389940 0.516410 0.637650 -0.610261
O9    O     O_R   0.610060 0.483590 0.362350 -0.610259
O10   O     O_R   0.610010 0.483590 0.614920 -0.523878
O11   O     O_R   0.389990 0.516410 0.385080 -0.523880
O12   O     O_2   0.211515 0.134318 0.432114 -0.534218
Zn1   Zn    Zn3+2 0.353060 0.521920 0.515180 1.077713
Zn2   Zn    Zn3+2 0.646940 0.478080 0.484820 1.077712

loop_
_geom_bond_atom_site_label_1
_geom_bond_atom_site_label_2
_ccdc_geom_bond_type
C9    O12   D    
H4    O4    S    
C12   O8    A    
C7    Cl4   S    
C13   O9    A    
C2    C17   S    
O6    Zn2   S    
H2    N1    S    
O1    Zn1   S    
C1    O1    A    
C8    Cl3   S    
C7    C8    S    
O11   Zn1   S    
C5    Cl2   S    
H1    N2    S    
C4    C11   S    
C6    Cl1   S    
N1    Zn2   S    
O8    Zn1   S    
C9    O2    S    
C8    N2    D    
O5    Zn2   S    
C11   O7    A    
C12   C14   S    
C1    O6    A    
O10   Zn2   S    
C13   C15   S    
C12   O10   A    
C5    C6    S    
O7    Zn1   S    
C14   C16   T    
C13   O11   A    
C2    C18   T    
C10   O4    S    
N2    Zn1   S    
C11   O5    A    
C7    N1    D    
C4    C6    D    
O9    Zn2   S    
C3    C10   S    
H3    O2    S    
C3    C5    D    
C4    C9    S    
C15   C17   T    
C10   O3    D    
C16   C18   S    
C1    C3    S    
