data_mof_unit_34578.cif
_audit_creation_date              2012-12-10T21:06:56-0500
_audit_creation_method            fapswitch 2.2
_symmetry_space_group_name_H-M    P1
_symmetry_Int_Tables_number       1
_space_group_crystal_system       triclinic
_cell_length_a                    10.702886
_cell_length_b                    15.851968
_cell_length_c                    15.073735
_cell_angle_alpha                 90.115468
_cell_angle_beta                  89.754759
_cell_angle_gamma                 89.961624
_cell_volume                      2557.40790017

loop_
_atom_site_label
_atom_site_type_symbol
_atom_type_description
_atom_site_fract_x
_atom_site_fract_y
_atom_site_fract_z
_atom_type_partial_charge
C1    C     C_R   0.499897 0.338928 0.499899 0.894384
C2    C     C_R   0.500097 0.661070 0.500097 0.893852
C3    C     C_R   0.872630 0.495357 0.499518 -0.071317
C4    C     C_R   0.127377 0.504680 0.500492 -0.071501
C5    C     C_R   0.938445 0.451936 0.565947 -0.000558
C6    C     C_R   0.061567 0.548130 0.434084 -0.000263
C7    C     C_R   0.556659 0.957705 0.571873 0.504237
C8    C     C_R   0.446503 0.042281 0.427249 0.454687
C9    C     C_R   0.502540 0.913030 0.501262 -0.055514
C10   C     C_R   0.500216 0.086957 0.498029 -0.057976
C11   C     C_R   0.448046 0.954696 0.429712 -0.353361
C12   C     C_R   0.554786 0.045286 0.569553 -0.322344
C13   C     C_1   0.501512 0.824111 0.500702 0.078433
C14   C     C_1   0.500164 0.175879 0.498995 0.076769
C15   C     C_1   0.500044 0.250655 0.499612 -0.135782
C16   C     C_1   0.500733 0.749338 0.500322 -0.137154
C17   C     C_R   0.550773 0.431959 0.952863 -0.163914
C18   C     C_R   0.449223 0.568047 0.047138 -0.166557
C19   C     C_R   0.500162 0.499986 0.905034 0.071195
C20   C     C_R   0.499835 0.500020 0.094966 0.071202
C21   C     C_R   0.449368 0.568023 0.953389 -0.144893
C22   C     C_R   0.550628 0.431983 0.046611 -0.140993
C23   C     C_R   0.259638 0.502583 0.500116 0.873617
C24   C     C_R   0.740366 0.497431 0.499885 0.873508
C25   C     C_1   0.500155 0.499952 0.807163 0.071556
C26   C     C_1   0.499843 0.500051 0.192837 0.072830
C27   C     C_R   0.254768 0.721577 0.328412 -0.085999
C28   C     C_R   0.745265 0.278621 0.671869 -0.083809
C29   C     C_R   0.195131 0.671901 0.392360 -0.118192
C30   C     C_R   0.804884 0.328217 0.607845 -0.121008
C31   C     C_R   0.123108 0.602046 0.366471 0.124471
C32   C     C_R   0.876920 0.398099 0.633632 0.125719
C33   C     C_R   0.110372 0.583345 0.275818 -0.123532
C34   C     C_R   0.889690 0.416906 0.724259 -0.123829
C35   C     C_R   0.170582 0.633022 0.212129 -0.145584
C36   C     C_R   0.829505 0.367304 0.788024 -0.147887
C37   C     C_R   0.242866 0.702005 0.238415 -0.107195
C38   C     C_R   0.757207 0.298294 0.761839 -0.103618
C39   C     C_R   0.933370 0.542097 0.433939 -0.223016
C40   C     C_R   0.066639 0.457949 0.566075 -0.223272
H1    H     H_    0.289511 0.740349 0.189053 0.135867
H2    H     H_    0.710580 0.260008 0.811259 0.141266
H3    H     H_    0.590429 0.378592 0.917693 0.134035
H4    H     H_    0.409563 0.621412 0.082310 0.132761
H5    H     H_    0.310485 0.775108 0.348624 0.128562
H6    H     H_    0.689529 0.225075 0.651737 0.131841
H7    H     H_    0.205376 0.687573 0.461925 0.113625
H8    H     H_    0.794612 0.312466 0.538302 0.114213
H9    H     H_    0.055250 0.529734 0.254664 0.139382
H10   H     H_    0.944823 0.470539 0.745334 0.138460
H11   H     H_    0.161429 0.617929 0.142399 0.139790
H12   H     H_    0.838686 0.382476 0.857733 0.140485
H13   H     H_    0.880510 0.576563 0.384512 0.163381
H14   H     H_    0.119498 0.423488 0.615506 0.164126
H15   H     H_    0.595467 0.081281 0.623319 0.206069
H16   H     H_    0.406868 0.918669 0.376171 0.186266
H17   H     H_    0.590317 0.378659 0.081396 0.152416
H18   H     H_    0.409679 0.621347 0.918605 0.150879
N1    N     N_1   0.499960 0.500020 0.270550 -0.078006
N2    N     N_1   0.500040 0.499980 0.729450 -0.078277
O1    O     O_R   0.500000 0.378020 0.573650 -0.621484
O2    O     O_R   0.500000 0.621980 0.426350 -0.622507
O3    O     O_R   0.500060 0.378020 0.426320 -0.579674
O4    O     O_R   0.499940 0.621980 0.573680 -0.580914
O5    O     O_R   0.316730 0.500010 0.573660 -0.624437
O6    O     O_R   0.683270 0.499990 0.426340 -0.624381
O7    O     O_R   0.316790 0.500010 0.426330 -0.600904
O8    O     O_R   0.683210 0.499990 0.573670 -0.601643
Zn1   Zn    Zn3+2 0.499960 0.500000 0.598370 1.007011
Zn2   Zn    Zn3+2 0.500040 0.500000 0.401630 1.007867
S1    S     S_3+6 0.626341 0.905708 0.662940 0.032411
O9    O     O_2   0.530009 0.851570 0.708044 -0.289423
O10   O     O_2   0.730981 0.850661 0.629669 -0.289871
O11   O     O_3   0.683089 0.976109 0.736025 -0.560403
H19   H     H_    0.719920 0.941641 0.784026 0.392528
S2    S     S_3+6 0.376738 0.094329 0.336190 0.050639
O12   O     O_2   0.267853 0.145675 0.369032 -0.243872
O13   O     O_2   0.470183 0.152613 0.293805 -0.295346
O14   O     O_3   0.325668 0.024637 0.260256 -0.523543
H20   H     H_    0.402152 0.003687 0.230205 0.353412

loop_
_geom_bond_atom_site_label_1
_geom_bond_atom_site_label_2
_ccdc_geom_bond_type
C27   C29   A    
C18   C21   A    
S2    O14   S    
C22   H17   S    
O6    Zn2   S    
C28   H6    S    
C29   H7    S    
C30   H8    S    
C35   C37   A    
S2    O13   D    
C38   H2    S    
C7    S1    S    
C33   H9    S    
C8    S2    S    
O2    Zn2   S    
C23   O7    A    
C9    C13   S    
C33   C35   A    
C4    C40   A    
O8    Zn1   S    
C31   C33   A    
C1    C15   S    
C25   N2    T    
C2    C16   S    
C26   N1    T    
C18   C20   A    
C36   H12   S    
C24   O6    A    
C5    C32   S    
C27   H5    S    
C6    C31   S    
C3    C39   A    
C3    C24   S    
C1    O3    A    
C2    O4    A    
C7    C12   A    
C34   H10   S    
O11   H19   S    
S2    O12   D    
C4    C6    A    
C10   C14   S    
S1    O10   D    
C4    C23   S    
C32   C34   A    
C17   H3    S    
C18   H4    S    
O3    Zn2   S    
C28   C38   A    
O4    Zn1   S    
C9    C11   A    
C10   C12   A    
C20   C22   A    
C40   H14   S    
C35   H11   S    
C13   C16   T    
O1    Zn1   S    
C7    C9    A    
C19   C21   A    
C6    C39   A    
C3    C5    A    
C1    O1    A    
S1    O11   S    
C17   C22   A    
O7    Zn2   S    
C23   O5    A    
C28   C30   A    
S1    O9    D    
C29   C31   A    
C30   C32   A    
C39   H13   S    
C20   C26   S    
N2    Zn1   S    
C27   C37   A    
C8    C11   A    
O5    Zn1   S    
C36   C38   A    
C17   C19   A    
C34   C36   A    
C37   H1    S    
C19   C25   S    
C12   H15   S    
C24   O8    A    
N1    Zn2   S    
O14   H20   S    
C21   H18   S    
C8    C10   A    
C5    C40   A    
C14   C15   T    
C11   H16   S    
C2    O2    A    
