data_mof_unit_13217.cif
_audit_creation_date              2013-03-05T15:49:05-0500
_audit_creation_method            fapswitch 2.2
_symmetry_space_group_name_H-M    P1
_symmetry_Int_Tables_number       1
_space_group_crystal_system       triclinic
_cell_length_a                    22.11637
_cell_length_b                    7.222874
_cell_length_c                    19.571447
_cell_angle_alpha                 89.95929
_cell_angle_beta                  98.744553
_cell_angle_gamma                 90.006403
_cell_volume                      3090.07406781

loop_
_atom_site_label
_atom_site_type_symbol
_atom_site_description
_atom_site_fract_x
_atom_site_fract_y
_atom_site_fract_z
_atom_type_partial_charge
O1    O     O_R   0.448470 0.506130 0.415700 -0.583964
O2    O     O_R   0.551530 0.006130 0.584300 -0.583518
O3    O     O_R   0.436320 0.174490 0.555800 -0.565364
O4    O     O_R   0.563680 0.674490 0.444200 -0.565685
C1    C     C_R   0.423271 0.343667 0.577577 1.018587
C2    C     C_R   0.576849 0.843829 0.422535 1.019186
O5    O     O_R   0.441350 0.176340 0.414480 -0.586598
O6    O     O_R   0.558650 0.676340 0.585520 -0.587156
O7    O     O_R   0.556600 0.007100 0.441970 -0.570441
O8    O     O_R   0.443400 0.507100 0.558030 -0.571555
C3    C     C_R   0.425568 0.345361 0.390445 0.998182
C4    C     C_R   0.574329 0.845216 0.609626 0.998147
O9    O     O_3   0.537810 0.339550 0.509190 -0.272579
O10   O     O_3   0.462190 0.839550 0.490810 -0.273245
V1    V     V_3+5 0.492990 0.064280 0.498300 1.271806
V2    V     V_3+5 0.507010 0.564280 0.501700 1.271183
C5    C     C_R   0.877847 0.895642 0.699085 -0.209704
C6    C     C_R   0.121699 0.386776 0.300680 -0.206162
H1    H     H_    0.900229 0.886185 0.653745 0.187605
H2    H     H_    0.099162 0.372868 0.345753 0.186630
C7    C     C_R   0.887958 0.938156 0.822252 -0.294606
C8    C     C_R   0.111810 0.437250 0.177888 -0.294156
C9    C     C_R   0.590989 0.849937 0.735662 -0.366662
C10   C     C_R   0.408797 0.353521 0.264415 -0.366382
C11   C     C_R   0.626030 0.838959 0.801059 0.312287
C12   C     C_R   0.373761 0.344323 0.198973 0.313899
C13   C     C_R   0.690206 0.831753 0.807427 0.426758
C14   C     C_R   0.309598 0.336386 0.192563 0.425844
C15   C     C_R   0.720203 0.864026 0.748689 -0.148388
C16   C     C_R   0.279593 0.365830 0.251454 -0.147475
C17   C     C_R   0.683554 0.861955 0.681324 -0.136201
C18   C     C_R   0.316212 0.361624 0.318804 -0.136761
C19   C     C_R   0.785536 0.889541 0.754628 0.140942
C20   C     C_R   0.214237 0.389880 0.245594 0.139956
C21   C     C_R   0.813773 0.880822 0.694246 -0.118791
C22   C     C_R   0.185889 0.375827 0.305765 -0.120089
C23   C     C_R   0.777982 0.863389 0.629219 0.247943
C24   C     C_R   0.221666 0.356500 0.370783 0.251723
C25   C     C_R   0.714073 0.863281 0.622521 0.231469
C26   C     C_R   0.285629 0.359540 0.377561 0.230453
C27   C     C_R   0.824087 0.927825 0.818197 -0.284538
C28   C     C_R   0.175761 0.431106 0.182249 -0.282673
C29   C     C_R   0.914740 0.925914 0.762101 0.542613
C30   C     C_R   0.084815 0.417719 0.237670 0.544121
C31   C     C_R   0.617921 0.853543 0.675696 -0.163168
C32   C     C_R   0.381882 0.354354 0.324410 -0.163261
H3    H     H_    0.806085 0.954159 0.865336 0.193200
H4    H     H_    0.193924 0.461874 0.135516 0.192269
H5    H     H_    0.541510 0.850352 0.731202 0.183901
H6    H     H_    0.458274 0.354781 0.268858 0.183777
C33   C     C_3   0.772498 0.816858 0.303800 0.255001
C34   C     C_3   0.228109 0.307806 0.697422 0.261526
C35   C     C_3   0.793375 0.001553 0.274715 -0.191957
C36   C     C_3   0.205615 0.493560 0.723807 -0.196586
H7    H     H_    0.832315 0.086892 0.299557 0.230138
H8    H     H_    0.166018 0.574138 0.697631 0.220766
H9    H     H_    0.707000 0.203291 0.269473 0.204380
H10   H     H_    0.290202 0.701330 0.725756 0.205234
C37   C     C_1   0.873462 0.940036 0.118509 -0.248886
C38   C     C_1   0.126496 0.440293 0.881389 -0.250361
C39   C     C_1   0.621859 0.852544 0.375843 -0.161780
C40   C     C_1   0.378472 0.351747 0.624484 -0.161684
C41   C     C_3   0.767246 0.726565 0.232191 0.074929
C42   C     C_3   0.234377 0.224923 0.770396 0.074921
C43   C     C_3   0.787401 0.910749 0.201891 -0.186290
C44   C     C_3   0.212536 0.410227 0.797986 -0.174188
C45   C     C_3   0.699663 0.787270 0.216556 0.350298
C46   C     C_3   0.301414 0.291786 0.784836 0.336780
C47   C     C_3   0.705132 0.877803 0.288917 -0.128159
C48   C     C_3   0.294964 0.374819 0.711160 -0.134523
C49   C     C_3   0.719592 0.971598 0.187293 0.280057
C50   C     C_3   0.279776 0.477070 0.811435 0.286100
C51   C     C_3   0.724803 0.063959 0.259173 -0.200965
C52   C     C_3   0.273588 0.562092 0.738219 -0.197608
C53   C     C_1   0.834269 0.928258 0.155537 0.256457
C54   C     C_1   0.165652 0.428380 0.844307 0.258043
C55   C     C_1   0.659510 0.862421 0.336837 0.240847
C56   C     C_1   0.340878 0.360611 0.663561 0.250525
O11   O     O_R   0.056650 0.288730 0.942060 -0.591807
O12   O     O_R   0.943350 0.788730 0.057940 -0.592761
O13   O     O_R   0.058660 0.616870 0.085540 -0.612386
O14   O     O_R   0.941340 0.116870 0.914460 -0.613473
C57   C     C_R   0.072498 0.448417 0.110438 0.979857
C58   C     C_R   0.927463 0.948556 0.889591 0.981584
O15   O     O_R   0.063700 0.618520 0.944220 -0.560803
O16   O     O_R   0.936300 0.118520 0.055780 -0.561361
O17   O     O_R   0.948460 0.787610 0.915680 -0.577920
O18   O     O_R   0.051540 0.287610 0.084320 -0.576297
C59   C     C_R   0.079292 0.450062 0.925242 0.936245
C60   C     C_R   0.920698 0.949976 0.074728 0.938175
O19   O     O_3   0.962230 0.453430 0.990860 -0.285854
O20   O     O_3   0.037770 0.953430 0.009140 -0.284236
V3    V     V_3+5 0.007010 0.728750 0.001700 1.191944
V4    V     V_3+5 0.992990 0.228750 0.998300 1.191716
O21   O     O_3   0.977639 0.932171 0.764690 -0.658641
C61   C     C_3   0.997646 0.118761 0.766402 0.169420
H11   H     H_    0.044932 0.122306 0.795338 0.169248
H12   H     H_    0.969841 0.213258 0.794307 0.087205
C62   C     C_3   0.998967 0.191692 0.693122 -0.311178
H13   H     H_    0.027059 0.097741 0.665770 0.270968
H14   H     H_    0.951793 0.195339 0.664004 0.208436
C63   C     C_3   0.025634 0.386774 0.694602 -0.808481
H15   H     H_    0.997612 0.483564 0.720876 0.255769
H16   H     H_    0.025983 0.436107 0.640922 0.296281
H17   H     H_    0.073283 0.386663 0.722247 0.250277
O22   O     O_3   0.021824 0.415996 0.234541 -0.660169
C64   C     C_3   0.999341 0.599761 0.233973 0.171249
H18   H     H_    0.952371 0.599425 0.204161 0.172812
H19   H     H_    0.026370 0.700235 0.207510 0.084784
C65   C     C_3   0.995917 0.665871 0.307653 -0.313641
H20   H     H_    0.968912 0.565313 0.333694 0.261938
H21   H     H_    0.042735 0.674516 0.337493 0.209195
C66   C     C_3   0.966056 0.856292 0.307375 -0.815655
H22   H     H_    0.991878 0.959005 0.280883 0.255930
H23   H     H_    0.965697 0.902835 0.361359 0.302787
H24   H     H_    0.918190 0.849264 0.280588 0.251196
N1    N     N_R   0.800750 0.731977 0.368333 0.291309
O23   O     O_R   0.849913 0.803444 0.403240 -0.308997
O24   O     O_R   0.776557 0.585164 0.391591 -0.275742
N2    N     N_R   0.199095 0.215305 0.634783 0.291980
O25   O     O_R   0.140263 0.189073 0.624503 -0.332013
O26   O     O_R   0.231948 0.152355 0.590194 -0.265914
N3    N     N_R   0.688849 0.057832 0.124223 0.241029
O27   O     O_R   0.630542 0.092106 0.117548 -0.392727
O28   O     O_R   0.718991 0.098034 0.074093 -0.396304
N4    N     N_R   0.309854 0.571200 0.873090 0.243024
O29   O     O_R   0.367706 0.611315 0.878783 -0.391306
O30   O     O_R   0.279551 0.613346 0.922864 -0.393212
O31   O     O_3   0.647091 0.682108 0.191683 -0.635033
C67   C     C_3   0.651140 0.605873 0.126253 0.222423
H25   H     H_    0.678984 0.477503 0.132956 0.179706
H26   H     H_    0.671496 0.703723 0.092072 0.138367
C68   C     C_3   0.586630 0.554911 0.091530 -0.227861
H27   H     H_    0.567139 0.450319 0.123689 0.260388
H28   H     H_    0.557052 0.680097 0.087877 0.233986
C69   C     C_3   0.586394 0.476500 0.019140 -0.807552
H29   H     H_    0.601537 0.583770 0.984983 0.284094
H30   H     H_    0.539297 0.432725 0.997213 0.286705
H31   H     H_    0.617247 0.354961 0.020588 0.294174
O32   O     O_3   0.355136 0.193490 0.811079 -0.633222
C70   C     C_3   0.351387 0.119129 0.876878 0.227095
H32   H     H_    0.323831 0.990150 0.870920 0.183196
H33   H     H_    0.330922 0.218095 0.910529 0.136803
C71   C     C_3   0.416076 0.070325 0.911679 -0.230467
H34   H     H_    0.436430 0.968849 0.879081 0.260990
H35   H     H_    0.444876 0.197235 0.916302 0.231100
C72   C     C_3   0.416403 0.987633 0.983467 -0.807523
H36   H     H_    0.399491 0.090845 0.017866 0.283385
H37   H     H_    0.463840 0.948421 0.005874 0.288631
H38   H     H_    0.387043 0.862395 0.980826 0.293930
N5    N     N_R   0.792440 0.546852 0.217416 0.244135
O33   O     O_R   0.821639 0.447833 0.267285 -0.370650
O34   O     O_R   0.793943 0.498029 0.153759 -0.414711
N6    N     N_R   0.211404 0.044403 0.787920 0.246642
O35   O     O_R   0.186661 0.933407 0.739359 -0.365696
O36   O     O_R   0.208447 0.003632 0.852057 -0.408511
N7    N     N_R   0.806410 0.852792 0.568106 0.265627
O37   O     O_R   0.834786 0.702538 0.554584 -0.301416
O38   O     O_R   0.804169 0.993396 0.526222 -0.279310
N8    N     N_R   0.193133 0.339475 0.431700 0.266458
O39   O     O_R   0.196426 0.474213 0.476182 -0.288035
O40   O     O_R   0.163770 0.188834 0.442601 -0.309559
O41   O     O_3   0.722143 0.779514 0.870929 -0.638598
C73   C     C_3   0.743520 0.594899 0.868150 0.190019
H39   H     H_    0.791860 0.591506 0.894003 0.138075
H40   H     H_    0.743388 0.540273 0.814710 0.086911
C74   C     C_3   0.705863 0.467000 0.907497 -0.312825
H41   H     H_    0.709230 0.515070 0.961888 0.238736
H42   H     H_    0.657113 0.471611 0.883132 0.216209
C75   C     C_3   0.728568 0.267784 0.906961 -0.837992
H43   H     H_    0.724671 0.216400 0.853005 0.241734
H44   H     H_    0.700294 0.178515 0.935676 0.330270
H45   H     H_    0.777000 0.258609 0.932161 0.257667
O42   O     O_3   0.277680 0.286161 0.128815 -0.639061
C76   C     C_3   0.256174 0.101449 0.130805 0.190028
H46   H     H_    0.207948 0.098787 0.104569 0.138623
H47   H     H_    0.255925 0.045394 0.184000 0.087132
C77   C     C_3   0.294050 0.974525 0.091414 -0.315453
H48   H     H_    0.291099 0.024064 0.037218 0.239661
H49   H     H_    0.342682 0.978354 0.116221 0.215247
C78   C     C_3   0.271177 0.775320 0.091087 -0.829909
H50   H     H_    0.274960 0.722124 0.144822 0.240823
H51   H     H_    0.299430 0.686993 0.062053 0.329413
H52   H     H_    0.222765 0.767002 0.065763 0.257818
N9    N     N_R   0.595884 0.828219 0.861205 0.235016
O43   O     O_R   0.539872 0.768255 0.855997 -0.411448
O44   O     O_R   0.622476 0.890925 0.920557 -0.369664
N10   N     N_R   0.403918 0.336121 0.138801 0.235243
O45   O     O_R   0.459925 0.276307 0.143757 -0.415894
O46   O     O_R   0.377309 0.400654 0.079714 -0.373012
N11   N     N_R   0.681358 0.861452 0.554205 0.205340
O47   O     O_R   0.671053 0.019321 0.522597 -0.376442
O48   O     O_R   0.682680 0.711017 0.517963 -0.365202
N12   N     N_R   0.318403 0.356719 0.445827 0.207397
O49   O     O_R   0.318338 0.204478 0.481341 -0.356691
O50   O     O_R   0.328029 0.513759 0.478098 -0.377314

loop_
_geom_bond_atom_site_label_1
_geom_bond_atom_site_label_2
_geom_bond_distance
_ccdc_geom_bond_type
N12   O50   1.300357 A    
C41   C43   1.548971 S    
N4    O29   1.300027 A    
C9    C31   1.394747 A    
C15   C19   1.443665 A    
C48   C56   1.482325 S    
C47   C55   1.482429 S    
O21   C61   1.417276 S    
O1    C3    1.331854 A    
C58   O17   1.324733 A    
O2    C4    1.331951 A    
C2    O7    1.337357 A    
C5    C29   1.388884 A    
C77   H48   1.111675 S    
N3    O27   1.300025 A    
C76   H47   1.117594 S    
C26   N12   1.419978 S    
C78   H50   1.110552 S    
O5    C3    1.335240 A    
C44   C50   1.547538 S    
C73   H40   1.117701 S    
N7    O37   1.301055 A    
O14   V4    2.020420 S    
C42   C46   1.543987 S    
C2    C39   1.451361 S    
C49   N3    1.455228 S    
C73   H39   1.111352 S    
C72   H37   1.110499 S    
C10   C12   1.394143 A    
C66   H22   1.111195 S    
C71   C72   1.525282 S    
C19   C21   1.419518 A    
N3    O28   1.299907 A    
C45   C49   1.539614 S    
C13   C15   1.430904 A    
O22   C64   1.416890 S    
H9    C51   1.110388 S    
C61   C62   1.531969 S    
C42   N6    1.458787 S    
C25   N11   1.420298 S    
C63   H17   1.109023 S    
N10   O46   1.301251 A    
C23   N7    1.435467 S    
O42   C76   1.418848 S    
O16   V4    1.974530 S    
C13   O41   1.385051 S    
C7    C29   1.398817 A    
O15   V3    1.975288 S    
C8    C30   1.399089 A    
C75   H43   1.110491 S    
C72   H36   1.107353 S    
N2    O26   1.299865 A    
C20   C28   1.424276 A    
C61   H12   1.115811 S    
C48   C52   1.552703 S    
C68   C69   1.525422 S    
C29   O21   1.385040 S    
C64   H18   1.111425 S    
C47   C51   1.552991 S    
C76   C77   1.527733 S    
C35   C43   1.556623 S    
N6    O36   1.300430 A    
C46   C50   1.538800 S    
C66   H24   1.108780 S    
C78   H51   1.108558 S    
N12   O49   1.300580 A    
N5    O33   1.299467 A    
N7    O38   1.300870 A    
C24   C26   1.400787 A    
C36   C52   1.567046 S    
C64   H19   1.116124 S    
C45   O31   1.412092 S    
C12   N10   1.440191 S    
C69   H31   1.109631 S    
O13   C57   1.328688 A    
C34   C36   1.547085 S    
C74   C75   1.524633 S    
O18   V4    2.007454 S    
C35   H7    1.109501 S    
C10   H6    1.084465 S    
C23   C25   1.399509 A    
C36   H8    1.109687 S    
C16   C20   1.442983 A    
N11   O47   1.300396 A    
C77   C78   1.524804 S    
C72   H38   1.110090 S    
C33   C41   1.534518 S    
O32   C70   1.408974 S    
O11   V4    1.962620 S    
C50   C52   1.545426 S    
O16   C60   1.332952 A    
C70   C71   1.529213 S    
C39   C55   1.214271 T    
C74   H41   1.111626 S    
C49   C51   1.545782 S    
O15   C59   1.333059 A    
C69   H29   1.107545 S    
C43   C49   1.547108 S    
C38   C54   1.214609 T    
C65   H20   1.111721 S    
C74   H42   1.111131 S    
C50   N4    1.455272 S    
N10   O45   1.301484 A    
C45   C47   1.548238 S    
C70   H33   1.113992 S    
C42   C44   1.548157 S    
O4    V2    1.974414 S    
C67   H26   1.113798 S    
N11   O48   1.300772 A    
C41   C45   1.543011 S    
C6    C30   1.389224 A    
C71   H35   1.112036 S    
O13   V3    2.019593 S    
C62   H13   1.111221 S    
C7    C58   1.468318 S    
O6    C4    1.334781 A    
C44   C54   1.483326 S    
C61   H11   1.111308 S    
C62   C63   1.526030 S    
C27   H3    1.076018 S    
O1    V2    2.005968 S    
C28   H4    1.076435 S    
C63   H16   1.110274 S    
O2    V1    2.005529 S    
C65   C66   1.525429 S    
C41   N5    1.459010 S    
N6    O35   1.299350 A    
C11   N9    1.440386 S    
C7    C27   1.404697 A    
C34   N2    1.457031 S    
O4    C2    1.340657 A    
C62   H14   1.110479 S    
O14   C58   1.328303 A    
C34   C42   1.534907 S    
C68   H27   1.111041 S    
C64   C65   1.532114 S    
C46   O32   1.411976 S    
C67   C68   1.529141 S    
N9    O44   1.301257 A    
C5    H1    1.082039 S    
C22   C24   1.399442 A    
C37   C53   1.214351 T    
C18   C26   1.420083 A    
O3    V1    1.975171 S    
N2    O25   1.299911 A    
H10   C52   1.110295 S    
C69   H30   1.110529 S    
C68   H28   1.111964 S    
O31   C67   1.409581 S    
C78   H52   1.111012 S    
C38   C59   1.450522 S    
N4    O30   1.299891 A    
C21   C23   1.398577 A    
C18   C32   1.440742 A    
C40   C56   1.213972 T    
C73   C74   1.527690 S    
C35   C51   1.566971 S    
C4    C31   1.492063 S    
O3    C1    1.340264 A    
C6    H2    1.081796 S    
C77   H49   1.111109 S    
C36   C44   1.557123 S    
C30   O22   1.385203 S    
C11   C13   1.406771 A    
C9    H5    1.084465 S    
C33   C47   1.538320 S    
C12   C14   1.406638 A    
C43   C53   1.482971 S    
C71   H34   1.111290 S    
C19   C27   1.424501 A    
N8    O39   1.300860 A    
N1    O24   1.300456 A    
C67   H25   1.109743 S    
O7    V1    1.958952 S    
C24   N8    1.436425 S    
C1    O8    1.337549 A    
C15   C17   1.438957 A    
C76   H46   1.111354 S    
O8    V2    1.958557 S    
N1    O23   1.299986 A    
C8    C57   1.468324 S    
O19   V4    1.757097 S    
C16   C18   1.438627 A    
C14   O42   1.385384 S    
N9    O43   1.301572 A    
C8    C28   1.404624 A    
C75   H44   1.108530 S    
O17   V3    2.007008 S    
O5    V1    2.019728 S    
O20   V3    1.757149 S    
C33   N1    1.456186 S    
C14   C16   1.430719 A    
C1    C40   1.450709 S    
C57   O18   1.324335 A    
C20   C22   1.419339 A    
N5    O34   1.300331 A    
O12   C60   1.328941 A    
C63   H15   1.111186 S    
C65   H21   1.110552 S    
O11   C59   1.329067 A    
O41   C73   1.418679 S    
C34   C48   1.540099 S    
C9    C11   1.394045 A    
O6    V2    2.020559 S    
C17   C31   1.440217 A    
O9    V2    1.757785 S    
C17   C25   1.419982 A    
C46   C48   1.547736 S    
O10   V1    1.757837 S    
C3    C32   1.492718 S    
C5    C21   1.409857 A    
C33   C35   1.547755 S    
O12   V3    1.963033 S    
C70   H32   1.109653 S    
C6    C22   1.410170 A    
C37   C60   1.450115 S    
N8    O40   1.301060 A    
C10   C32   1.394869 A    
C66   H23   1.110150 S    
C75   H45   1.111001 S    
