data_mof_unit_5747.cif
_audit_creation_date              2013-03-05T16:06:56-0500
_audit_creation_method            fapswitch 2.2
_symmetry_space_group_name_H-M    P1
_symmetry_Int_Tables_number       1
_space_group_crystal_system       triclinic
_cell_length_a                    14.52396
_cell_length_b                    16.176229
_cell_length_c                    6.932806
_cell_angle_alpha                 90.000162
_cell_angle_beta                  98.871893
_cell_angle_gamma                 89.994018
_cell_volume                      1609.32584896

loop_
_atom_site_label
_atom_site_type_symbol
_atom_site_description
_atom_site_fract_x
_atom_site_fract_y
_atom_site_fract_z
_atom_type_partial_charge
O1    O     O_R   0.584990 0.413650 0.534420 -0.573192
O2    O     O_R   0.584990 0.586350 0.534420 -0.561501
O3    O     O_R   0.596190 0.585230 0.208380 -0.572453
O4    O     O_R   0.596190 0.414770 0.208380 -0.565808
O5    O     O_R   0.415010 0.586420 0.976930 -0.607029
O6    O     O_R   0.415010 0.413580 0.976930 -0.598306
C1    C     C_R   0.619298 0.613827 0.384929 0.981171
C2    C     C_R   0.619253 0.386184 0.384888 0.993532
O7    O     O_3   0.440560 0.500000 0.319140 -0.299823
V1    V     V_3+5 0.511030 0.500000 0.068070 1.250729
O8    O     O_R   0.403810 0.414840 0.643540 -0.605578
O9    O     O_R   0.403810 0.585160 0.643540 -0.607777
C3    C     C_R   0.381566 0.385947 0.805776 1.086178
C4    C     C_R   0.381609 0.614089 0.805782 1.026202
V2    V     V_3+5 0.488970 0.500000 0.560620 1.223190
O10   O     O_3   0.559440 0.500000 0.859420 -0.215120
H1    H     H_    0.188600 0.806288 0.805678 0.155896
H2    H     H_    0.188715 0.193648 0.805693 0.153659
H3    H     H_    0.318819 0.693374 0.102215 0.154456
H4    H     H_    0.318996 0.306497 0.102242 0.153742
C5    C     C_2   0.312518 0.681985 0.796109 -0.472201
C6    C     C_2   0.312588 0.317972 0.796128 -0.460033
C7    C     C_2   0.287978 0.715857 0.959002 -0.045359
C8    C     C_2   0.288119 0.284045 0.959028 -0.027505
H5    H     H_    0.225510 0.795484 0.254617 0.152896
H6    H     H_    0.225357 0.204628 0.254606 0.153263
C9    C     C_2   0.194771 0.818188 0.111562 -0.441953
C10   C     C_2   0.194649 0.181906 0.111550 -0.442793
C11   C     C_2   0.219413 0.783999 0.949093 -0.044584
C12   C     C_2   0.219479 0.215964 0.949109 -0.045823
H7    H     H_    0.281705 0.705020 0.653399 0.161823
H8    H     H_    0.281770 0.294951 0.653418 0.153864
C13   C     C_R   0.675706 0.749975 0.537512 -0.025937
C14   C     C_R   0.696871 0.268297 0.583352 0.069040
C15   C     C_R   0.688172 0.682601 0.416968 -0.171711
C16   C     C_R   0.691897 0.320784 0.421377 -0.254952
C17   C     C_R   0.769196 0.682012 0.329437 -0.140747
C18   C     C_R   0.760194 0.310495 0.299281 -0.141951
H9    H     H_    0.784002 0.628350 0.246267 0.198820
H10   H     H_    0.761615 0.352243 0.177554 0.182891
C19   C     C_R   0.834953 0.747308 0.357299 0.371239
C20   C     C_R   0.825703 0.244887 0.328620 0.371405
C21   C     C_R   0.821246 0.815325 0.480521 -0.386335
C22   C     C_R   0.823489 0.186888 0.482818 -0.316273
C23   C     C_R   0.739955 0.815074 0.567249 0.108565
C24   C     C_R   0.759289 0.202298 0.610111 0.025150
C25   C     C_3   0.732072 0.820265 0.779472 0.228772
C26   C     C_3   0.688135 0.146092 0.674921 0.271567
C27   C     C_3   0.662810 0.749488 0.747295 0.172920
C28   C     C_3   0.621009 0.219027 0.650882 0.169574
H11   H     H_    0.798295 0.805345 0.875600 0.169024
H12   H     H_    0.708175 0.124154 0.827595 0.188109
H13   H     H_    0.590516 0.765451 0.767967 0.131550
H14   H     H_    0.558953 0.211291 0.536365 0.132762
O11   O     O_R   0.921430 0.915960 0.371040 -0.547053
O12   O     O_R   0.921430 0.084040 0.371040 -0.560157
O13   O     O_R   0.910450 0.087500 0.697310 -0.563708
O14   O     O_R   0.910450 0.912500 0.697310 -0.587250
O15   O     O_R   0.091710 0.087460 0.928430 -0.612884
O16   O     O_R   0.091710 0.912540 0.928430 -0.616759
C29   C     C_R   0.889101 0.115321 0.519186 1.031927
C30   C     C_R   0.889904 0.884203 0.519844 1.038310
O17   O     O_3   0.065970 0.000000 0.586140 -0.315155
V3    V     V_3+5 0.995640 1.000000 0.837400 1.277807
O18   O     O_R   0.103020 0.915700 0.261710 -0.600128
O19   O     O_R   0.103020 0.084300 0.261710 -0.608246
C31   C     C_R   0.125572 0.886075 0.100347 1.084258
C32   C     C_R   0.125330 0.114112 0.100320 1.064972
V4    V     V_3+5 0.017940 0.000000 0.344880 1.256966
O20   O     O_3   0.947330 0.000000 0.046180 -0.216184
Cl1   Cl    Cl    0.707787 0.657810 0.870341 -0.638488
Cl2   Cl    Cl    0.594425 0.256466 0.878035 -0.633451
N1    N     N_R   0.919694 0.738324 0.277085 0.224352
O21   O     O_R   0.938252 0.788675 0.142136 -0.410769
O22   O     O_R   0.967710 0.670415 0.308024 -0.378723
N2    N     N_R   0.892731 0.238060 0.198503 0.222075
O23   O     O_R   0.953924 0.296490 0.194675 -0.402435
O24   O     O_R   0.878617 0.185590 0.054914 -0.387269
Cl3   Cl    Cl    0.680484 0.914539 0.841942 -0.537509
Cl4   Cl    Cl    0.652413 0.065964 0.501290 -0.551743

loop_
_geom_bond_atom_site_label_1
_geom_bond_atom_site_label_2
_geom_bond_distance
_ccdc_geom_bond_type
O14   C30   1.303490 A    
O19   C32   1.304346 A    
C9    C11   1.351651 D    
O1    C2    1.295694 A    
H1    C11   1.087002 S    
N1    O21   1.299695 A    
O2    C1    1.295877 A    
C25   Cl3   1.781690 S    
O4    C2    1.302690 A    
C25   C27   1.517743 S    
C5    H7    1.086920 S    
O15   V3    2.018801 S    
C28   H14   1.112488 S    
C6    H8    1.086894 S    
C7    C11   1.479903 S    
C4    C5    1.482145 S    
C15   C17   1.404801 A    
N2    O24   1.300186 A    
C18   C20   1.418825 A    
O3    C1    1.303104 A    
C27   H13   1.111792 S    
O19   V4    1.984717 S    
C13   C27   1.494785 S    
V2    O10   2.164435 S    
O11   C30   1.297529 A    
C13   C23   1.401093 A    
C2    C16   1.487898 S    
C28   Cl2   1.784202 S    
O8    V2    1.994411 S    
H4    C8    1.086968 S    
O16   C31   1.290290 A    
C10   C12   1.351728 D    
O18   C31   1.304378 A    
O1    V2    2.001676 S    
V3    O20   1.703125 S    
O7    V1    2.151007 S    
C26   C28   1.523118 S    
C19   C21   1.425612 A    
C20   C22   1.426424 A    
C22   C24   1.401477 A    
C23   C25   1.495609 S    
O14   V3    2.026642 S    
C24   C26   1.496642 S    
C14   C28   1.492536 S    
O17   V4    1.710073 S    
N2    O23   1.300540 A    
C25   H11   1.108930 S    
H3    C7    1.086964 S    
O15   C32   1.290335 A    
O9    V2    1.994229 S    
O2    V2    2.001879 S    
C21   C23   1.405168 A    
O5    C4    1.290717 A    
O11   V4    1.981059 S    
C14   C24   1.394276 A    
O9    C4    1.303820 A    
C5    C7    1.351544 D    
H2    C12   1.086985 S    
C6    C8    1.351585 D    
N1    O22   1.301065 A    
O4    V1    2.001351 S    
O13   V3    2.026466 S    
C10   C32   1.482697 S    
C20   N2    1.429869 S    
O6    V1    2.006737 S    
O13   C29   1.305954 A    
C22   C29   1.495854 S    
H5    C9    1.086835 S    
H6    C10   1.086844 S    
O16   V3    2.018601 S    
C26   Cl4   1.790454 S    
C16   C18   1.409643 A    
O7    V2    1.712895 S    
O5    V1    2.006536 S    
C17   H9    1.081861 S    
O3    V1    2.001524 S    
V1    O10   1.703091 S    
O6    C3    1.290733 A    
C18   H10   1.083547 S    
O8    C3    1.303843 A    
O18   V4    1.984539 S    
C1    C15   1.489750 S    
C13   C15   1.401999 A    
C3    C6    1.482140 S    
C14   C16   1.400730 A    
C17   C19   1.417172 A    
V4    O20   2.164486 S    
C8    C12   1.480042 S    
C9    C31   1.482499 S    
C19   N1    1.433961 S    
O17   V3    2.150950 S    
C26   H12   1.111729 S    
O12   V4    1.980856 S    
C27   Cl1   1.783729 S    
O12   C29   1.296181 A    
C21   C30   1.492135 S    
