data_mof_unit_10062.cif
_audit_creation_date              2012-12-10T16:50:09-0500
_audit_creation_method            fapswitch 2.2
_symmetry_space_group_name_H-M    P1
_symmetry_Int_Tables_number       1
_space_group_crystal_system       triclinic
_cell_length_a                    7.878537
_cell_length_b                    8.533134
_cell_length_c                    10.701825
_cell_angle_alpha                 93.179739
_cell_angle_beta                  87.290585
_cell_angle_gamma                 92.06367
_cell_volume                      717.155936469

loop_
_atom_site_label
_atom_site_type_symbol
_atom_type_description
_atom_site_fract_x
_atom_site_fract_y
_atom_site_fract_z
_atom_type_partial_charge
Br1   Br    Br    0.838915 0.341768 0.845152 -0.524626
Br2   Br    Br    0.088234 0.325814 0.180026 -0.489300
Br3   Br    Br    0.263992 0.973310 0.350211 -0.478089
C1    C     C_R   0.543040 0.793542 0.492948 0.972518
C2    C     C_R   0.456114 0.206188 0.493372 0.925729
C3    C     C_R   0.493721 0.484697 0.260268 0.920033
C4    C     C_R   0.266378 0.690403 0.907003 -0.135701
C5    C     C_R   0.110382 0.714138 0.972289 -0.139806
C6    C     C_R   0.060896 0.619105 0.070250 -0.105011
C7    C     C_R   0.176594 0.516418 0.112901 0.313869
C8    C     C_R   0.345982 0.521402 0.065308 0.054194
C9    C     C_3   0.985357 0.657251 0.628343 -0.151733
C10   C     C_3   0.024391 0.827575 0.595522 -0.391442
C11   C     C_3   0.938582 0.944595 0.689489 -0.863406
C12   C     C_R   0.379169 0.580798 0.948134 0.034213
C13   C     C_R   0.516785 0.518290 0.874223 -0.184925
C14   C     C_R   0.643087 0.435167 0.930277 0.264834
C15   C     C_R   0.628182 0.416056 0.057036 -0.223504
C16   C     C_R   0.482802 0.463342 0.125969 -0.144106
C17   C     C_2   0.562934 0.956955 0.496862 -0.425936
C18   C     C_2   0.437180 0.043890 0.464471 0.079549
C19   C     C_R   0.505827 0.509148 0.740016 0.882539
H1    H     H_    0.296885 0.754996 0.824131 0.141432
H2    H     H_    0.160763 0.856208 0.599511 0.271640
H3    H     H_    0.980865 0.845407 0.500365 0.280420
H4    H     H_    0.851123 0.648477 0.643716 0.238046
H5    H     H_    0.040717 0.635412 0.718497 0.185466
H6    H     H_    0.021498 0.794643 0.940110 0.159567
H7    H     H_    0.930853 0.618811 0.107600 0.167100
H8    H     H_    0.730322 0.362794 0.101895 0.226622
H9    H     H_    0.674515 0.007218 0.541536 0.171503
H10   H     H_    0.008493 0.364829 0.420154 0.236372
H11   H     H_    0.943999 0.062622 0.650378 0.301284
H12   H     H_    0.803738 0.909483 0.710857 0.251560
H13   H     H_    0.006958 0.953691 0.777837 0.271774
N1    N     N_2   0.950330 0.457950 0.466250 -0.127409
N2    N     N_2   0.049670 0.542050 0.533750 -0.058241
O1    O     O_R   0.389250 0.738570 0.508280 -0.610494
O2    O     O_R   0.678390 0.711630 0.486650 -0.640490
O3    O     O_R   0.355400 0.513470 0.694050 -0.612893
O4    O     O_R   0.644540 0.486530 0.672420 -0.617515
O5    O     O_R   0.321610 0.288370 0.513350 -0.592200
O6    O     O_R   0.610750 0.261430 0.491720 -0.616403
O7    O     O_R   0.355460 0.513470 0.327580 -0.588941
O8    O     O_R   0.644600 0.486530 0.305950 -0.615165
Zn1   Zn    Zn3+2 0.306930 0.517990 0.514440 1.001769
Zn2   Zn    Zn3+2 0.693070 0.482010 0.485560 0.985304

loop_
_geom_bond_atom_site_label_1
_geom_bond_atom_site_label_2
_ccdc_geom_bond_type
C11   H12   S    
C2    O5    A    
C15   H8    S    
C3    O8    A    
C6    C7    A    
Br1   C14   S    
C1    O2    A    
C6    H7    S    
C10   H3    S    
C11   H11   S    
C4    C12   A    
C14   C15   A    
O4    Zn2   S    
C19   O3    A    
C4    C5    A    
C3    O7    A    
C10   C11   S    
C9    C10   S    
O3    Zn1   S    
C3    C16   S    
C8    C16   A    
C8    C12   A    
C4    H1    S    
H10   N1    S    
N1    N2    D    
O7    Zn1   S    
O8    Zn2   S    
C2    O6    A    
C5    H6    S    
O1    Zn1   S    
C19   O4    A    
Br3   C18   S    
C7    C8    A    
C9    H5    S    
C12   C13   A    
Br2   C7    S    
C11   H13   S    
C2    C18   S    
C17   C18   D    
N1    Zn2   S    
O2    Zn2   S    
C15   C16   A    
O5    Zn1   S    
C9    H4    S    
C9    N2    S    
C5    C6    A    
C13   C19   S    
N2    Zn1   S    
O6    Zn2   S    
C10   H2    S    
C1    O1    A    
C13   C14   A    
C17   H9    S    
C1    C17   S    
