data_mof_unit_45035.cif
_audit_creation_date              2013-03-05T16:02:01-0500
_audit_creation_method            fapswitch 2.2
_symmetry_space_group_name_H-M    P1
_symmetry_Int_Tables_number       1
_space_group_crystal_system       triclinic
_cell_length_a                    6.932384
_cell_length_b                    17.728455
_cell_length_c                    19.34929
_cell_angle_alpha                 108.263676
_cell_angle_beta                  88.346573
_cell_angle_gamma                 90.981134
_cell_volume                      2257.21943248

loop_
_atom_site_label
_atom_site_type_symbol
_atom_site_description
_atom_site_fract_x
_atom_site_fract_y
_atom_site_fract_z
_atom_type_partial_charge
O1    O     O_R   0.494330 0.415720 0.413720 -0.597428
O2    O     O_R   0.819330 0.430070 0.560210 -0.605641
O3    O     O_R   0.994320 0.584280 0.586280 -0.573280
C1    C     C_R   0.648397 0.414509 0.581352 0.936782
O4    O     O_R   0.823730 0.406300 0.412670 -0.596115
O5    O     O_R   0.998760 0.560340 0.437690 -0.610935
C2    C     C_R   0.658029 0.386932 0.382733 0.913336
O6    O     O_R   0.489890 0.439660 0.562310 -0.599196
O7    O     O_3   0.662340 0.550560 0.508380 -0.251442
V1    V     V_3+5 0.935370 0.490620 0.498450 1.185248
O8    O     O_R   0.328750 0.569930 0.439790 -0.571912
C3    C     C_R   0.163116 0.580448 0.414390 1.078721
O9    O     O_R   0.324340 0.593700 0.587330 -0.597681
C4    C     C_R   0.154229 0.617691 0.614267 1.015813
V2    V     V_3+5 0.435940 0.509380 0.501550 1.199682
O10   O     O_3   0.159100 0.449440 0.491620 -0.287501
C5    C     C_R   0.967858 0.602615 0.744693 -0.187216
C6    C     C_R   0.876261 0.592566 0.806211 -0.114848
C7    C     C_R   0.865142 0.655511 0.870394 -0.113254
C8    C     C_R   0.946272 0.728839 0.873583 -0.169209
C9    C     C_R   0.037125 0.741585 0.811509 0.127050
C10   C     C_R   0.047296 0.677200 0.745308 0.108751
C11   C     C_R   0.126156 0.815524 0.815868 -0.273325
C12   C     C_R   0.232268 0.823900 0.754577 0.114833
C13   C     C_R   0.229800 0.762130 0.686260 -0.047195
C14   C     C_R   0.140427 0.687356 0.682163 -0.261792
C15   C     C_R   0.339596 0.893960 0.759648 -0.222064
C16   C     C_R   0.454239 0.900578 0.702185 -0.314507
C17   C     C_R   0.443726 0.843923 0.634118 0.344770
C18   C     C_R   0.315778 0.778333 0.623942 0.190261
H1    H     H_    0.977537 0.550433 0.697416 0.118679
H2    H     H_    0.815976 0.535199 0.804277 0.117902
H3    H     H_    0.796437 0.647118 0.918449 0.111873
H4    H     H_    0.940545 0.774395 0.925960 0.107518
H5    H     H_    0.341972 0.944635 0.808075 0.167323
H6    H     H_    0.546636 0.952357 0.710038 0.169317
C19   C     C_R   0.305737 0.617277 0.305472 0.151159
C20   C     C_R   0.159875 0.625527 0.360972 -0.189020
C21   C     C_R   0.003921 0.676076 0.365089 -0.175842
C22   C     C_R   0.992000 0.721328 0.317980 0.083404
C23   C     C_R   0.140711 0.718545 0.266316 0.002720
C24   C     C_R   0.301863 0.668284 0.260949 0.109170
C25   C     C_R   0.835473 0.771930 0.324412 -0.202028
C26   C     C_R   0.822644 0.820933 0.280186 0.122762
C27   C     C_R   0.967447 0.816885 0.225704 0.116072
C28   C     C_R   0.128341 0.766641 0.220177 0.033918
C29   C     C_R   0.279399 0.765660 0.169462 0.167469
C30   C     C_R   0.441322 0.718867 0.166285 -0.235069
C31   C     C_R   0.453729 0.671821 0.211660 -0.215134
C32   C     C_R   0.958569 0.862445 0.177493 -0.180611
C33   C     C_R   0.108988 0.860978 0.126866 -0.118900
C34   C     C_R   0.269519 0.812987 0.123773 -0.200167
H7    H     H_    0.890689 0.680813 0.406074 0.199339
H8    H     H_    0.724917 0.775132 0.366064 0.184115
H9    H     H_    0.837725 0.900831 0.179649 0.163215
H10   H     H_    0.387028 0.812196 0.085309 0.129935
H11   H     H_    0.561379 0.719720 0.129349 0.130838
H12   H     H_    0.588429 0.641833 0.208831 0.139545
C35   C     C_R   0.495513 0.196902 0.879103 -0.257674
C36   C     C_R   0.628140 0.135367 0.869826 -0.135655
C37   C     C_R   0.763388 0.118898 0.811664 -0.249256
C38   C     C_R   0.764981 0.162089 0.761258 0.102859
C39   C     C_R   0.631994 0.225070 0.772313 -0.014445
C40   C     C_R   0.497183 0.242145 0.831281 0.176868
C41   C     C_R   0.892878 0.143843 0.699493 0.181264
C42   C     C_R   0.893727 0.191453 0.653414 -0.250175
C43   C     C_R   0.765368 0.254519 0.665231 0.122967
C44   C     C_R   0.630862 0.270423 0.723758 0.015913
C45   C     C_R   0.494952 0.331785 0.733719 0.168354
C46   C     C_R   0.360828 0.347164 0.791993 -0.216712
C47   C     C_R   0.362315 0.302934 0.840430 -0.215455
C48   C     C_R   0.769054 0.301689 0.618917 -0.218971
C49   C     C_R   0.635864 0.363317 0.628867 -0.152518
C50   C     C_R   0.496601 0.377108 0.685598 -0.250792
H13   H     H_    0.390150 0.209427 0.923691 0.133740
H14   H     H_    0.863326 0.071020 0.805673 0.139744
H15   H     H_    0.994949 0.178772 0.607489 0.158794
H16   H     H_    0.874935 0.290057 0.574539 0.142789
H17   H     H_    0.393719 0.424673 0.693619 0.129364
H18   H     H_    0.255105 0.393701 0.800319 0.134843
H19   H     H_    0.256960 0.316029 0.884978 0.133834
H20   H     H_    0.391924 0.171389 0.452691 0.192074
C51   C     C_R   0.795146 0.393763 0.240647 -0.278846
C52   C     C_R   0.850752 0.400746 0.172551 0.303917
C53   C     C_R   0.837770 0.334263 0.110811 -0.146145
C54   C     C_R   0.761384 0.263130 0.115840 -0.219254
C55   C     C_R   0.699236 0.254929 0.183550 0.137452
C56   C     C_R   0.717684 0.321712 0.247344 0.090538
C57   C     C_R   0.614086 0.182517 0.187484 -0.271678
C58   C     C_R   0.544447 0.178116 0.257434 -0.080810
C59   C     C_R   0.575775 0.244221 0.321115 0.123588
C60   C     C_R   0.653349 0.316392 0.315921 -0.255540
C61   C     C_R   0.440676 0.111462 0.267414 0.200334
C62   C     C_R   0.378890 0.110067 0.337651 0.284639
C63   C     C_R   0.430447 0.172423 0.398341 -0.280284
C64   C     C_R   0.527090 0.237868 0.390500 -0.190830
H21   H     H_    0.809116 0.445633 0.288111 0.105149
H22   H     H_    0.883422 0.337714 0.057882 0.125900
H23   H     H_    0.748273 0.215401 0.065201 0.118660
H24   H     H_    0.560793 0.284217 0.440332 0.132029
O11   O     O_R   0.775200 0.060470 0.937800 -0.601391
O12   O     O_R   0.441110 0.093720 0.087350 -0.562743
O13   O     O_R   0.266330 0.939630 0.062280 -0.531895
C65   C     C_R   0.607119 0.113031 0.118265 1.019119
O14   O     O_R   0.445750 0.069950 0.939820 -0.609800
O15   O     O_R   0.271000 0.915700 0.913700 -0.611135
C66   C     C_R   0.616523 0.085470 0.918599 0.921410
O16   O     O_R   0.770530 0.084400 0.086380 -0.577087
O17   O     O_3   0.602830 0.949510 0.991680 -0.275101
V3    V     V_3+5 0.329710 0.009370 0.001550 1.215813
O18   O     O_R   0.940990 0.906170 0.912570 -0.599287
C67   C     C_R   0.111550 0.883640 0.884732 0.903129
O19   O     O_R   0.936350 0.929940 0.060100 -0.611930
C68   C     C_R   0.103321 0.911907 0.079049 1.041150
V4    V     V_3+5 0.829160 0.990450 0.998310 1.194429
O20   O     O_3   0.105910 0.050480 0.008320 -0.266842
N1    N     N_R   0.555081 0.856703 0.575073 0.262308
O21   O     O_R   0.561641 0.926894 0.567026 -0.391883
O22   O     O_R   0.680493 0.803937 0.539662 -0.323383
C69   C     C_3   0.662999 0.881626 0.298083 -0.372779
C70   C     C_3   0.742730 0.963331 0.340763 -0.596062
H25   H     H_    0.831243 0.959016 0.386376 0.279629
H26   H     H_    0.832409 0.988707 0.304841 0.256671
H27   H     H_    0.622629 0.004320 0.364603 0.233931
H28   H     H_    0.591225 0.883400 0.248203 0.233163
H29   H     H_    0.547775 0.865309 0.332155 0.230773
C71   C     C_3   0.029845 0.074312 0.680030 -0.320739
C72   C     C_3   0.217648 0.097756 0.720393 -0.863949
H30   H     H_    0.283288 0.149635 0.707818 0.266856
H31   H     H_    0.191631 0.112699 0.780012 0.254229
H32   H     H_    0.320433 0.047956 0.702264 0.269624
H33   H     H_    0.963150 0.021747 0.691045 0.194949
H34   H     H_    0.064400 0.054709 0.620588 0.229174
C73   C     C_3   0.924464 0.478851 0.165455 -0.397000
C74   C     C_3   0.803981 0.507290 0.113580 -0.932140
H35   H     H_    0.831689 0.470042 0.056371 0.257461
H36   H     H_    0.647557 0.504467 0.126482 0.264394
H37   H     H_    0.844573 0.569536 0.118223 0.253246
H38   H     H_    0.923888 0.525714 0.219404 0.189722
H39   H     H_    0.075532 0.471650 0.144128 0.201434
N2    N     N_R   0.372890 0.050006 0.206892 0.241563
O23   O     O_R   0.475272 0.986038 0.180832 -0.430291
O24   O     O_R   0.190925 0.049519 0.192214 -0.403171
N3    N     N_R   0.260461 0.046542 0.348501 0.243744
O25   O     O_R   0.159598 0.058138 0.408685 -0.420203
O26   O     O_R   0.262517 0.975489 0.301724 -0.373032
N4    N     N_R   0.241241 0.740875 0.552579 0.220906
O27   O     O_R   0.055393 0.732489 0.545285 -0.393254
O28   O     O_R   0.348457 0.733557 0.494674 -0.379275
C75   C     C_3   0.447155 0.548338 0.289792 -0.395417
C76   C     C_3   0.342825 0.468015 0.260620 -0.881810
H40   H     H_    0.413302 0.423004 0.279456 0.258521
H41   H     H_    0.189908 0.470279 0.279438 0.229191
H42   H     H_    0.348636 0.447554 0.200227 0.250910
H43   H     H_    0.562192 0.548987 0.249943 0.193185
H44   H     H_    0.529278 0.551494 0.338767 0.210186

loop_
_geom_bond_atom_site_label_1
_geom_bond_atom_site_label_2
_geom_bond_distance
_ccdc_geom_bond_type
O11   C66   1.299220 A    
C74   H37   1.110734 S    
C55   C56   1.424682 A    
C61   C62   1.420620 A    
V3    O20   1.709545 S    
C49   C50   1.405520 A    
C63   C64   1.376909 A    
C12   C15   1.414939 A    
C65   O16   1.305623 A    
C19   C75   1.529168 S    
C1    O6    1.298116 A    
C72   H30   1.109820 S    
C74   H35   1.110050 S    
O15   C67   1.293683 A    
C53   C54   1.389697 A    
C69   C70   1.527997 S    
C11   C67   1.493941 S    
O14   C66   1.295164 A    
C52   C73   1.512675 S    
C35   C40   1.401418 A    
C17   C18   1.417347 A    
O13   V3    1.991162 S    
C41   C71   1.513733 S    
O16   V4    2.011844 S    
C9    C10   1.424692 A    
C16   C17   1.386605 A    
N4    O28   1.299521 A    
O14   V3    1.986516 S    
C6    C7    1.386478 A    
N2    O24   1.300291 A    
C73   H39   1.109036 S    
C20   C21   1.400623 A    
C69   H29   1.112464 S    
C76   H42   1.109442 S    
C26   C69   1.512489 S    
V2    O10   2.161659 S    
C43   C48   1.403828 A    
C23   C24   1.422044 A    
C40   C47   1.404375 A    
C19   C24   1.432139 A    
C71   H33   1.109812 S    
C70   H27   1.105674 S    
C48   H16   1.084639 S    
C53   H22   1.082888 S    
N4    O27   1.301033 A    
O1    C2    1.302521 A    
C59   C64   1.412921 A    
C28   C29   1.410849 A    
O8    V2    2.003779 S    
C52   C53   1.394445 A    
C22   C25   1.397602 A    
C62   C63   1.387746 A    
C56   C60   1.418221 A    
C44   C45   1.414732 A    
C76   H40   1.101915 S    
C46   C47   1.398161 A    
O1    V2    2.005916 S    
O7    V1    2.160681 S    
C38   C41   1.423176 A    
C8    H4    1.080141 S    
C42   C43   1.398655 A    
C35   C36   1.403472 A    
C75   H44   1.105465 S    
O9    C4    1.298466 A    
C45   C46   1.402052 A    
C5    C6    1.391843 A    
C37   H14   1.080610 S    
C33   C68   1.483131 S    
C46   H18   1.083674 S    
C43   C44   1.406885 A    
C30   H11   1.084308 S    
O13   C68   1.297540 A    
C12   C13   1.428370 A    
N3    O26   1.300542 A    
C7    H3    1.082737 S    
C73   H38   1.111851 S    
O4    C2    1.293512 A    
C69   H28   1.107858 S    
N3    O25   1.301975 A    
C24   C31   1.413915 A    
C15   H5    1.076172 S    
C13   C14   1.433975 A    
C27   C28   1.419997 A    
C17   N1    1.434528 S    
C31   H12   1.073977 S    
C33   C34   1.400934 A    
C36   C37   1.404758 A    
O2    C1    1.295835 A    
C25   C26   1.402834 A    
C19   C20   1.428660 A    
C18   N4    1.438523 S    
C25   H8    1.085037 S    
C29   C30   1.395689 A    
O9    V2    1.999600 S    
C23   C28   1.419661 A    
C32   H9    1.079981 S    
C38   C39   1.420066 A    
C32   C33   1.404872 A    
C1    C49   1.480585 S    
C45   C50   1.407377 A    
C4    C14   1.496727 S    
O12   C65   1.302818 A    
C54   H23   1.080361 S    
C36   C66   1.481904 S    
C70   H25   1.111973 S    
C73   C74   1.529486 S    
O3    C4    1.297736 A    
C30   C31   1.392717 A    
O6    V2    2.000460 S    
C75   H43   1.095631 S    
C9    C11   1.418558 A    
C57   C65   1.510391 S    
C10   C14   1.424947 A    
C5    H1    1.079497 S    
C51   C52   1.404031 A    
C6    H2    1.083000 S    
C71   C72   1.521316 S    
O2    V1    1.986569 S    
C72   H32   1.106006 S    
C35   H13   1.084558 S    
C59   C60   1.410771 A    
C61   N2    1.412015 S    
C26   C27   1.420610 A    
C58   C61   1.434247 A    
O19   C68   1.298882 A    
O15   V3    2.015011 S    
C13   C18   1.435791 A    
C74   H36   1.109549 S    
C42   H15   1.084796 S    
C39   C44   1.415395 A    
C22   C23   1.405678 A    
H20   C63   1.083186 S    
O18   C67   1.300876 A    
C54   C55   1.417012 A    
C71   H34   1.112402 S    
C48   C49   1.405616 A    
C72   H31   1.109753 S    
O5    V1    1.991343 S    
O8    C3    1.300806 A    
C29   C34   1.400200 A    
C5    C10   1.420351 A    
C50   H17   1.084448 S    
C62   N3    1.446727 S    
C7    C8    1.391687 A    
N1    O22   1.300819 A    
O7    V2    1.710558 S    
O4    V1    2.016887 S    
O3    V1    2.015038 S    
V1    O10   1.709524 S    
N1    O21   1.301482 A    
O5    C3    1.298347 A    
C58   C59   1.428467 A    
C21   H7    1.084767 S    
C27   C32   1.415495 A    
O11   V4    2.000960 S    
C2    C60   1.491292 S    
C64   H24   1.081347 S    
C51   C56   1.418809 A    
C76   H41   1.108141 S    
C3    C20   1.492388 S    
C37   C38   1.415920 A    
C70   H26   1.110612 S    
O12   V3    2.016719 S    
O17   V4    1.708591 S    
C11   C12   1.423359 A    
C39   C40   1.413700 A    
C21   C22   1.395089 A    
C34   H10   1.084694 S    
C8    C9    1.418442 A    
C16   H6    1.083554 S    
C41   C42   1.406634 A    
C51   H21   1.082219 S    
O17   V3    2.160659 S    
C15   C16   1.381750 A    
C55   C57   1.426512 A    
C75   C76   1.534262 S    
O18   V4    1.999400 S    
C47   H19   1.083671 S    
C57   C58   1.448530 A    
N2    O23   1.300992 A    
V4    O20   2.161765 S    
O19   V4    2.003712 S    
