data_mof_unit_32242.cif
_audit_creation_date              2012-12-11T15:42:40-0500
_audit_creation_method            fapswitch 2.2
_symmetry_space_group_name_H-M    P1
_symmetry_Int_Tables_number       1
_space_group_crystal_system       triclinic
_cell_length_a                    6.934754
_cell_length_b                    14.549504
_cell_length_c                    16.187306
_cell_angle_alpha                 90.47582
_cell_angle_beta                  90.04173
_cell_angle_gamma                 90.085522
_cell_volume                      1633.19576647

loop_
_atom_site_label
_atom_site_type_symbol
_atom_type_description
_atom_site_fract_x
_atom_site_fract_y
_atom_site_fract_z
_atom_type_partial_charge
O1    O     O_R   0.505810 0.583360 0.413880 -0.542103
O2    O     O_R   0.175870 0.595480 0.585520 -0.554307
O3    O     O_R   0.005540 0.416640 0.586120 -0.544470
C1    C     C_R   0.345116 0.616451 0.615556 0.722645
O4    O     O_R   0.176100 0.594390 0.414490 -0.544201
O5    O     O_R   0.005770 0.415540 0.413870 -0.541069
C2    C     C_R   0.345211 0.616477 0.385746 0.681382
O6    O     O_R   0.505580 0.584460 0.586130 -0.517258
O7    O     O_3   0.339190 0.441320 0.500000 -0.370435
V1    V     V_3+5 0.064350 0.510890 0.500000 1.385757
O8    O     O_R   0.676050 0.404520 0.414480 -0.545176
C3    C     C_R   0.845030 0.382087 0.385737 0.683382
O9    O     O_R   0.675830 0.405610 0.585510 -0.532576
C4    C     C_R   0.845040 0.383752 0.613772 0.759012
V2    V     V_3+5 0.564340 0.489110 0.500000 1.420658
O10   O     O_3   0.839370 0.558680 0.500000 -0.373188
C5    C     C_2   0.720426 0.209614 0.786578 -0.132105
C6    C     C_2   0.885757 0.181958 0.822677 -0.314010
H1    H     H_    0.584333 0.181310 0.807775 0.136689
H2    H     H_    0.023547 0.209601 0.803617 0.127587
C7    C     C_2   0.708078 0.278101 0.718654 -0.130576
C8    C     C_2   0.861564 0.315774 0.680745 -0.313111
H3    H     H_    0.564038 0.297407 0.699001 0.135889
H4    H     H_    0.006755 0.297280 0.698606 0.127994
C9    C     C_R   0.047429 0.222961 0.219569 -0.158286
H5    H     H_    0.188229 0.204352 0.195965 0.116826
C10   C     C_R   0.036044 0.286969 0.284399 -0.151633
H6    H     H_    0.168706 0.315885 0.308594 0.119136
C11   C     C_R   0.856296 0.313312 0.317356 -0.044831
C12   C     C_R   0.688247 0.273928 0.283650 -0.158293
H7    H     H_    0.547448 0.292537 0.307255 0.116522
C13   C     C_R   0.699632 0.209919 0.218819 -0.151615
H8    H     H_    0.566971 0.181003 0.194623 0.119167
C14   C     C_R   0.879381 0.183575 0.185864 -0.045252
C15   C     C_R   0.223585 0.754787 0.693571 -0.236174
H9    H     H_    0.111537 0.762863 0.647586 0.129048
C16   C     C_R   0.232770 0.817581 0.759695 -0.151430
H10   H     H_    0.127151 0.872244 0.763177 0.123680
C17   C     C_R   0.378973 0.811345 0.819590 -0.080202
C18   C     C_R   0.512854 0.739493 0.813073 -0.212954
H11   H     H_    0.623457 0.732121 0.859864 0.122414
C19   C     C_R   0.502749 0.674939 0.747752 0.288793
C20   C     C_R   0.357872 0.682874 0.686308 -0.080778
C21   C     C_R   0.188559 0.723452 0.283965 -0.157409
H12   H     H_    0.047803 0.705299 0.307771 0.116479
C22   C     C_R   0.199814 0.786559 0.219214 -0.151542
H13   H     H_    0.067151 0.815197 0.195345 0.118727
C23   C     C_R   0.379385 0.812405 0.185919 -0.046507
C24   C     C_R   0.547380 0.773326 0.219317 -0.157736
H14   H     H_    0.688131 0.791483 0.195508 0.116449
C25   C     C_R   0.536125 0.710216 0.284071 -0.151959
H15   H     H_    0.668781 0.681575 0.307945 0.118410
C26   C     C_R   0.356549 0.684374 0.317366 -0.045609
O11   O     O_R   0.230120 0.912300 0.917180 -0.539075
O12   O     O_R   0.559740 0.902430 0.088770 -0.544262
O13   O     O_R   0.729930 0.081310 0.089370 -0.541185
C27   C     C_R   0.390665 0.880312 0.117543 0.684042
O14   O     O_R   0.559840 0.901330 0.917750 -0.541035
O15   O     O_R   0.730030 0.080210 0.917120 -0.536579
C28   C     C_R   0.390626 0.879265 0.888714 0.699603
O16   O     O_R   0.230020 0.913400 0.089430 -0.540663
O17   O     O_3   0.396460 0.055470 0.003290 -0.370293
V3    V     V_3+5 0.671360 0.985960 0.003250 1.402560
O18   O     O_R   0.059740 0.091300 0.917690 -0.545336
C29   C     C_R   0.891015 0.113293 0.889517 0.745944
O19   O     O_R   0.059640 0.092400 0.088720 -0.544293
C30   C     C_R   0.890658 0.114796 0.117485 0.685003
V4    V     V_3+5 0.171350 0.007820 0.003190 1.398996
O20   O     O_3   0.896380 0.938200 0.003220 -0.370055
N1    N     N_2   0.630250 0.598524 0.747517 -0.534065
H16   H     H_    0.627362 0.562835 0.802318 0.243167
C31   C     C_3   0.825070 0.620311 0.722782 -0.474655
H17   H     H_    0.893887 0.666747 0.769027 0.176181
H18   H     H_    0.825220 0.653667 0.661315 0.211463
H19   H     H_    0.910901 0.556128 0.718534 0.184686

loop_
_geom_bond_atom_site_label_1
_geom_bond_atom_site_label_2
_ccdc_geom_bond_type
O19   V4    S    
C3    C11   S    
C10   C11   A    
C15   H9    S    
C1    O6    A    
C23   C27   S    
O11   C28   A    
C6    C29   S    
C11   C12   A    
O18   V4    S    
C15   C16   A    
C16   H10   S    
O5    C3    A    
C12   H7    S    
O11   V4    S    
O14   C28   A    
V2    O10   S    
C19   N1    S    
O8    V2    S    
C21   C26   A    
V3    O20   S    
V4    O20   S    
C24   C25   A    
O12   V3    S    
N1    H16   S    
O1    V2    S    
C15   C20   A    
O7    V1    S    
C9    C14   A    
C18   C19   A    
O19   C30   A    
O9    C4    A    
C31   H19   S    
C21   C22   A    
C22   C23   A    
C25   H15   S    
C31   H18   S    
C17   C18   A    
O4    C2    A    
C9    H5    S    
C5    C7    S    
C25   C26   A    
C13   C14   A    
O2    C1    A    
O17   V3    S    
C5    C6    D    
O13   V3    S    
O12   C27   A    
O3    C4    A    
C23   C24   A    
O6    V2    S    
O9    V2    S    
C8    H4    S    
C19   C20   A    
C2    C26   S    
O2    V1    S    
C21   H12   S    
O14   V3    S    
C22   H13   S    
C18   H11   S    
O1    C2    A    
C31   H17   S    
C14   C30   S    
O5    V1    S    
O8    C3    A    
C27   O16   A    
C1    C20   S    
C9    C10   A    
O13   C30   A    
O15   V3    S    
O17   V4    S    
C13   H8    S    
C4    C8    S    
C7    H3    S    
O7    V2    S    
O4    V1    S    
C16   C17   A    
O3    V1    S    
V1    O10   S    
O18   C29   A    
C12   C13   A    
O16   V4    S    
C17   C28   S    
C5    H1    S    
C6    H2    S    
C24   H14   S    
C10   H6    S    
N1    C31   S    
C7    C8    D    
O15   C29   A    
