data_mof_unit_52999.cif
_audit_creation_date              2012-12-11T17:23:18-0500
_audit_creation_method            fapswitch 2.2
_symmetry_space_group_name_H-M    P1
_symmetry_Int_Tables_number       1
_space_group_crystal_system       triclinic
_cell_length_a                    22.509356
_cell_length_b                    7.083161
_cell_length_c                    19.32328
_cell_angle_alpha                 89.999542
_cell_angle_beta                  99.34563
_cell_angle_gamma                 89.999983
_cell_volume                      3039.96029739

loop_
_atom_site_label
_atom_site_type_symbol
_atom_type_description
_atom_site_fract_x
_atom_site_fract_y
_atom_site_fract_z
_atom_type_partial_charge
O1    O     O_R   0.443980 0.494320 0.557430 -0.533524
O2    O     O_R   0.556020 0.994320 0.442570 -0.533511
O3    O     O_R   0.441210 0.822520 0.414610 -0.540266
O4    O     O_R   0.558790 0.322520 0.585390 -0.540269
C1    C     C_R   0.426132 0.654654 0.389251 0.702295
C2    C     C_R   0.573870 0.154652 0.610747 0.702267
O5    O     O_R   0.436920 0.823940 0.555180 -0.531849
O6    O     O_R   0.563080 0.323940 0.444820 -0.531879
O7    O     O_R   0.551700 0.995760 0.584140 -0.536054
O8    O     O_R   0.448300 0.495760 0.415860 -0.536043
C3    C     C_R   0.421668 0.655372 0.574974 0.710269
C4    C     C_R   0.578331 0.155373 0.425025 0.710296
O9    O     O_3   0.537660 0.661290 0.509340 -0.369348
O10   O     O_3   0.462340 0.161290 0.490660 -0.369345
V1    V     V_3+5 0.493010 0.935560 0.498270 1.401770
V2    V     V_3+5 0.506990 0.435560 0.501730 1.401711
H1    H     H_    0.692131 0.826688 0.274076 0.187027
H2    H     H_    0.307961 0.326807 0.726049 0.186921
C5    C     C_R   0.760235 0.937100 0.218871 -0.152027
C6    C     C_R   0.239815 0.437172 0.781195 -0.152631
H3    H     H_    0.768417 0.801259 0.196400 0.138317
H4    H     H_    0.231672 0.301361 0.803715 0.138151
C7    C     C_R   0.792519 0.096856 0.203418 0.067842
C8    C     C_R   0.207484 0.596879 0.796587 0.068252
C9    C     C_R   0.780826 0.271279 0.233019 -0.253385
C10   C     C_R   0.219126 0.771267 0.766927 -0.253721
H5    H     H_    0.804571 0.396321 0.220226 0.126387
H6    H     H_    0.195371 0.896250 0.779746 0.126039
C11   C     C_R   0.738321 0.285811 0.279188 0.483070
C12   C     C_R   0.261619 0.785811 0.720720 0.483140
C13   C     C_R   0.705590 0.125023 0.293815 0.020889
C14   C     C_R   0.294406 0.625059 0.706186 0.021279
C15   C     C_R   0.716920 0.951418 0.263371 -0.234154
C16   C     C_R   0.283131 0.451502 0.736701 -0.234508
C17   C     C_1   0.837774 0.082214 0.157669 -0.032107
C18   C     C_1   0.162232 0.582225 0.842340 -0.032185
C19   C     C_1   0.660882 0.136751 0.340513 0.011756
C20   C     C_1   0.339114 0.636761 0.659485 0.012302
C21   C     C_1   0.623506 0.145996 0.379325 -0.182039
C22   C     C_1   0.376491 0.645994 0.620674 -0.181933
C23   C     C_1   0.875964 0.071732 0.119960 -0.197632
C24   C     C_1   0.124041 0.571737 0.880047 -0.197655
C25   C     C_R   0.627074 0.094727 0.803489 0.106774
C26   C     C_R   0.372924 0.594662 0.196514 0.106764
H7    H     H_    0.543265 0.149553 0.735211 0.110260
H8    H     H_    0.456736 0.649474 0.264787 0.110280
C27   C     C_R   0.616448 0.143036 0.677644 -0.089510
C28   C     C_R   0.383553 0.643041 0.322354 -0.089524
C29   C     C_R   0.907845 0.132604 0.763826 -0.180131
C30   C     C_R   0.092154 0.632641 0.236171 -0.180134
C31   C     C_R   0.871271 0.192916 0.702986 -0.118894
C32   C     C_R   0.128728 0.692981 0.297006 -0.118866
C33   C     C_R   0.809038 0.193268 0.698665 -0.145156
C34   C     C_R   0.190961 0.693323 0.301328 -0.145153
C35   C     C_R   0.781433 0.121037 0.753557 0.027808
C36   C     C_R   0.218566 0.621051 0.246442 0.027783
C37   C     C_R   0.818770 0.076839 0.818623 -0.043488
C38   C     C_R   0.181229 0.576826 0.181379 -0.043482
C39   C     C_R   0.717309 0.108774 0.747125 -0.000241
C40   C     C_R   0.282689 0.608780 0.252876 -0.000244
C41   C     C_R   0.691158 0.105197 0.809699 -0.010693
C42   C     C_R   0.308841 0.605159 0.190303 -0.010686
C43   C     C_R   0.730012 0.102734 0.875605 -0.024247
C44   C     C_R   0.269988 0.602676 0.124397 -0.024241
C45   C     C_R   0.790655 0.048155 0.878024 0.365785
C46   C     C_R   0.209344 0.548109 0.121980 0.365768
C47   C     C_R   0.678163 0.097129 0.680710 0.028131
C48   C     C_R   0.321835 0.597166 0.319293 0.028148
C49   C     C_R   0.591827 0.141248 0.739227 -0.220573
C50   C     C_R   0.408173 0.641201 0.260772 -0.220563
C51   C     C_R   0.883034 0.079262 0.822840 -0.075707
C52   C     C_R   0.116965 0.579263 0.177161 -0.075716
H9    H     H_    0.956275 0.139508 0.766474 0.096682
H10   H     H_    0.043724 0.639558 0.233520 0.096716
H11   H     H_    0.782609 0.255934 0.652573 0.109035
H12   H     H_    0.217390 0.756017 0.347413 0.109091
H13   H     H_    0.891399 0.245058 0.659486 0.111097
H14   H     H_    0.108600 0.745155 0.340501 0.111133
O11   O     O_R   0.051730 0.724670 0.084120 -0.542080
O12   O     O_R   0.948270 0.224670 0.915880 -0.542078
O13   O     O_R   0.063080 0.393540 0.944820 -0.535954
O14   O     O_R   0.936920 0.893540 0.055180 -0.535954
C53   C     C_R   0.078091 0.562124 0.924718 0.771905
C54   C     C_R   0.921910 0.062122 0.075285 0.771911
O15   O     O_R   0.058800 0.395030 0.085390 -0.530276
O16   O     O_R   0.941200 0.895030 0.914610 -0.530283
O17   O     O_R   0.943980 0.223310 0.057440 -0.539228
O18   O     O_R   0.056020 0.723310 0.942560 -0.539235
C55   C     C_R   0.073776 0.564323 0.110681 0.778410
C56   C     C_R   0.926224 0.064324 0.889320 0.778406
O19   O     O_3   0.962360 0.556290 0.990650 -0.379911
O20   O     O_3   0.037640 0.056290 0.009350 -0.379914
V3    V     V_3+5 0.006980 0.281990 0.001730 1.412480
V4    V     V_3+5 0.993020 0.781990 0.998270 1.412472
O21   O     O_3   0.823564 0.987396 0.940627 -0.573004
C57   C     C_3   0.808621 0.797111 0.950368 -0.235500
H15   H     H_    0.819621 0.707083 0.906909 0.129583
H16   H     H_    0.760461 0.781231 0.955701 0.124690
H17   H     H_    0.835483 0.744871 0.999776 0.175028
O22   O     O_3   0.176434 0.487347 0.059378 -0.572996
C58   C     C_3   0.191377 0.297061 0.049640 -0.235490
H18   H     H_    0.180369 0.207033 0.093094 0.129588
H19   H     H_    0.239539 0.281173 0.044316 0.124687
H20   H     H_    0.164521 0.244828 0.000227 0.175017
O23   O     O_3   0.725475 0.459153 0.306217 -0.557675
C59   C     C_3   0.773995 0.513389 0.358040 -0.290494
H21   H     H_    0.814622 0.547462 0.334508 0.137208
H22   H     H_    0.784552 0.403018 0.399289 0.133544
H23   H     H_    0.761035 0.643211 0.384053 0.169447
O24   O     O_3   0.274467 0.959047 0.693576 -0.557599
C60   C     C_3   0.225459 0.015160 0.642727 -0.290373
H24   H     H_    0.185669 0.052282 0.667346 0.137537
H25   H     H_    0.213484 0.904676 0.601791 0.133113
H26   H     H_    0.238624 0.143627 0.616058 0.169523
C61   C     C_3   0.710304 0.180605 0.941944 -0.316422
C62   C     C_3   0.755176 0.323127 0.981365 -0.279966
C63   C     C_3   0.728555 0.425358 0.038850 -0.806089
H27   H     H_    0.688991 0.511059 0.015644 0.231579
H28   H     H_    0.714634 0.321846 0.076329 0.247677
H29   H     H_    0.762882 0.521138 0.068015 0.215308
H30   H     H_    0.796838 0.251713 0.006597 0.239233
H31   H     H_    0.767348 0.428370 0.943576 0.174026
H32   H     H_    0.668342 0.262800 0.927150 0.169453
H33   H     H_    0.702644 0.063026 0.977511 0.179456
C64   C     C_3   0.289695 0.680530 0.058054 -0.316406
C65   C     C_3   0.244834 0.823111 0.018651 -0.279961
C66   C     C_3   0.271448 0.925285 0.961148 -0.806083
H34   H     H_    0.311034 0.010919 0.984336 0.231576
H35   H     H_    0.285336 0.821743 0.923658 0.247679
H36   H     H_    0.237130 0.021122 0.931999 0.215286
H37   H     H_    0.203154 0.751760 0.993439 0.239217
H38   H     H_    0.232693 0.928382 0.056448 0.174012
H39   H     H_    0.331668 0.762670 0.072839 0.169437
H40   H     H_    0.297332 0.562947 0.022479 0.179466
C67   C     C_3   0.594642 0.992731 0.856231 -0.363270
C68   C     C_3   0.613300 0.784009 0.862538 -0.290637
C69   C     C_3   0.578879 0.677474 0.912111 -0.783300
H41   H     H_    0.588948 0.738321 0.965722 0.227935
H42   H     H_    0.529652 0.685129 0.893055 0.233219
H43   H     H_    0.592640 0.526820 0.914503 0.213904
H44   H     H_    0.604138 0.716343 0.809936 0.197848
H45   H     H_    0.662204 0.771702 0.882584 0.189915
H46   H     H_    0.600616 0.059070 0.908445 0.161777
H47   H     H_    0.545114 0.997181 0.838359 0.174045
C70   C     C_3   0.405348 0.492589 0.143783 -0.363297
C71   C     C_3   0.386699 0.283855 0.137535 -0.290597
C72   C     C_3   0.421097 0.177256 0.087956 -0.783285
H48   H     H_    0.410978 0.237974 0.034327 0.227902
H49   H     H_    0.470329 0.185016 0.106962 0.233232
H50   H     H_    0.407361 0.026579 0.085626 0.213916
H51   H     H_    0.395892 0.216273 0.190150 0.197847
H52   H     H_    0.337790 0.271507 0.117525 0.189920
H53   H     H_    0.399357 0.558829 0.091551 0.161796
H54   H     H_    0.454878 0.497081 0.161639 0.174046
C73   C     C_3   0.695573 0.980534 0.620425 -0.380733
C74   C     C_3   0.680342 0.771266 0.629602 -0.269015
C75   C     C_3   0.693599 0.652075 0.568066 -0.732547
H55   H     H_    0.666523 0.702480 0.518279 0.236925
H56   H     H_    0.742187 0.659886 0.563942 0.208309
H57   H     H_    0.681795 0.502357 0.576289 0.208034
H58   H     H_    0.707577 0.716587 0.678707 0.185615
H59   H     H_    0.632114 0.754390 0.634216 0.212677
H60   H     H_    0.671852 0.033790 0.569233 0.152931
H61   H     H_    0.743831 0.986000 0.616734 0.179680
C76   C     C_3   0.304424 0.480610 0.379587 -0.380645
C77   C     C_3   0.319637 0.271327 0.370414 -0.269317
C78   C     C_3   0.306409 0.152185 0.431976 -0.732031
H62   H     H_    0.333524 0.202576 0.481741 0.236962
H63   H     H_    0.257832 0.160068 0.436147 0.208359
H64   H     H_    0.318187 0.002446 0.423748 0.208006
H65   H     H_    0.292374 0.216638 0.321328 0.185632
H66   H     H_    0.367857 0.254415 0.365764 0.212673
H67   H     H_    0.328155 0.533863 0.430774 0.152984
H68   H     H_    0.256169 0.486123 0.383288 0.179681

loop_
_geom_bond_atom_site_label_1
_geom_bond_atom_site_label_2
_ccdc_geom_bond_type
C64   H40   S    
C20   C22   T    
C43   C45   A    
C77   H66   S    
C76   C77   S    
O14   V4    S    
C35   C39   A    
O21   C57   S    
C18   C24   T    
C72   H48   S    
O1    C3    A    
C54   O17   A    
O2    C4    A    
C2    O7    A    
C31   H13   S    
C70   C71   S    
C67   C68   S    
C78   H63   S    
O5    C3    A    
C69   H42   S    
C65   C66   S    
C62   H31   S    
C12   O24   S    
C47   C73   S    
C74   C75   S    
C72   H49   S    
C8    C10   A    
C63   H28   S    
C1    C28   S    
C59   H21   S    
C76   H67   S    
C61   C62   S    
C57   H17   S    
C62   C63   S    
C40   C42   A    
C46   O22   S    
C41   C43   A    
C30   C52   A    
O24   C60   S    
C27   C49   A    
C68   H45   S    
O16   V4    S    
C39   C47   A    
O15   V3    S    
C38   C46   A    
C75   H55   S    
C6    C8    A    
C29   C31   A    
C57   H16   S    
C42   C44   A    
C13   C15   A    
C26   C50   A    
C14   C20   S    
C43   C61   S    
C48   C76   S    
O5    V1    S    
C53   O18   A    
C74   H59   S    
C77   H65   S    
O6    V2    S    
C11   C13   A    
C11   O23   S    
C33   H11   S    
H1    C15   S    
C32   H14   S    
C27   C47   A    
O13   C53   A    
C32   C34   A    
C78   H64   S    
O18   V4    S    
C33   C35   A    
C9    C11   A    
C69   H43   S    
C34   C36   A    
C39   C41   A    
C61   H32   S    
C62   H30   S    
H7    C49   S    
C58   H18   S    
C72   H50   S    
O11   V4    S    
O4    C2    A    
O16   C56   A    
C63   H29   S    
C28   C50   A    
C78   H62   S    
O15   C55   A    
O20   V3    S    
C73   H60   S    
C76   H68   S    
C23   C54   S    
C37   C51   A    
C36   C40   A    
C13   C19   S    
C71   H51   S    
C31   C33   A    
C44   C46   A    
O4    V2    S    
C5    C7    A    
C66   H35   S    
C68   H44   S    
O19   V3    S    
O13   V3    S    
C30   C32   A    
C65   H38   S    
O6    C4    A    
C57   H15   S    
O20   V4    S    
C26   C70   S    
C60   H25   S    
O1    V2    S    
C8    C18   S    
C28   C48   A    
C25   C67   S    
O2    V1    S    
H2    C16   S    
C71   H52   S    
C70   H54   S    
C67   H47   S    
C6    H4    S    
C74   H58   S    
C10   C12   A    
C75   H57   S    
O14   C54   A    
C35   C37   A    
C5    C15   A    
C77   C78   S    
C29   H9    S    
C66   H34   S    
O3    V1    S    
C25   C41   A    
C71   C72   S    
C69   H41   S    
C64   H39   S    
C61   H33   S    
C60   H24   S    
C5    H3    S    
C34   H12   S    
C10   H6    S    
C24   C53   S    
C37   C45   A    
C68   C69   S    
O3    C1    A    
C75   H56   S    
C73   H61   S    
C9    H5    S    
O23   C59   S    
C7    C17   S    
C26   C42   A    
C4    C21   S    
C30   H10   S    
O7    V1    S    
C66   H36   S    
C70   H53   S    
C1    O8    A    
C19   C21   T    
O8    V2    S    
C63   H27   S    
O19   V4    S    
C12   C14   A    
C52   C55   S    
C38   C52   A    
C64   C65   S    
C51   C56   S    
C59   H22   S    
C65   H37   S    
O17   V3    S    
C67   H46   S    
O22   C58   S    
C36   C38   A    
C60   H26   S    
C7    C9    A    
O12   C56   A    
C3    C22   S    
C17   C23   T    
H8    C50   S    
C6    C16   A    
C2    C27   S    
C45   O21   S    
C40   C48   A    
C58   H19   S    
C44   C64   S    
C29   C51   A    
O9    V2    S    
C73   C74   S    
O10   V1    S    
O11   C55   A    
C58   H20   S    
O12   V3    S    
C25   C49   A    
C14   C16   A    
C59   H23   S    
