data_mof_unit_25840.cif
_audit_creation_date              2012-12-10T17:13:37-0500
_audit_creation_method            fapswitch 2.2
_symmetry_space_group_name_H-M    P1
_symmetry_Int_Tables_number       1
_space_group_crystal_system       triclinic
_cell_length_a                    26.707466
_cell_length_b                    10.5864
_cell_length_c                    10.071812
_cell_angle_alpha                 92.170067
_cell_angle_beta                  91.670734
_cell_angle_gamma                 90.250684
_cell_volume                      2844.36825024

loop_
_atom_site_label
_atom_site_type_symbol
_atom_type_description
_atom_site_fract_x
_atom_site_fract_y
_atom_site_fract_z
_atom_type_partial_charge
C1    C     C_R   0.498842 0.262235 0.496811 0.966614
C2    C     C_R   0.982963 0.259931 0.614676 0.121496
C3    C     C_R   0.976486 0.434792 0.780641 -0.090674
C4    C     C_R   0.405296 0.500217 0.498182 0.902812
C5    C     C_R   0.953785 0.350864 0.683886 0.057175
C6    C     C_R   0.960367 0.190231 0.506467 -0.149553
C7    C     C_R   0.909937 0.205139 0.472168 -0.116892
C8    C     C_R   0.880496 0.291088 0.543919 -0.035378
C9    C     C_R   0.902228 0.362631 0.651590 -0.058553
C10   C     C_R   0.872853 0.449362 0.723935 -0.135049
C11   C     C_R   0.822382 0.464034 0.686339 0.598357
C12   C     C_R   0.269458 0.406175 0.443056 -0.062823
C13   C     C_R   0.829910 0.309666 0.508959 0.671937
C14   C     C_R   0.734651 0.490591 0.449345 0.391968
C15   C     C_R   0.683260 0.521831 0.433544 0.235268
C16   C     C_R   0.506356 0.736383 0.503081 1.045893
C17   C     C_R   0.662901 0.367652 0.599109 0.325253
C18   C     C_R   0.714259 0.345394 0.623708 -0.194254
C19   C     C_R   0.749757 0.407947 0.548680 0.123481
C20   C     C_R   0.035012 0.252157 0.646444 -0.061241
C21   C     C_R   0.058174 0.359761 0.709239 0.093069
C22   C     C_R   0.029165 0.451243 0.777802 0.048762
C23   C     C_R   0.250009 0.477414 0.552083 0.135256
C24   C     C_R   0.065338 0.146434 0.611458 -0.171725
C25   C     C_R   0.103627 0.586092 0.810912 -0.011865
C26   C     C_R   0.945035 0.507069 0.866065 0.408941
C27   C     C_R   0.894136 0.517030 0.833788 -0.089883
C28   C     C_R   0.594637 0.494193 0.502018 1.046289
C29   C     C_R   0.052689 0.563198 0.827529 -0.243226
C30   C     C_2   0.539044 0.932691 0.414648 -0.140445
C31   C     C_2   0.521276 0.866659 0.514429 -0.367561
C32   C     C_2   0.538429 0.070380 0.434105 0.393272
C33   C     C_2   0.497450 0.128123 0.483468 -0.254332
C34   C     C_R   0.109990 0.379025 0.696398 -0.124453
C35   C     C_2   0.538268 0.530719 0.932426 0.167394
C36   C     C_2   0.539617 0.495101 0.075513 0.159673
C37   C     C_R   0.189694 0.311534 0.611734 0.617514
C38   C     C_R   0.184128 0.509784 0.719838 0.585606
C39   C     C_R   0.273645 0.595159 0.581722 -0.065169
C40   C     C_R   0.326047 0.602182 0.570640 -0.152863
C41   C     C_R   0.321370 0.415025 0.420613 -0.133522
C42   C     C_2   0.345607 0.327799 0.324202 0.995966
C43   C     C_2   0.242665 0.712369 0.578579 1.044166
C44   C     C_2   0.122429 0.713699 0.853761 1.008217
C45   C     C_R   0.139439 0.282864 0.638173 -0.083803
C46   C     C_2   0.731148 0.262853 0.732468 0.959961
C47   C     C_2   0.558291 0.877166 0.288293 0.985424
C48   C     C_2   0.234435 0.341224 0.343739 0.998527
C49   C     C_2   0.447065 0.068441 0.491399 0.881213
C50   C     C_2   0.581082 0.604882 0.887033 0.843037
C51   C     C_2   0.042653 0.018537 0.588619 0.890473
C52   C     C_2   0.354810 0.709037 0.636035 1.019699
C53   C     C_R   0.118142 0.162112 0.609372 0.441890
C54   C     C_R   0.132860 0.493313 0.743938 -0.057722
C55   C     C_R   0.350352 0.505888 0.495757 -0.182444
C56   C     C_R   0.647945 0.460942 0.509912 -0.172305
H1    H     H_    0.871183 0.576816 0.896761 0.219621
H2    H     H_    0.991053 0.514239 0.017853 0.355677
H3    H     H_    0.639512 0.215799 0.682583 0.360155
H4    H     H_    0.778746 0.128396 0.794635 0.361160
H5    H     H_    0.567523 0.897577 0.092184 0.356808
H6    H     H_    0.608035 0.083221 0.383686 0.348593
H7    H     H_    0.221818 0.200380 0.205959 0.366791
H8    H     H_    0.395122 0.948815 0.407824 0.402563
H9    H     H_    0.655017 0.643978 0.905521 0.372483
H10   H     H_    0.447858 0.386547 0.819101 0.391762
H11   H     H_    0.439701 0.584856 0.170617 0.400024
H12   H     H_    0.030714 0.640174 0.868159 0.213993
H13   H     H_    0.135871 0.984933 0.615984 0.365823
H14   H     H_    0.694184 0.675989 0.339228 0.363625
H15   H     H_    0.756196 0.560159 0.284898 0.362750
H16   H     H_    0.992451 0.890250 0.646409 0.356455
H17   H     H_    0.365956 0.822516 0.799731 0.373769
H18   H     H_    0.514487 0.914352 0.609898 0.171656
H19   H     H_    0.575340 0.472131 0.122347 0.138258
H20   H     H_    0.894399 0.150921 0.387232 0.200184
H21   H     H_    0.981921 0.129810 0.441262 0.166891
H22   H     H_    0.379273 0.305313 0.148362 0.372191
H23   H     H_    0.177879 0.792106 0.516971 0.390535
H24   H     H_    0.124417 0.852813 0.996353 0.366643
N1    N     N_R   0.206695 0.434132 0.625564 -0.329155
N2    N     N_R   0.802102 0.394774 0.580449 -0.303645
N3    N     N_2   0.500520 0.501330 0.852150 0.052137
N4    N     N_2   0.500540 0.501360 0.147810 0.059266
O1    O     O_R   0.499990 0.319060 0.613040 -0.596928
O2    O     O_R   0.571240 0.499960 0.613080 -0.589775
O3    O     O_R   0.571250 0.500000 0.386950 -0.584851
O4    O     O_2   0.221342 0.218397 0.575547 -0.439362
O5    O     O_2   0.350288 0.216215 0.348800 -0.538983
O6    O     O_R   0.363033 0.373544 0.205586 -0.746756
O7    O     O_2   0.258746 0.813440 0.624965 -0.513726
O8    O     O_R   0.194975 0.706851 0.517183 -0.761140
O9    O     O_2   0.145886 0.777162 0.777721 -0.585239
O10   O     O_R   0.110518 0.764243 0.979092 -0.755644
O11   O     O_3   0.961620 0.562293 0.985643 -0.734831
O12   O     O_2   0.808490 0.242689 0.405542 -0.514354
O13   O     O_3   0.626197 0.299662 0.659963 -0.693193
O14   O     O_2   0.710831 0.269767 0.839776 -0.554422
O15   O     O_R   0.770499 0.178178 0.712872 -0.793757
O16   O     O_2   0.581010 0.777162 0.286980 -0.577077
O17   O     O_R   0.552471 0.943573 0.171529 -0.747686
O18   O     O_3   0.580606 0.141425 0.408689 -0.728587
O19   O     O_2   0.191997 0.382076 0.327458 -0.596750
O20   O     O_R   0.249317 0.234623 0.269081 -0.723083
O21   O     O_2   0.418882 0.103731 0.578731 -0.558703
O22   O     O_R   0.430849 0.977526 0.395038 -0.736411
O23   O     O_2   0.211652 0.592794 0.796120 -0.502276
O24   O     O_2   0.574539 0.685257 0.804527 -0.595071
O25   O     O_R   0.628838 0.587100 0.943616 -0.764003
O26   O     O_3   0.469401 0.413200 0.896611 -0.606667
O27   O     O_3   0.462262 0.567554 0.096292 -0.602746
O28   O     O_3   0.149316 0.062335 0.577718 -0.647254
O29   O     O_3   0.666724 0.614499 0.350167 -0.694255
O30   O     O_3   0.771239 0.541210 0.372887 -0.723577
O31   O     O_2   0.056020 0.949378 0.496379 -0.577322
O32   O     O_R   0.005204 0.978468 0.671877 -0.770577
O33   O     O_2   0.388163 0.760824 0.577389 -0.639615
O34   O     O_2   0.793669 0.546805 0.754798 -0.537259
O35   O     O_R   0.343844 0.749502 0.765670 -0.696784
O36   O     O_R   0.500010 0.319100 0.386900 -0.595136
O37   O     O_R   0.428750 0.500000 0.613050 -0.618743
O38   O     O_R   0.428760 0.500040 0.386920 -0.615000
O39   O     O_R   0.499990 0.680900 0.613100 -0.574608
O40   O     O_R   0.500010 0.680940 0.386960 -0.594984
Zn1   Zn    Zn3+2 0.499990 0.499970 0.650990 1.083513
Zn2   Zn    Zn3+2 0.500010 0.500030 0.349010 1.077741

loop_
_geom_bond_atom_site_label_1
_geom_bond_atom_site_label_2
_ccdc_geom_bond_type
C10   C27   A    
C46   O15   S    
C8    C13   A    
C47   O17   S    
C22   C29   A    
C41   C42   S    
C6    C7    A    
C37   O4    S    
O1    Zn1   S    
C35   C36   S    
C12   C48   S    
H4    O15   S    
C28   C56   S    
C1    C33   S    
C7    C8    A    
H22   O6    S    
C16   C31   S    
C5    C9    A    
C12   C23   A    
C26   C27   A    
H17   O35   S    
C16   O39   A    
C30   C31   D    
H13   O28   S    
O36   Zn2   S    
O39   Zn1   S    
C33   C49   S    
C48   O20   S    
C25   C29   A    
C18   C19   A    
C38   O23   S    
C41   C55   A    
C44   O9    D    
C20   C24   A    
C8    C9    A    
C15   O29   S    
C19   N2    S    
C9    C10   A    
C52   O33   D    
C24   C51   S    
C46   O14   D    
C45   C53   A    
C11   N2    A    
C21   C22   A    
O2    Zn1   S    
C50   O24   D    
C37   N1    A    
C2    C6    A    
N3    Zn1   S    
C18   C46   S    
C25   C44   S    
C35   C50   S    
H14   O29   S    
N4    Zn2   S    
N4    O27   S    
C13   O12   S    
C2    C20   A    
C30   C47   S    
C25   C54   A    
C27   H1    S    
C39   C40   A    
C35   N3    D    
C6    H21   S    
C39   C43   S    
C21   C34   A    
C24   C53   A    
C40   C52   S    
C48   O19   D    
C13   N2    A    
C50   O25   S    
C43   O7    D    
C47   O16   D    
H15   O30   S    
C42   O6    S    
C1    O36   A    
O38   Zn2   S    
H5    O17   S    
H2    O11   S    
O37   Zn1   S    
C12   C41   A    
C36   H19   S    
C29   H12   S    
C38   C54   A    
C40   C55   A    
C28   O3    A    
C17   C18   A    
N3    O26   S    
C4    O38   A    
C34   C45   A    
H10   O26   S    
C17   C56   A    
H9    O25   S    
H23   O8    S    
C49   O22   S    
C53   O28   S    
H11   O27   S    
C34   C54   A    
C4    C55   S    
C28   O2    A    
H3    O13   S    
C32   O18   S    
C1    O1    A    
C37   C45   A    
O40   Zn2   S    
C26   O11   S    
C23   N1    S    
C14   C19   A    
C3    C26   A    
C51   O32   S    
H7    O20   S    
C3    C5    A    
C49   O21   D    
H8    O22   S    
C7    H20   S    
H16   O32   S    
C43   O8    S    
C42   O5    D    
C15   C56   A    
C16   O40   A    
C38   N1    A    
C14   O30   S    
C32   C33   D    
C30   C32   S    
C17   O13   S    
C36   N4    D    
C23   C39   A    
C4    O37   A    
C31   H18   S    
C51   O31   D    
C44   O10   S    
C10   C11   A    
C2    C5    A    
C52   O35   S    
C20   C21   A    
C14   C15   A    
C3    C22   A    
C11   O34   S    
H24   O10   S    
O3    Zn2   S    
H6    O18   S    
