data_mof_unit_31209.cif
_audit_creation_date              2013-03-05T15:41:18-0500
_audit_creation_method            fapswitch 2.2
_symmetry_space_group_name_H-M    P1
_symmetry_Int_Tables_number       1
_space_group_crystal_system       triclinic
_cell_length_a                    16.955394
_cell_length_b                    17.020736
_cell_length_c                    16.716008
_cell_angle_alpha                 65.438412
_cell_angle_beta                  65.965355
_cell_angle_gamma                 66.129784
_cell_volume                      3842.97716256

loop_
_atom_site_label
_atom_site_type_symbol
_atom_site_description
_atom_site_fract_x
_atom_site_fract_y
_atom_site_fract_z
_atom_type_partial_charge
O1    O     O_R   0.982940 0.138950 0.510160 -0.540390
O2    O     O_R   0.017060 0.861050 0.489840 -0.589280
O3    O     O_R   0.138950 0.510160 0.982940 -0.615703
O4    O     O_R   0.861050 0.489840 0.017060 -0.625552
O5    O     O_R   0.510160 0.982940 0.138950 -0.543163
O6    O     O_R   0.489840 0.017060 0.861050 -0.593440
O7    O     O_R   0.489840 0.861050 0.017060 -0.573779
O8    O     O_R   0.510160 0.138950 0.982940 -0.606560
O9    O     O_R   0.017060 0.489840 0.861050 -0.530187
O10   O     O_R   0.982940 0.510160 0.138950 -0.591658
O11   O     O_R   0.861050 0.017060 0.489840 -0.534364
O12   O     O_R   0.138950 0.982940 0.510160 -0.591180
C1    C     C_R   0.322113 0.982655 0.438299 -0.048620
C2    C     C_R   0.681720 0.029660 0.543108 -0.000960
C3    C     C_R   0.930299 0.462027 0.332172 -0.054591
C4    C     C_R   0.053732 0.541746 0.670857 -0.008726
C5    C     C_R   0.441293 0.306669 0.008658 -0.054108
C6    C     C_R   0.554172 0.676356 0.028259 -0.023091
C7    C     C_R   0.562810 0.998139 0.686374 -0.061363
C8    C     C_R   0.464782 0.933863 0.326981 -0.032524
C9    C     C_R   0.693589 0.559257 0.990827 -0.077727
C10   C     C_R   0.324362 0.446605 0.969523 -0.059132
C11   C     C_R   0.991512 0.687593 0.569889 -0.068821
C12   C     C_R   0.952044 0.323495 0.458542 -0.023400
O13   O     O_R   0.867700 0.025880 0.612340 -0.623916
O14   O     O_R   0.132300 0.974120 0.387660 -0.644678
O15   O     O_R   0.025880 0.612340 0.867700 -0.645822
O16   O     O_R   0.974120 0.387660 0.132300 -0.646548
O17   O     O_R   0.612340 0.867700 0.025880 -0.601321
O18   O     O_R   0.387660 0.132300 0.974120 -0.629335
O19   O     O_R   0.387660 0.974120 0.132300 -0.646868
O20   O     O_R   0.612340 0.025880 0.867700 -0.642060
O21   O     O_R   0.132300 0.387660 0.974120 -0.592899
O22   O     O_R   0.867700 0.612340 0.025880 -0.578707
O23   O     O_R   0.974120 0.132300 0.387660 -0.637182
O24   O     O_R   0.025880 0.867700 0.612340 -0.645493
C13   C     C_R   0.961785 0.179486 0.437830 0.871559
C14   C     C_R   0.019143 0.823716 0.570187 0.944838
C15   C     C_R   0.177957 0.433314 0.973271 0.940285
C16   C     C_R   0.827165 0.570512 0.012627 0.926612
C17   C     C_R   0.439533 0.958585 0.179413 0.942187
C18   C     C_R   0.566464 0.026248 0.821908 0.849947
C19   C     C_R   0.567441 0.822227 0.025352 0.961772
C20   C     C_R   0.429827 0.173450 0.986082 0.903775
C21   C     C_R   0.037995 0.562032 0.820015 0.918076
C22   C     C_R   0.961046 0.438021 0.179939 0.878937
C23   C     C_R   0.820360 0.035664 0.562581 0.923350
C24   C     C_R   0.178851 0.972344 0.432765 0.902093
C25   C     C_R   0.417355 0.960676 0.406903 -0.003369
C26   C     C_R   0.600702 0.005923 0.592075 -0.015792
C27   C     C_R   0.951119 0.414747 0.416540 -0.019790
C28   C     C_R   0.016451 0.592357 0.596154 -0.011983
C29   C     C_R   0.406831 0.400616 0.991567 -0.014453
C30   C     C_R   0.599745 0.593602 0.007790 -0.021597
C31   C     C_R   0.276414 0.960644 0.397863 -0.136802
C32   C     C_R   0.722549 0.049087 0.590604 -0.088495
C33   C     C_R   0.930444 0.411335 0.281766 -0.088428
C34   C     C_R   0.062153 0.589669 0.718570 -0.086077
C35   C     C_R   0.390654 0.261128 0.001825 -0.102469
C36   C     C_R   0.607127 0.730252 0.018640 -0.061031
C37   C     C_R   0.601110 0.029619 0.726196 -0.128104
C38   C     C_R   0.413424 0.929992 0.280028 -0.080184
C39   C     C_R   0.739729 0.610244 0.995969 -0.112808
C40   C     C_R   0.270530 0.393940 0.978790 -0.097929
C41   C     C_R   0.025292 0.728420 0.605728 -0.127009
C42   C     C_R   0.936821 0.278884 0.411063 -0.141570
Zn1   Zn    Zn3+2 0.004880 0.004880 0.583590 1.097501
Zn2   Zn    Zn3+2 0.995120 0.995120 0.416410 1.095210
Zn3   Zn    Zn3+2 0.004880 0.583590 0.004880 1.088060
Zn4   Zn    Zn3+2 0.995120 0.416410 0.995120 1.087913
Zn5   Zn    Zn3+2 0.583590 0.004880 0.004880 1.113455
Zn6   Zn    Zn3+2 0.416410 0.995120 0.995120 1.082594
C43   C     C_R   0.482254 0.969425 0.732961 0.289836
C44   C     C_R   0.560869 0.915350 0.294788 0.295355
C45   C     C_R   0.937214 0.736267 0.507209 0.286153
C46   C     C_R   0.960983 0.282761 0.549830 0.359503
C47   C     C_R   0.737823 0.477583 0.965780 0.267773
C48   C     C_R   0.296711 0.542635 0.945376 0.300560
C49   C     C_R   0.277496 0.020409 0.512689 0.273471
C50   C     C_R   0.715664 0.039041 0.447155 0.389142
C51   C     C_R   0.522064 0.261718 0.036357 0.272324
C52   C     C_R   0.458025 0.703591 0.051970 0.342832
C53   C     C_R   0.902291 0.558043 0.305983 0.264575
C54   C     C_R   0.080532 0.445964 0.695978 0.308905
C55   C     C_R   0.327105 0.921084 0.326952 -0.035306
C56   C     C_R   0.670749 0.069395 0.671589 -0.032804
C57   C     C_R   0.912246 0.328444 0.329502 -0.035730
C58   C     C_R   0.071635 0.675042 0.671923 -0.070559
C59   C     C_R   0.300121 0.300007 0.012446 0.021219
C60   C     C_R   0.701026 0.700864 0.985080 0.072419
H1    H     H_    0.299606 0.994922 0.788366 0.189037
H2    H     H_    0.732538 0.938161 0.223301 0.207539
H3    H     H_    0.847486 0.810430 0.375297 0.197880
H4    H     H_    0.041593 0.198689 0.688249 0.215787
H5    H     H_    0.794872 0.294117 0.992222 0.194842
H6    H     H_    0.225127 0.711864 0.969732 0.199477
H7    H     H_    0.211641 0.016490 0.694119 0.188428
H8    H     H_    0.795788 0.993983 0.285991 0.208830
H9    H     H_    0.704191 0.203410 0.019454 0.197874
H10   H     H_    0.294424 0.780748 0.013371 0.207465
H11   H     H_    0.837094 0.737593 0.289701 0.209685
H12   H     H_    0.097266 0.265855 0.744957 0.199672
C61   C     C_R   0.683629 0.001257 0.409526 0.012330
C62   C     C_R   0.325511 0.003317 0.572631 -0.014016
C63   C     C_R   0.056478 0.402668 0.656353 0.008694
C64   C     C_R   0.910371 0.603044 0.356262 -0.004718
C65   C     C_R   0.415607 0.668565 0.021877 0.023338
C66   C     C_R   0.579588 0.312571 0.017218 -0.012788
C67   C     C_R   0.603951 0.943895 0.330738 0.028462
C68   C     C_R   0.427286 0.984241 0.680925 0.004066
C69   C     C_R   0.332662 0.585788 0.973449 -0.012345
C70   C     C_R   0.686607 0.419548 0.987790 -0.019471
C71   C     C_R   0.000684 0.319329 0.580541 0.005817
C72   C     C_R   0.928143 0.692115 0.457046 -0.001767
C73   C     C_R   0.729359 0.985383 0.323738 -0.159308
C74   C     C_R   0.283188 0.007408 0.663354 -0.169384
C75   C     C_R   0.067832 0.309285 0.689621 -0.149695
C76   C     C_R   0.874165 0.696439 0.339619 -0.153990
C77   C     C_R   0.329728 0.713320 0.008085 -0.087175
C78   C     C_R   0.671254 0.273781 0.013766 -0.140390
C79   C     C_R   0.692463 0.951860 0.287665 -0.159201
C80   C     C_R   0.334377 0.993075 0.718507 -0.150091
C81   C     C_R   0.290605 0.674128 0.980238 -0.174258
C82   C     C_R   0.724853 0.327292 0.995177 -0.157008
C83   C     C_R   0.035703 0.269552 0.655926 -0.095768
C84   C     C_R   0.880857 0.739461 0.390273 -0.166685
C85   C     C_R   0.556313 0.965446 0.413642 0.030881
C86   C     C_R   0.467853 0.986651 0.588843 0.034349
C87   C     C_R   0.998026 0.410490 0.539636 0.012871
C88   C     C_R   0.961773 0.598015 0.477489 0.024507
C89   C     C_R   0.415798 0.539504 0.992428 0.025109
C90   C     C_R   0.593701 0.456433 0.999472 0.034747
C91   C     C_R   0.599685 0.984514 0.456974 0.010165
C92   C     C_R   0.419329 0.985645 0.538625 0.031547
C93   C     C_R   0.460874 0.584439 0.006388 0.013029
C94   C     C_R   0.542928 0.405711 0.003955 0.030861
C95   C     C_R   0.019278 0.453797 0.581734 0.032142
C96   C     C_R   0.949483 0.553390 0.429513 0.031755
C97   C     C_R   0.464537 0.970178 0.453032 -0.033597
C98   C     C_R   0.556743 0.990901 0.546406 -0.041202
C99   C     C_R   0.967366 0.459550 0.461040 -0.037770
C100  C     C_R   0.000664 0.548060 0.550800 -0.031115
C101  C     C_R   0.455207 0.448603 0.995833 -0.033551
C102  C     C_R   0.551352 0.544641 0.005070 -0.031817
C103  C     C_3   0.304278 0.846989 0.319508 -0.358219
C104  C     C_3   0.349751 0.754558 0.377360 -0.323794
C105  C     C_3   0.309501 0.681486 0.393858 -0.767156
H13   H     H_    0.237190 0.697392 0.433491 0.232921
H14   H     H_    0.315636 0.675492 0.327883 0.317947
H15   H     H_    0.345672 0.615729 0.433885 0.252348
H16   H     H_    0.423190 0.735060 0.342937 0.291996
H17   H     H_    0.341802 0.758367 0.444877 0.208328
H18   H     H_    0.231674 0.854508 0.341469 0.226885
H19   H     H_    0.327014 0.848519 0.247168 0.284075
C106  C     C_3   0.674905 0.150425 0.685683 -0.375989
C107  C     C_3   0.651057 0.236558 0.607233 -0.304627
C108  C     C_3   0.608059 0.321342 0.638052 -0.745953
H20   H     H_    0.600366 0.381906 0.577616 0.255160
H21   H     H_    0.540325 0.320329 0.687596 0.248682
H22   H     H_    0.649732 0.326191 0.671591 0.299400
H23   H     H_    0.712759 0.243377 0.548675 0.249692
H24   H     H_    0.602152 0.232121 0.581791 0.243853
H25   H     H_    0.626605 0.162610 0.750885 0.221632
H26   H     H_    0.742514 0.138327 0.689928 0.266309
C109  C     C_3   0.866989 0.293601 0.293632 -0.331649
C110  C     C_3   0.783727 0.365035 0.264167 -0.279037
C111  C     C_3   0.760770 0.342136 0.198467 -0.747888
H27   H     H_    0.818001 0.338998 0.135183 0.257249
H28   H     H_    0.745358 0.276601 0.230694 0.313676
H29   H     H_    0.700938 0.395097 0.178943 0.234246
H30   H     H_    0.725005 0.370001 0.326131 0.244565
H31   H     H_    0.794113 0.432866 0.228798 0.235317
H32   H     H_    0.916852 0.264968 0.237622 0.231686
H33   H     H_    0.842160 0.237738 0.348854 0.260686
C112  C     C_3   0.129392 0.706146 0.696600 -0.283187
C113  C     C_3   0.209891 0.731332 0.615441 -0.354763
C114  C     C_3   0.254252 0.779605 0.636994 -0.751390
H34   H     H_    0.204668 0.841530 0.653829 0.260693
H35   H     H_    0.282255 0.734876 0.695462 0.313567
H36   H     H_    0.310319 0.799304 0.576581 0.219147
H37   H     H_    0.260355 0.668996 0.600140 0.246250
H38   H     H_    0.189379 0.775915 0.552498 0.206270
H39   H     H_    0.087499 0.760515 0.729205 0.234106
H40   H     H_    0.158961 0.650314 0.749198 0.276604
C115  C     C_3   0.237355 0.242530 0.083380 -0.368337
C116  C     C_3   0.190918 0.272235 0.170329 -0.389636
C117  C     C_3   0.138867 0.207900 0.246312 -0.730297
H41   H     H_    0.184520 0.138622 0.263610 0.265298
H42   H     H_    0.108384 0.230960 0.307920 0.265761
H43   H     H_    0.085051 0.207415 0.225041 0.251833
H44   H     H_    0.242424 0.273190 0.194797 0.264569
H45   H     H_    0.144094 0.341035 0.156111 0.212697
H46   H     H_    0.188553 0.241588 0.055843 0.236694
H47   H     H_    0.275638 0.170774 0.106164 0.217032
C118  C     C_3   0.759500 0.764397 0.917653 -0.383608
C119  C     C_3   0.730579 0.819198 0.829711 -0.413076
C120  C     C_3   0.743239 0.759577 0.775245 -0.582891
H48   H     H_    0.815984 0.727236 0.747871 0.259194
H49   H     H_    0.708106 0.706722 0.818319 0.277187
H50   H     H_    0.713052 0.801345 0.717784 0.279119
H51   H     H_    0.659207 0.857813 0.847360 0.240179
H52   H     H_    0.770674 0.868012 0.785526 0.229150
H53   H     H_    0.760719 0.808789 0.949972 0.232861
H54   H     H_    0.831246 0.727233 0.893802 0.208499
N1    N     N_R   0.473887 0.899721 0.819787 0.218143
O25   O     O_R   0.537228 0.823960 0.827620 -0.454751
O26   O     O_R   0.397532 0.904233 0.884115 -0.423419
N2    N     N_R   0.613383 0.855482 0.238849 0.205305
O27   O     O_R   0.590983 0.783694 0.257787 -0.379234
O28   O     O_R   0.677885 0.875557 0.164872 -0.365771
N3    N     N_R   0.881758 0.826728 0.502467 0.196276
O29   O     O_R   0.829671 0.847275 0.577357 -0.485557
O30   O     O_R   0.889169 0.890090 0.424164 -0.413989
N4    N     N_R   0.899989 0.231985 0.618746 0.213114
O31   O     O_R   0.816434 0.261082 0.618978 -0.459422
O32   O     O_R   0.925136 0.160161 0.683120 -0.397173
N5    N     N_R   0.823718 0.468791 0.896001 0.231647
O33   O     O_R   0.840779 0.539480 0.828414 -0.438348
O34   O     O_R   0.884683 0.391492 0.898160 -0.401301
N6    N     N_R   0.258260 0.593311 0.870342 0.201187
O35   O     O_R   0.289476 0.563691 0.799818 -0.432379
O36   O     O_R   0.195455 0.669322 0.869948 -0.458497
N7    N     N_R   0.198929 0.096807 0.508794 0.227359
O37   O     O_R   0.193389 0.158024 0.430625 -0.425631
O38   O     O_R   0.132278 0.105148 0.582107 -0.429025
N8    N     N_R   0.753167 0.112371 0.387186 0.183830
O39   O     O_R   0.710287 0.191275 0.399429 -0.494234
O40   O     O_R   0.824498 0.103310 0.317574 -0.428616
N9    N     N_R   0.529781 0.175223 0.106182 0.225121
O41   O     O_R   0.458482 0.158375 0.172352 -0.412578
O42   O     O_R   0.606484 0.113221 0.104938 -0.408006
N10   N     N_R   0.407038 0.741182 0.127161 0.197116
O43   O     O_R   0.446363 0.726584 0.186535 -0.451745
O44   O     O_R   0.320095 0.775530 0.146044 -0.450785
N11   N     N_R   0.852283 0.608786 0.239591 0.217491
O45   O     O_R   0.877351 0.674289 0.169122 -0.371522
O46   O     O_R   0.782800 0.587898 0.248246 -0.384006
N12   N     N_R   0.141957 0.394234 0.751293 0.195418
O47   O     O_R   0.213812 0.417368 0.730862 -0.397417
O48   O     O_R   0.121696 0.331292 0.827441 -0.381337

loop_
_geom_bond_atom_site_label_1
_geom_bond_atom_site_label_2
_geom_bond_distance
_ccdc_geom_bond_type
H5    C82   1.078696 S    
C90   C102  1.402847 A    
C24   C31   1.469793 S    
C2    C32   1.438818 A    
C95   C100  1.405198 A    
C1    C49   1.426934 A    
C43   N1    1.439166 S    
C110  H31   1.107156 S    
C109  C110  1.547012 S    
C73   C79   1.400969 A    
C118  H53   1.106486 S    
C47   C70   1.413166 A    
C3    C33   1.433652 A    
C66   C78   1.408199 A    
O11   C23   1.230739 A    
C105  H13   1.110968 S    
O13   Zn1   2.080415 S    
C115  H47   1.109554 S    
O12   C24   1.243475 A    
O18   C20   1.296103 A    
O7    Zn6   2.066101 S    
C44   C67   1.420692 A    
N6    O36   1.300553 A    
C103  C104  1.538043 S    
C11   C28   1.415610 A    
O24   Zn1   2.084032 S    
C43   C68   1.405928 A    
C111  H28   1.106517 S    
C57   C109  1.529323 S    
N1    O25   1.298740 A    
C113  H38   1.106594 S    
C15   C40   1.461697 S    
C45   N3    1.431320 S    
C108  H20   1.110401 S    
C58   C112  1.529586 S    
C74   C80   1.398674 A    
O22   C16   1.295939 A    
H11   C76   1.080272 S    
C40   C59   1.399057 A    
C107  C108  1.529727 S    
O3    Zn3   2.065574 S    
C55   C103  1.523331 S    
C66   C94   1.404024 A    
C94   C101  1.402453 A    
O2    Zn2   2.051518 S    
C93   C102  1.398786 A    
C9    C30   1.404065 A    
C72   C84   1.412914 A    
N4    O32   1.300968 A    
C64   C96   1.414538 A    
C71   C83   1.404670 A    
C20   C35   1.455804 S    
C109  H32   1.109028 S    
C4    C54   1.423859 A    
C35   C59   1.370872 A    
C116  H44   1.112741 S    
C120  H49   1.108352 S    
H3    C84   1.073668 S    
C117  H43   1.109920 S    
C65   C93   1.401169 A    
C48   N6    1.433106 S    
H9    C78   1.078322 S    
C62   C74   1.407316 A    
C52   N10   1.439541 S    
C67   C85   1.406581 A    
C60   C118  1.538468 S    
O4    C16   1.237987 A    
N2    O27   1.301361 A    
C114  H35   1.107757 S    
H1    C80   1.080251 S    
O10   C22   1.255869 A    
N11   O45   1.301979 A    
C119  H51   1.100067 S    
C48   C69   1.418869 A    
O7    C19   1.247316 A    
C111  H29   1.110527 S    
O13   C23   1.297817 A    
O16   Zn4   2.041472 S    
C109  H33   1.100522 S    
O15   Zn3   2.041472 S    
O14   C24   1.280192 A    
C103  H18   1.099995 S    
O15   C21   1.304792 A    
C12   C27   1.410047 A    
C27   C99   1.421001 A    
C51   C66   1.414802 A    
C107  H24   1.113014 S    
C110  H30   1.111727 S    
C108  H21   1.111086 S    
C51   N9    1.444581 S    
C64   C76   1.401040 A    
C8    C38   1.422960 A    
C72   C88   1.404189 A    
C63   C75   1.406206 A    
C85   C97   1.403400 A    
C17   C38   1.465940 S    
C65   C77   1.408339 A    
N6    O35   1.301510 A    
C38   C55   1.387762 A    
N9    O41   1.301846 A    
C46   C71   1.410782 A    
C10   C29   1.413435 A    
N1    O26   1.300937 A    
C113  H37   1.111694 S    
C21   C34   1.480409 S    
O12   Zn1   2.057843 S    
N12   O48   1.301533 A    
O4    Zn4   2.065574 S    
C9    C39   1.427874 A    
C50   C61   1.414765 A    
C69   C81   1.410810 A    
C67   C79   1.411507 A    
C85   C91   1.411842 A    
C118  C119  1.532513 S    
C7    C43   1.438161 A    
C105  H15   1.110244 S    
O9    Zn4   2.022779 S    
C10   C48   1.428213 A    
N7    O37   1.300308 A    
C4    C28   1.417392 A    
C36   C60   1.400320 A    
C115  H46   1.106327 S    
C42   C57   1.402196 A    
C45   C72   1.419165 A    
N4    O31   1.296771 A    
C12   C46   1.433903 A    
C87   C99   1.409467 A    
C4    C34   1.431697 A    
C118  H54   1.109380 S    
C106  H25   1.106790 S    
N5    O33   1.301211 A    
C10   C40   1.446446 A    
C28   C100  1.420818 A    
C33   C57   1.392239 A    
C29   C101  1.408292 A    
C31   C55   1.400861 A    
C120  H50   1.108269 S    
O6    Zn6   2.029731 S    
C56   C106  1.524782 S    
C8    C25   1.405165 A    
C86   C92   1.402768 A    
O21   C15   1.293072 A    
O2    C14   1.232828 A    
C32   C56   1.377789 A    
N3    O29   1.297238 A    
C18   C37   1.446901 S    
C14   C41   1.451632 S    
C90   C94   1.409707 A    
C114  H36   1.109253 S    
O16   C22   1.299213 A    
C13   C42   1.478859 S    
N10   O44   1.300551 A    
C54   C63   1.420289 A    
C8    C44   1.433335 A    
H10   C77   1.080965 S    
O20   Zn5   2.042735 S    
C52   C65   1.420139 A    
C70   C90   1.401660 A    
H7    C74   1.079870 S    
C49   N7    1.438058 S    
C16   C39   1.449477 S    
O22   Zn3   2.080679 S    
C1    C25   1.416719 A    
H12   C75   1.077093 S    
C62   C92   1.400844 A    
O21   Zn4   2.080680 S    
C5    C35   1.429416 A    
C104  H17   1.107250 S    
C103  H19   1.101706 S    
C19   C36   1.465629 S    
C69   C89   1.402136 A    
C113  C114  1.528924 S    
N3    O30   1.301651 A    
C53   N11   1.439975 S    
C107  H23   1.111647 S    
C114  H34   1.110688 S    
C108  H22   1.108498 S    
N8    O40   1.300943 A    
C2    C50   1.427890 A    
C25   C97   1.404137 A    
C22   C33   1.483708 S    
N11   O46   1.301022 A    
C110  C111  1.528541 S    
N9    O42   1.300372 A    
C3    C27   1.411843 A    
C49   C62   1.407777 A    
C1    C31   1.438644 A    
C119  H52   1.111729 S    
C88   C96   1.426236 A    
C5    C29   1.407123 A    
C111  H27   1.110130 S    
C89   C101  1.401645 A    
O11   Zn2   2.057843 S    
O23   C13   1.293543 A    
C41   C58   1.400690 A    
C112  H39   1.109020 S    
C104  C105  1.528781 S    
H4    C83   1.077674 S    
C6    C36   1.449125 A    
O5    C17   1.253893 A    
N12   O47   1.301363 A    
O19   Zn6   2.042736 S    
O8    Zn5   2.066100 S    
O20   C18   1.291547 A    
O19   C17   1.290958 A    
H6    C81   1.078819 S    
C105  H14   1.108604 S    
C59   C115  1.531663 S    
C54   N12   1.442340 S    
O8    C20   1.234045 A    
C11   C45   1.441717 A    
C119  C120  1.528859 S    
C96   C99   1.399717 A    
C34   C58   1.374920 A    
O18   Zn6   2.085534 S    
N7    O38   1.298380 A    
C70   C82   1.407634 A    
O1    Zn1   2.051518 S    
C77   C81   1.403393 A    
C106  H26   1.106605 S    
N5    O34   1.300401 A    
C30   C102  1.408939 A    
C89   C93   1.410768 A    
C61   C73   1.406231 A    
C53   C64   1.423279 A    
O14   Zn2   2.080415 S    
C11   C41   1.455195 A    
C63   C95   1.416058 A    
O24   C14   1.281920 A    
C61   C91   1.398888 A    
C117  H41   1.110565 S    
O5    Zn5   2.029730 S    
C112  C113  1.539136 S    
H2    C79   1.076320 S    
C68   C80   1.406961 A    
C7    C26   1.409039 A    
C47   N5    1.445317 S    
C115  C116  1.531201 S    
C2    C26   1.406613 A    
O23   Zn2   2.084030 S    
C7    C37   1.442967 A    
C3    C53   1.426338 A    
O9    C21   1.249132 A    
C39   C60   1.373871 A    
N10   O43   1.300524 A    
C6    C52   1.429823 A    
C86   C98   1.398093 A    
H8    C73   1.079785 S    
C5    C51   1.431537 A    
C112  H40   1.098337 S    
C116  H45   1.108149 S    
C120  H48   1.110810 S    
C88   C100  1.413428 A    
C117  H42   1.104555 S    
C37   C56   1.393197 A    
C6    C30   1.415122 A    
O3    C15   1.250161 A    
C104  H16   1.110122 S    
O10   Zn3   2.022779 S    
C46   N4    1.438308 S    
C87   C95   1.421671 A    
C12   C42   1.448981 A    
C91   C98   1.400431 A    
N2    O28   1.300592 A    
N8    O39   1.300459 A    
O6    C18   1.235871 A    
C9    C47   1.433386 A    
C106  C107  1.544785 S    
C44   N2    1.444005 S    
C92   C97   1.400165 A    
C23   C32   1.473603 S    
C26   C98   1.408441 A    
C76   C84   1.388172 A    
C50   N8    1.431784 S    
C116  C117  1.517897 S    
C71   C87   1.401279 A    
C75   C83   1.391451 A    
O17   C19   1.291012 A    
C78   C82   1.398782 A    
C68   C86   1.397139 A    
O1    C13   1.235312 A    
O17   Zn5   2.085533 S    
