data_mof_unit_24304.cif
_audit_creation_date              2012-12-11T17:47:35-0500
_audit_creation_method            fapswitch 2.2
_symmetry_space_group_name_H-M    P1
_symmetry_Int_Tables_number       1
_space_group_crystal_system       triclinic
_cell_length_a                    7.215679
_cell_length_b                    23.616976
_cell_length_c                    24.790097
_cell_angle_alpha                 90.0
_cell_angle_beta                  90.000012
_cell_angle_gamma                 89.508418
_cell_volume                      4224.38735857

loop_
_atom_site_label
_atom_site_type_symbol
_atom_type_description
_atom_site_fract_x
_atom_site_fract_y
_atom_site_fract_z
_atom_type_partial_charge
O1    O     O_R   0.690340 0.802800 0.195640 -0.530777
O2    O     O_R   0.309660 0.197200 0.804360 -0.510512
O3    O     O_R   0.309660 0.197200 0.695640 -0.530777
O4    O     O_R   0.690340 0.802800 0.304360 -0.510512
O5    O     O_R   0.190340 0.697200 0.304360 -0.533592
O6    O     O_R   0.809660 0.302800 0.695640 -0.512462
O7    O     O_R   0.809660 0.302800 0.804360 -0.533592
O8    O     O_R   0.190340 0.697200 0.195640 -0.512462
O9    O     O_R   0.360590 0.809740 0.303990 -0.512278
O10   O     O_R   0.639410 0.190260 0.696010 -0.501185
O11   O     O_R   0.639410 0.190260 0.803990 -0.512278
O12   O     O_R   0.360590 0.809740 0.196010 -0.501185
O13   O     O_R   0.860590 0.690260 0.196010 -0.510107
O14   O     O_R   0.139410 0.309740 0.803990 -0.510312
O15   O     O_R   0.139410 0.309740 0.696010 -0.510107
O16   O     O_R   0.860590 0.690260 0.303990 -0.510312
C1    C     C_R   0.529421 0.825957 0.319426 0.787130
C2    C     C_R   0.470584 0.177105 0.677449 0.863829
C3    C     C_R   0.470579 0.174043 0.819426 0.787129
C4    C     C_R   0.529416 0.822895 0.177449 0.863829
C5    C     C_R   0.030361 0.676781 0.177717 0.796192
C6    C     C_R   0.969405 0.323064 0.822388 0.821716
C7    C     C_R   0.969639 0.323219 0.677717 0.796193
C8    C     C_R   0.030594 0.676936 0.322388 0.821716
O17   O     O_3   0.523810 0.713070 0.250000 -0.366044
O18   O     O_3   0.476190 0.286930 0.750000 -0.366044
O19   O     O_3   0.023810 0.786930 0.250000 -0.355990
O20   O     O_3   0.976190 0.213070 0.750000 -0.355990
V1    V     V_3+5 0.248970 0.756850 0.250000 1.840895
V2    V     V_3+5 0.751030 0.243150 0.750000 1.840895
V3    V     V_3+5 0.748970 0.743150 0.250000 1.821930
V4    V     V_3+5 0.251030 0.256850 0.750000 1.821930
C9    C     C_R   0.047905 0.632669 0.365980 -0.269474
C10   C     C_R   0.959995 0.366064 0.632645 -0.312428
C11   C     C_R   0.952095 0.367331 0.865980 -0.269473
C12   C     C_R   0.040005 0.633936 0.132645 -0.312427
C13   C     C_R   0.542259 0.866051 0.132855 -0.254427
C14   C     C_R   0.460578 0.127456 0.860428 -0.384183
C15   C     C_R   0.457741 0.133949 0.632855 -0.254427
C16   C     C_R   0.539421 0.872544 0.360428 -0.384182
C17   C     C_R   0.924886 0.586433 0.366052 0.211144
C18   C     C_R   0.080427 0.413593 0.633131 0.209340
C19   C     C_R   0.075114 0.413567 0.866052 0.211142
C20   C     C_R   0.919573 0.586406 0.133131 0.209340
C21   C     C_R   0.413833 0.911584 0.131600 0.214629
C22   C     C_R   0.588214 0.081366 0.862906 0.409232
C23   C     C_R   0.586167 0.088416 0.631600 0.214629
C24   C     C_R   0.411786 0.918634 0.362906 0.409232
C25   C     C_R   0.949952 0.541055 0.403146 0.299257
C26   C     C_R   0.088002 0.450517 0.587937 0.318609
C27   C     C_R   0.050047 0.458945 0.903146 0.299257
C28   C     C_R   0.911997 0.549483 0.087937 0.318607
C29   C     C_R   0.433036 0.955983 0.093301 0.309405
C30   C     C_R   0.578599 0.042764 0.906494 0.360876
C31   C     C_R   0.566964 0.044016 0.593301 0.309404
C32   C     C_R   0.421401 0.957236 0.406494 0.360875
C33   C     C_R   0.093547 0.543098 0.442044 0.194307
C34   C     C_R   0.988455 0.437439 0.540541 0.189210
C35   C     C_R   0.906453 0.456902 0.942044 0.194307
C36   C     C_R   0.011544 0.562561 0.040541 0.189210
C37   C     C_R   0.576247 0.953794 0.054361 0.192288
C38   C     C_R   0.461908 0.055133 0.951682 0.064207
C39   C     C_R   0.423753 0.046206 0.554361 0.192289
C40   C     C_R   0.538092 0.944867 0.451682 0.064208
C41   C     C_R   0.224180 0.587006 0.439745 0.181675
C42   C     C_R   0.881577 0.388257 0.538639 0.237357
C43   C     C_R   0.775819 0.412994 0.939745 0.181675
C44   C     C_R   0.118423 0.611742 0.038638 0.237359
C45   C     C_R   0.710641 0.909978 0.057083 0.168051
C46   C     C_R   0.337402 0.101137 0.946812 0.281268
C47   C     C_R   0.289359 0.090022 0.557083 0.168050
C48   C     C_R   0.662597 0.898863 0.446813 0.281267
C49   C     C_R   0.192634 0.634443 0.405501 0.272369
C50   C     C_R   0.844128 0.358005 0.586570 0.237508
C51   C     C_R   0.807366 0.365557 0.905501 0.272370
C52   C     C_R   0.155872 0.641995 0.086570 0.237507
C53   C     C_R   0.685358 0.863432 0.092913 0.275771
C54   C     C_R   0.310287 0.125836 0.896104 0.234297
C55   C     C_R   0.314642 0.136568 0.592913 0.275771
C56   C     C_R   0.689712 0.874164 0.396105 0.234297
N1    N     N_2   0.114732 0.501345 0.483757 -0.100776
N2    N     N_2   0.969250 0.476833 0.497031 -0.067921
N3    N     N_2   0.885268 0.498655 0.983757 -0.100777
N4    N     N_2   0.030750 0.523166 0.997031 -0.067919
N5    N     N_2   0.593104 0.995261 0.012181 -0.143096
N6    N     N_2   0.444815 0.018020 0.997164 -0.092978
N7    N     N_2   0.406896 0.004738 0.512181 -0.143096
N8    N     N_2   0.555185 0.981980 0.497164 -0.092978
O21   O     O_3   0.184374 0.427057 0.678128 -0.602037
H1    H     H_    0.120803 0.412961 0.710809 0.308966
O22   O     O_3   0.780788 0.586372 0.329353 -0.618578
H2    H     H_    0.673145 0.567252 0.345921 0.323700
O23   O     O_3   0.815625 0.572943 0.178128 -0.602038
H3    H     H_    0.879197 0.587039 0.210809 0.308966
O24   O     O_3   0.219211 0.413628 0.829353 -0.618577
H4    H     H_    0.326855 0.432748 0.845921 0.323700
O25   O     O_3   0.706385 0.068192 0.820831 -0.525618
H5    H     H_    0.665619 0.088405 0.787898 0.314823
O26   O     O_3   0.270303 0.912056 0.168489 -0.611632
H6    H     H_    0.159830 0.929597 0.151342 0.332443
O27   O     O_3   0.293615 0.931808 0.320831 -0.525618
H7    H     H_    0.334380 0.911594 0.287898 0.314823
O28   O     O_3   0.729696 0.087944 0.668489 -0.611632
H8    H     H_    0.840170 0.070403 0.651342 0.332444
O29   O     O_3   0.187728 0.500277 0.589222 -0.550308
H9    H     H_    0.249626 0.504713 0.624549 0.377442
O30   O     O_3   0.844263 0.492684 0.399914 -0.580004
H10   H     H_    0.804234 0.487055 0.362104 0.318243
O31   O     O_3   0.812271 0.499723 0.089222 -0.550308
H11   H     H_    0.750374 0.495287 0.124549 0.377442
O32   O     O_3   0.155737 0.507316 0.899914 -0.580000
H12   H     H_    0.195766 0.512945 0.862104 0.318247
O33   O     O_3   0.676384 0.992590 0.901895 -0.520597
H13   H     H_    0.603490 0.962389 0.919396 0.354755
O34   O     O_3   0.321154 0.003645 0.095280 -0.569953
H14   H     H_    0.280683 0.010156 0.132954 0.333500
O35   O     O_3   0.323616 0.007410 0.401895 -0.520597
H15   H     H_    0.396510 0.037611 0.419396 0.354755
O36   O     O_3   0.678846 0.996355 0.595280 -0.569953
H16   H     H_    0.719317 0.989843 0.632954 0.333501
S1    S     S_3+6 0.430306 0.579352 0.479342 0.178931
O37   O     O_2   0.590467 0.610892 0.455427 -0.271389
O38   O     O_2   0.393093 0.601167 0.535268 -0.197025
O39   O     O_3   0.492165 0.510765 0.483845 -0.434735
H17   H     H_    0.498481 0.497679 0.445942 0.359157
S2    S     S_3+6 0.819558 0.361603 0.473942 0.158162
O40   O     O_2   0.973238 0.373409 0.434659 -0.278749
O41   O     O_2   0.789173 0.298752 0.475980 -0.232412
O42   O     O_3   0.625363 0.394120 0.452317 -0.456278
H18   H     H_    0.605352 0.379497 0.415347 0.391086
S3    S     S_3+6 0.569694 0.420647 0.979342 0.178931
O43   O     O_2   0.409533 0.389108 0.955427 -0.271389
O44   O     O_2   0.606907 0.398832 0.035268 -0.197025
O45   O     O_3   0.507835 0.489235 0.983845 -0.434735
H19   H     H_    0.501519 0.502321 0.945942 0.359159
S4    S     S_3+6 0.180442 0.638397 0.973942 0.158159
O46   O     O_2   0.026763 0.626591 0.934659 -0.278745
O47   O     O_2   0.210827 0.701248 0.975980 -0.232418
O48   O     O_3   0.374637 0.605880 0.952317 -0.456280
H20   H     H_    0.394664 0.620510 0.915350 0.391089
S5    S     S_3+6 0.912801 0.916164 0.015634 0.174710
O49   O     O_2   0.078525 0.886846 0.039874 -0.259019
O50   O     O_2   0.873628 0.890892 0.961246 -0.211099
O51   O     O_3   0.967956 0.984426 0.007052 -0.416390
H21   H     H_    0.989305 0.998750 0.044059 0.380997
S6    S     S_3+6 0.209690 0.128526 0.002052 0.179995
O52   O     O_2   0.306373 0.115360 0.054269 -0.233918
O53   O     O_2   0.194434 0.191790 0.996221 -0.282413
O54   O     O_3   0.995286 0.101276 0.003515 -0.427994
H22   H     H_    0.914790 0.129319 0.984965 0.399052
S7    S     S_3+6 0.087199 0.083836 0.515634 0.174711
O55   O     O_2   0.921475 0.113153 0.539874 -0.259019
O56   O     O_2   0.126371 0.109108 0.461246 -0.211098
O57   O     O_3   0.032044 0.015574 0.507052 -0.416391
H23   H     H_    0.010695 0.001250 0.544059 0.380998
S8    S     S_3+6 0.790309 0.871474 0.502052 0.179995
O58   O     O_2   0.693626 0.884640 0.554269 -0.233917
O59   O     O_2   0.805565 0.808210 0.496221 -0.282413
O60   O     O_3   0.004713 0.898724 0.503515 -0.427994
H24   H     H_    0.085209 0.870681 0.484964 0.399052
S9    S     S_3+6 0.317665 0.698310 0.416972 0.119254
O61   O     O_2   0.489377 0.698264 0.382626 -0.323347
O62   O     O_2   0.199140 0.748283 0.402442 -0.307143
O63   O     O_3   0.377366 0.705738 0.482134 -0.394363
H25   H     H_    0.452321 0.740664 0.483372 0.404301
S10   S     S_3+6 0.634244 0.319160 0.590939 0.151324
O64   O     O_2   0.679161 0.257032 0.593141 -0.247364
O65   O     O_2   0.530864 0.336086 0.641142 -0.322751
O66   O     O_3   0.490604 0.331219 0.538675 -0.399743
H26   H     H_    0.430664 0.368223 0.546500 0.364482
S11   S     S_3+6 0.682335 0.301690 0.916972 0.119254
O67   O     O_2   0.510623 0.301736 0.882626 -0.323347
O68   O     O_2   0.800861 0.251716 0.902442 -0.307143
O69   O     O_3   0.622635 0.294262 0.982134 -0.394363
H27   H     H_    0.547680 0.259336 0.983372 0.404301
S12   S     S_3+6 0.365756 0.680840 0.090939 0.151323
O70   O     O_2   0.320840 0.742968 0.093141 -0.247364
O71   O     O_2   0.469135 0.663914 0.141142 -0.322750
O72   O     O_3   0.509396 0.668781 0.038675 -0.399747
H28   H     H_    0.569336 0.631776 0.046500 0.364481
S13   S     S_3+6 0.822487 0.800431 0.084512 0.146957
O73   O     O_2   0.996965 0.806088 0.117037 -0.296158
O74   O     O_2   0.720222 0.749257 0.103580 -0.306333
O75   O     O_3   0.877031 0.789479 0.019371 -0.379760
H29   H     H_    0.905934 0.748516 0.016714 0.409284
S14   S     S_3+6 0.093373 0.110445 0.867092 0.084403
O76   O     O_2   0.961965 0.158617 0.876741 -0.270151
O77   O     O_2   0.109388 0.100069 0.807397 -0.321505
O78   O     O_3   0.009661 0.051869 0.896455 -0.416741
H30   H     H_    0.094048 0.020866 0.884901 0.375586
S15   S     S_3+6 0.177512 0.199568 0.584512 0.146958
O79   O     O_2   0.003035 0.193911 0.617037 -0.296158
O80   O     O_2   0.279777 0.250743 0.603580 -0.306334
O81   O     O_3   0.122968 0.210521 0.519371 -0.379759
H31   H     H_    0.094067 0.251484 0.516714 0.409284
S16   S     S_3+6 0.906627 0.889555 0.367092 0.084402
O82   O     O_2   0.038034 0.841382 0.376740 -0.270151
O83   O     O_2   0.890612 0.899931 0.307397 -0.321505
O84   O     O_3   0.990339 0.948130 0.396455 -0.416742
H32   H     H_    0.905953 0.979133 0.384901 0.375586

loop_
_geom_bond_atom_site_label_1
_geom_bond_atom_site_label_2
_ccdc_geom_bond_type
O17   V3    S    
N7    N8    D    
O18   V4    S    
O23   H3    S    
C48   S8    S    
O12   V1    S    
O19   V1    S    
O66   H26   S    
C45   C53   A    
O24   H4    S    
C10   C18   A    
S11   O67   D    
S3    O45   S    
C47   C55   A    
O25   H5    S    
C25   C33   A    
O15   V4    S    
C25   O30   S    
C5    C12   S    
C31   O36   S    
S13   O73   D    
O16   V3    S    
C6    C11   S    
S11   O68   D    
O11   C3    A    
S2    O40   D    
O8    V1    S    
C23   C31   A    
S8    O58   D    
C35   N3    S    
S6    O52   D    
S5    O50   D    
O60   H24   S    
O54   H22   S    
C46   C54   A    
C24   O27   S    
C45   S5    S    
O34   H14   S    
C42   C50   A    
C30   O33   S    
O1    V3    S    
C41   C49   A    
O75   H29   S    
C38   C46   A    
O3    C2    A    
O2    V4    S    
C32   O35   S    
S7    O57   S    
C16   C24   A    
O69   H27   S    
S1    O39   S    
C49   S9    S    
C20   O23   S    
C12   C52   A    
C35   C43   A    
C29   C37   A    
C34   C42   A    
S12   O72   S    
C47   S7    S    
O32   H12   S    
O11   V2    S    
C31   C39   A    
C26   O29   S    
C53   S13   S    
S7    O55   D    
C16   C56   A    
C54   S14   S    
C41   S1    S    
C11   C19   A    
O5    V1    S    
O9    V1    S    
C39   N7    S    
C20   C28   A    
O15   C7    A    
O81   H31   S    
S14   O76   D    
C21   C29   A    
O84   H32   S    
O16   C8    A    
O7    V2    S    
C55   S15   S    
S10   O65   D    
O12   C4    A    
O78   H30   S    
S16   O84   S    
C17   C25   A    
S9    O62   D    
S9    O61   D    
S6    O53   D    
S13   O74   D    
C56   S16   S    
S11   O69   S    
C23   O28   S    
S15   O79   D    
C26   C34   A    
O27   H7    S    
C52   S12   S    
C34   N2    S    
S16   O83   D    
C21   O26   S    
S5    O51   S    
O14   V4    S    
O22   H2    S    
S16   O82   D    
C30   C38   A    
S2    O42   S    
N5    N6    D    
C13   C53   A    
N1    N2    D    
C42   S2    S    
C1    C16   S    
S4    O48   S    
C2    C15   S    
S15   O80   D    
C3    C14   S    
S6    O54   S    
C38   N6    S    
O10   V2    S    
C19   O24   S    
N3    N4    D    
C44   S4    S    
O30   H10   S    
C7    C10   S    
C11   C51   A    
C22   C30   A    
C32   C40   A    
O8    C5    A    
S1    O37   D    
O13   C5    A    
S2    O41   D    
O57   H23   S    
C39   C47   A    
C37   N5    S    
C18   C26   A    
C46   S6    S    
O4    C1    A    
C9    C49   A    
S12   O70   D    
C17   O22   S    
C22   O25   S    
C10   C50   A    
C51   S11   S    
S10   O64   D    
C33   N1    S    
C12   C20   A    
C27   C35   A    
S14   O77   D    
S3    O43   D    
C50   S10   S    
S9    O63   S    
O48   H20   S    
S4    O47   D    
C15   C23   A    
O33   H13   S    
S13   O75   S    
O9    C1    A    
C24   C32   A    
O63   H25   S    
O1    C4    A    
C27   O32   S    
O6    V2    S    
O2    C3    A    
O13   V3    S    
S8    O60   S    
C43   S3    S    
C33   C41   A    
S4    O46   D    
S3    O44   D    
O36   H16   S    
O45   H19   S    
C44   C52   A    
O7    C6    A    
C14   C54   A    
O29   H9    S    
C8    C9    S    
O26   H6    S    
O51   H21   S    
C18   O21   S    
C37   C45   A    
O14   C6    A    
S14   O78   S    
S8    O59   D    
O42   H18   S    
S15   O81   S    
C9    C17   A    
C48   C56   A    
S5    O49   D    
C14   C22   A    
C4    C13   S    
C36   N4    S    
C19   C27   A    
O5    C8    A    
C28   O31   S    
O10   C2    A    
O6    C7    A    
O20   V2    S    
S7    O56   D    
O3    V4    S    
S1    O38   D    
O4    V3    S    
O72   H28   S    
C43   C51   A    
C36   C44   A    
S10   O66   S    
C28   C36   A    
O31   H11   S    
O28   H8    S    
O39   H17   S    
O21   H1    S    
O35   H15   S    
C13   C21   A    
C40   N8    S    
C29   O34   S    
C40   C48   A    
C15   C55   A    
S12   O71   D    
