data_mof_unit_13371.cif
_audit_creation_date              2012-12-10T18:56:27-0500
_audit_creation_method            fapswitch 2.2
_symmetry_space_group_name_H-M    P1
_symmetry_Int_Tables_number       1
_space_group_crystal_system       triclinic
_cell_length_a                    10.713013
_cell_length_b                    9.795964
_cell_length_c                    19.397784
_cell_angle_alpha                 89.916352
_cell_angle_beta                  90.116094
_cell_angle_gamma                 89.980036
_cell_volume                      2035.68018929

loop_
_atom_site_label
_atom_site_type_symbol
_atom_type_description
_atom_site_fract_x
_atom_site_fract_y
_atom_site_fract_z
_atom_type_partial_charge
C1    C     C_R   0.872627 0.499953 0.500060 -0.005930
C2    C     C_R   0.740258 0.499977 0.500024 0.848859
C3    C     C_R   0.500388 0.499938 0.365464 0.904300
C4    C     C_R   0.498024 0.499764 0.634512 0.902722
C5    C     C_R   0.064058 0.378700 0.514549 -0.210224
C6    C     C_R   0.935997 0.621283 0.485705 -0.205782
C7    C     C_R   0.936196 0.378653 0.514470 -0.201546
C8    C     C_R   0.063842 0.621284 0.485667 -0.203731
C9    C     C_R   0.470449 0.373427 0.745456 0.426348
C10   C     C_R   0.481165 0.621417 0.252381 0.435019
C11   C     C_R   0.513258 0.373798 0.253883 0.426046
C12   C     C_R   0.127406 0.500003 0.500091 -0.000750
C13   C     C_R   0.501578 0.621317 0.747901 0.433162
C14   C     C_R   0.468608 0.372189 0.817021 -0.289181
C15   C     C_R   0.480187 0.617770 0.180693 -0.286724
C16   C     C_R   0.503522 0.372172 0.182515 -0.287871
C17   C     C_R   0.491239 0.617917 0.819360 -0.282921
C18   C     C_R   0.477866 0.493798 0.853591 -0.027380
C19   C     C_R   0.488432 0.493623 0.145911 -0.021937
C20   C     C_R   0.598042 0.071949 0.527377 -0.096287
C21   C     C_R   0.401727 0.928057 0.472917 -0.063415
C22   C     C_R   0.401957 0.072194 0.472626 -0.097877
C23   C     C_R   0.392716 0.571744 0.964540 -0.196436
C24   C     C_R   0.598250 0.927808 0.527123 -0.069829
C25   C     C_R   0.490613 0.498333 0.709996 -0.286302
C26   C     C_R   0.498950 0.498771 0.289862 -0.285577
C27   C     C_3   0.329604 0.219964 0.704971 0.106407
C28   C     C_3   0.314354 0.081321 0.670815 -0.785380
C29   C     C_3   0.348758 0.793424 0.284087 0.079139
C30   C     C_3   0.347899 0.948716 0.285225 -0.790774
C31   C     C_3   0.659374 0.220592 0.288648 0.108089
C32   C     C_3   0.680075 0.084989 0.325213 -0.783411
C33   C     C_3   0.638780 0.791573 0.720568 0.080415
C34   C     C_R   0.567500 0.409673 0.034215 -0.198142
C35   C     C_3   0.641639 0.946740 0.717395 -0.789753
C36   C     C_R   0.395117 0.571342 0.035940 -0.198775
C37   C     C_R   0.564089 0.408982 0.962905 -0.195279
C38   C     C_R   0.483208 0.491092 0.070982 0.178276
C39   C     C_R   0.477363 0.490739 0.928138 0.169552
C40   C     C_R   0.259753 0.500009 0.500025 0.846870
H1    H     H_    0.676070 0.126556 0.549538 0.133560
H2    H     H_    0.472447 0.712766 0.152281 0.161448
H3    H     H_    0.508598 0.275275 0.155767 0.158289
H4    H     H_    0.497523 0.712335 0.848253 0.162288
H5    H     H_    0.324910 0.634439 0.937656 0.138682
H6    H     H_    0.637293 0.348789 0.060573 0.130736
H7    H     H_    0.328284 0.633194 0.063773 0.131247
H8    H     H_    0.630663 0.347260 0.934772 0.138682
H9    H     H_    0.281486 0.297803 0.672445 0.138690
H10   H     H_    0.283705 0.215231 0.756436 0.125420
H11   H     H_    0.213672 0.058656 0.663408 0.190595
H12   H     H_    0.323361 0.873457 0.451146 0.120747
H13   H     H_    0.361014 0.081145 0.619865 0.266983
H14   H     H_    0.356304 0.000544 0.703729 0.278008
H15   H     H_    0.300002 0.754716 0.330725 0.149185
H16   H     H_    0.294711 0.760625 0.237709 0.118801
H17   H     H_    0.390749 0.989080 0.237252 0.262047
H18   H     H_    0.250435 0.986567 0.288896 0.195373
H19   H     H_    0.401748 0.986867 0.330058 0.279224
H20   H     H_    0.712459 0.300843 0.316932 0.137375
H21   H     H_    0.696744 0.211418 0.235276 0.123620
H22   H     H_    0.781524 0.062358 0.328048 0.191763
H23   H     H_    0.323854 0.126997 0.450541 0.139246
H24   H     H_    0.642080 0.089656 0.378300 0.266229
H25   H     H_    0.632894 0.001627 0.296515 0.277180
H26   H     H_    0.692807 0.750063 0.676422 0.150850
H27   H     H_    0.686209 0.760282 0.769405 0.121886
H28   H     H_    0.593616 0.989967 0.763130 0.262701
H29   H     H_    0.739786 0.983105 0.716828 0.194466
H30   H     H_    0.593727 0.983429 0.670192 0.277668
H31   H     H_    0.676517 0.872990 0.549020 0.126092
H32   H     H_    0.112927 0.284570 0.526297 0.150925
H33   H     H_    0.887160 0.715469 0.474065 0.153832
H34   H     H_    0.887516 0.284471 0.526108 0.147885
H35   H     H_    0.112514 0.715434 0.473943 0.144582
H36   H     H_    0.457558 0.276001 0.844048 0.160326
N1    N     N_R   0.500000 0.857200 0.500000 -0.065366
N2    N     N_R   0.500000 0.142800 0.500000 -0.075926
O1    O     O_R   0.316770 0.614620 0.500000 -0.637623
O2    O     O_3   0.473849 0.746834 0.284859 -0.586703
O3    O     O_3   0.530487 0.251067 0.287959 -0.588979
O4    O     O_3   0.513547 0.746709 0.715678 -0.586824
O5    O     O_R   0.683230 0.385380 0.500000 -0.637020
O6    O     O_R   0.683230 0.614620 0.500000 -0.639178
O7    O     O_R   0.316770 0.385380 0.500000 -0.638512
O8    O     O_R   0.500030 0.614710 0.398180 -0.574533
O9    O     O_R   0.499970 0.385290 0.601820 -0.570604
O10   O     O_R   0.499970 0.614710 0.601820 -0.572379
O11   O     O_R   0.500030 0.385290 0.398180 -0.567912
O12   O     O_3   0.458037 0.250599 0.711019 -0.589165
Zn1   Zn    Zn3+2 0.500000 0.653120 0.500000 0.973220
Zn2   Zn    Zn3+2 0.500000 0.346880 0.500000 0.966882

loop_
_geom_bond_atom_site_label_1
_geom_bond_atom_site_label_2
_ccdc_geom_bond_type
C31   H20   S    
C23   H5    S    
C34   C37   A    
C31   H21   S    
C2    O6    A    
C9    C14   A    
C4    C25   S    
C9    C25   A    
C4    O9    A    
C11   O3    S    
C15   C19   A    
O5    Zn2   S    
C36   H7    S    
C5    H32   S    
O8    Zn1   S    
C28   H11   S    
C30   H17   S    
C27   O12   S    
C1    C2    S    
C14   C18   A    
C22   H23   S    
C20   C24   A    
C35   H30   S    
C34   H6    S    
O6    Zn1   S    
C33   O4    S    
O1    Zn1   S    
C27   H10   S    
C10   C26   A    
C1    C7    A    
O9    Zn2   S    
C3    O8    A    
C13   C25   A    
C2    O5    A    
O7    Zn2   S    
C33   H26   S    
C20   H1    S    
C7    H34   S    
C1    C6    A    
C22   N2    A    
C5    C12   A    
C5    C7    A    
C10   O2    S    
C6    C8    A    
C29   H15   S    
C11   C26   A    
N2    Zn2   S    
C13   O4    S    
C8    H35   S    
O11   Zn2   S    
C14   H36   S    
C40   O7    A    
C12   C40   S    
C18   C39   S    
C29   C30   S    
C19   C38   S    
C11   C16   A    
C31   C32   S    
O10   Zn1   S    
C8    C12   A    
C30   H19   S    
C17   C18   A    
C40   O1    A    
C37   H8    S    
C16   H3    S    
C32   H24   S    
C33   H27   S    
C6    H33   S    
N1    Zn1   S    
C28   H14   S    
C10   C15   A    
C34   C38   A    
C3    C26   S    
C15   H2    S    
C9    O12   S    
C28   H13   S    
C4    O10   A    
C29   H16   S    
C20   N2    A    
C31   O3    S    
C13   C17   A    
C3    O11   A    
C36   C38   A    
C17   H4    S    
C32   H22   S    
C37   C39   A    
C29   O2    S    
C35   H28   S    
C16   C19   A    
C23   C39   A    
C30   H18   S    
C33   C35   S    
C24   N1    A    
C35   H29   S    
C23   C36   A    
C21   N1    A    
C27   C28   S    
C21   C22   A    
C21   H12   S    
C27   H9    S    
C24   H31   S    
C32   H25   S    
