data_mof_unit_49994.cif
_audit_creation_date              2012-12-10T17:53:05-0500
_audit_creation_method            fapswitch 2.2
_symmetry_space_group_name_H-M    P1
_symmetry_Int_Tables_number       1
_space_group_crystal_system       triclinic
_cell_length_a                    14.825705
_cell_length_b                    14.689924
_cell_length_c                    27.703851
_cell_angle_alpha                 74.942201
_cell_angle_beta                  101.493396
_cell_angle_gamma                 115.650629
_cell_volume                      5226.04849367

loop_
_atom_site_label
_atom_site_type_symbol
_atom_type_description
_atom_site_fract_x
_atom_site_fract_y
_atom_site_fract_z
_atom_type_partial_charge
C1    C     C_R   0.880468 0.311435 0.510351 0.804970
C2    C     C_R   0.119532 0.688564 0.489649 0.804967
C3    C     C_R   0.989794 0.491389 0.897929 -0.049515
C4    C     C_R   0.010236 0.508654 0.102069 -0.049517
C5    C     C_R   0.020930 0.424022 0.884817 -0.080046
C6    C     C_R   0.979079 0.576002 0.115183 -0.080043
C7    C     C_R   0.045717 0.352400 0.922437 -0.230285
C8    C     C_R   0.954278 0.647617 0.077564 -0.230282
C9    C     C_R   0.952945 0.554553 0.859554 -0.011946
C10   C     C_R   0.047105 0.445503 0.140442 -0.011952
C11   C     C_R   0.992704 0.492330 0.644919 -0.054545
C12   C     C_R   0.007302 0.507678 0.355081 -0.054534
C13   C     C_R   0.038397 0.436808 0.038476 0.075555
C14   C     C_R   0.961639 0.563245 0.961521 0.075550
C15   C     C_R   0.972799 0.573160 0.012464 0.003106
C16   C     C_R   0.027226 0.426884 0.987534 0.003101
C17   C     C_R   0.006110 0.505529 0.050769 -0.007709
C18   C     C_R   0.993920 0.494518 0.949228 -0.007708
C19   C     C_R   0.086977 0.385257 0.077664 -0.118068
C20   C     C_R   0.913077 0.614810 0.922329 -0.118083
C21   C     C_R   0.087907 0.386503 0.127657 -0.167993
C22   C     C_R   0.912157 0.613568 0.872337 -0.168004
C23   C     C_R   0.998245 0.498411 0.592081 0.818979
C24   C     C_R   0.001755 0.501588 0.407919 0.818982
C25   C     C_R   0.042852 0.348414 0.973266 0.391797
C26   C     C_R   0.957156 0.651617 0.026735 0.391804
C27   C     C_R   0.812667 0.200722 0.520083 -0.109176
C28   C     C_R   0.187333 0.799278 0.479917 -0.109168
C29   C     C_R   0.773990 0.018582 0.554891 0.445019
C30   C     C_R   0.226010 0.981417 0.445107 0.445017
C31   C     C_R   0.842540 0.123238 0.551088 0.040939
C32   C     C_R   0.157461 0.876761 0.448909 0.040947
C33   C     C_R   0.713030 0.174037 0.499485 -0.277375
C34   C     C_R   0.286968 0.825963 0.500517 -0.277376
C35   C     C_R   0.639513 0.073784 0.511002 -0.029931
C36   C     C_R   0.360485 0.926215 0.489000 -0.029932
C37   C     C_R   0.671575 0.993574 0.535652 0.019497
C38   C     C_R   0.328424 0.006426 0.464349 0.019499
C39   C     C_R   0.535378 0.051735 0.496980 0.060097
C40   C     C_R   0.464620 0.948265 0.503023 0.060097
C41   C     C_R   0.500162 0.869354 0.521382 -0.329103
C42   C     C_R   0.499836 0.130646 0.478621 -0.329103
C43   C     C_R   0.601029 0.890316 0.539228 0.442158
C44   C     C_R   0.398970 0.109683 0.460774 0.442160
C45   C     C_R   0.021063 0.425811 0.833891 0.625559
C46   C     C_R   0.978940 0.574204 0.166109 0.625568
C47   C     C_R   0.689894 0.608473 0.397115 0.074467
C48   C     C_R   0.310107 0.391528 0.602885 0.074468
C49   C     C_R   0.784123 0.610469 0.419458 0.027990
C50   C     C_R   0.215878 0.389531 0.580542 0.027990
C51   C     C_R   0.719370 0.523409 0.498336 0.299562
C52   C     C_R   0.280630 0.476593 0.501663 0.299551
C53   C     C_R   0.626889 0.534227 0.479401 -0.078147
C54   C     C_R   0.373111 0.465775 0.520598 -0.078149
C55   C     C_R   0.606466 0.557399 0.426448 0.088791
C56   C     C_R   0.393535 0.442603 0.573551 0.088794
C57   C     C_R   0.550260 0.512371 0.510507 0.039606
C58   C     C_R   0.449740 0.487633 0.489492 0.039603
C59   C     C_R   0.427922 0.479780 0.438629 -0.212725
C60   C     C_R   0.572079 0.520223 0.561369 -0.212727
C61   C     C_R   0.503726 0.521035 0.406119 0.158825
C62   C     C_R   0.496275 0.478968 0.593880 0.158827
C63   C     C_R   0.953530 0.553525 0.809098 0.566729
C64   C     C_R   0.046521 0.446528 0.190899 0.566724
C65   C     C_R   0.063919 0.570421 0.718007 -0.196095
C66   C     C_R   0.936127 0.429573 0.281996 -0.196090
C67   C     C_R   0.065855 0.571408 0.668001 -0.258360
C68   C     C_R   0.934182 0.428579 0.332002 -0.258373
C69   C     C_R   0.916373 0.409352 0.672436 0.029925
C70   C     C_R   0.083612 0.590682 0.327563 0.029927
C71   C     C_R   0.913574 0.410369 0.723324 0.468948
C72   C     C_R   0.086416 0.589678 0.276672 0.468963
C73   C     C_R   0.988516 0.490615 0.745593 0.292325
C74   C     C_R   0.011506 0.509408 0.254407 0.292314
Cu1   Cu    Cu3+1 0.081740 0.475690 0.513040 0.930493
Cu2   Cu    Cu3+1 0.918260 0.524310 0.486960 0.930497
H1    H     H_    0.305760 0.766445 0.526347 0.178622
H2    H     H_    0.694237 0.233556 0.473656 0.178624
H3    H     H_    0.451060 0.789708 0.521478 0.142090
H4    H     H_    0.548938 0.210292 0.478525 0.142090
H5    H     H_    0.152776 0.355049 0.602821 0.149644
H6    H     H_    0.847225 0.644951 0.397179 0.149646
H7    H     H_    0.350735 0.442538 0.423713 0.176945
H8    H     H_    0.649265 0.557464 0.576286 0.176945
H9    H     H_    0.062296 0.295221 0.912282 0.186204
H10   H     H_    0.937684 0.704783 0.087721 0.186203
H11   H     H_    0.875473 0.365614 0.352934 0.160014
H12   H     H_    0.124583 0.634352 0.647071 0.160021
H13   H     H_    0.878833 0.368070 0.264470 0.167376
H14   H     H_    0.121237 0.631908 0.735536 0.167370
H15   H     H_    0.123225 0.342863 0.156250 0.192908
H16   H     H_    0.876855 0.657220 0.843742 0.192910
H17   H     H_    0.129370 0.346823 0.070913 0.206269
H18   H     H_    0.870689 0.653253 0.929076 0.206288
N1    N     N_R   0.988515 0.490667 0.797331 -0.443720
N2    N     N_R   0.011512 0.509364 0.202668 -0.443717
N3    N     N_R   0.795430 0.560780 0.467350 -0.195038
N4    N     N_R   0.204570 0.439220 0.532650 -0.195039
O1    O     O_R   0.977900 0.338120 0.517190 -0.564092
O2    O     O_R   0.022100 0.661880 0.482810 -0.564089
O3    O     O_R   0.839850 0.379180 0.495160 -0.595875
O4    O     O_R   0.160150 0.620820 0.504840 -0.595876
O5    O     O_R   0.069030 0.479490 0.580750 -0.585136
O6    O     O_R   0.930970 0.520510 0.419250 -0.585131
O7    O     O_R   0.930970 0.520550 0.558720 -0.571435
O8    O     O_R   0.069030 0.479450 0.441280 -0.571442
O9    O     O_2   0.053294 0.363232 0.820943 -0.523149
O10   O     O_2   0.946680 0.636759 0.179058 -0.523155
O11   O     O_2   0.081062 0.385733 0.227901 -0.530154
O12   O     O_2   0.919016 0.614338 0.772095 -0.530156
C75   C     C_3   0.842119 0.318728 0.649140 -0.896873
H19   H     H_    0.844603 0.246112 0.672952 0.253229
H20   H     H_    0.764998 0.315591 0.645768 0.236029
H21   H     H_    0.858470 0.321856 0.611343 0.221904
C76   C     C_3   0.157845 0.681311 0.350861 -0.896918
H22   H     H_    0.155316 0.753917 0.327062 0.253194
H23   H     H_    0.141510 0.678149 0.388667 0.221908
H24   H     H_    0.234979 0.684489 0.354216 0.236058
C77   C     C_3   0.056701 0.848812 0.417426 -0.828099
H25   H     H_    0.042074 0.783905 0.399342 0.234558
H26   H     H_    0.995851 0.827513 0.441234 0.245894
H27   H     H_    0.054283 0.912424 0.385897 0.243134
C78   C     C_3   0.943303 0.151186 0.582569 -0.828077
H28   H     H_    0.957929 0.216088 0.600657 0.234554
H29   H     H_    0.945726 0.087571 0.614095 0.243137
H30   H     H_    0.004150 0.172492 0.558758 0.245894
O13   O     O_3   0.805040 0.940290 0.578391 -0.657748
H31   H     H_    0.875263 0.962059 0.571494 0.326558
O14   O     O_3   0.194961 0.059709 0.421605 -0.657751
H32   H     H_    0.124735 0.037938 0.428497 0.326560
C79   C     C_3   0.470810 0.510908 0.351865 -0.811388
H33   H     H_    0.389251 0.462269 0.345801 0.242702
H34   H     H_    0.483263 0.587177 0.327339 0.237980
H35   H     H_    0.511080 0.472829 0.340267 0.239411
C80   C     C_3   0.529190 0.489097 0.648134 -0.811413
H36   H     H_    0.610749 0.537738 0.654198 0.242699
H37   H     H_    0.488918 0.527173 0.659732 0.239415
H38   H     H_    0.516740 0.412828 0.672660 0.237976
C81   C     C_3   0.274551 0.546037 0.451114 -0.773711
H39   H     H_    0.349740 0.600453 0.439266 0.195427
H40   H     H_    0.231433 0.499783 0.421876 0.234666
H41   H     H_    0.241783 0.599169 0.451893 0.264621
C82   C     C_3   0.725447 0.453964 0.548885 -0.773752
H42   H     H_    0.768566 0.500218 0.578123 0.234668
H43   H     H_    0.650259 0.399548 0.560733 0.195427
H44   H     H_    0.758215 0.400832 0.548105 0.264628
C83   C     C_3   0.684678 0.667832 0.344061 -0.846094
H45   H     H_    0.760635 0.724033 0.333573 0.229691
H46   H     H_    0.653603 0.615371 0.316919 0.247330
H47   H     H_    0.639583 0.713350 0.340611 0.244336
C84   C     C_3   0.315325 0.332169 0.655938 -0.846094
H48   H     H_    0.239368 0.275965 0.666426 0.229693
H49   H     H_    0.360423 0.286654 0.659388 0.244336
H50   H     H_    0.346397 0.384629 0.683081 0.247328
O15   O     O_3   0.840830 0.334868 0.753059 -0.713100
H51   H     H_    0.786023 0.289270 0.732551 0.336260
O16   O     O_3   0.159134 0.665208 0.246932 -0.713104
H52   H     H_    0.213890 0.710878 0.267429 0.336277
O17   O     O_3   0.045404 0.263028 0.008306 -0.744465
H53   H     H_    0.054925 0.215747 0.991891 0.333268
O18   O     O_3   0.954600 0.737006 0.991699 -0.744477
H54   H     H_    0.945058 0.784271 0.008116 0.333269
O19   O     O_3   0.631667 0.810310 0.559008 -0.660311
H55   H     H_    0.573041 0.743251 0.559210 0.319039
O20   O     O_3   0.368331 0.189690 0.440994 -0.660311
H56   H     H_    0.426957 0.256749 0.440793 0.319039

loop_
_geom_bond_atom_site_label_1
_geom_bond_atom_site_label_2
_ccdc_geom_bond_type
C51   N3    A    
C82   H44   S    
C66   C68   A    
Cu2   O6    S    
O20   H56   S    
C80   H38   S    
C72   C74   A    
C8    C26   A    
C14   C18   A    
C75   H19   S    
C79   H35   S    
C1    O1    A    
O18   H54   S    
C64   O11   S    
C78   H28   S    
C47   C49   A    
C79   H34   S    
C27   C33   A    
C42   H4    S    
C12   C68   A    
C67   H12   S    
O16   H52   S    
C35   C37   A    
C59   H7    S    
C34   H1    S    
C54   C58   A    
C60   H8    S    
C81   H41   S    
C9    C22   A    
C78   H29   S    
C29   C37   A    
C2    O4    A    
C82   H42   S    
C23   O7    A    
C63   N1    A    
C16   C25   A    
C52   C81   S    
C65   C73   A    
C30   C38   A    
C3    C18   A    
C60   C62   A    
C84   H50   S    
C11   C23   S    
C69   C71   A    
C12   C70   A    
C83   H45   S    
C33   H2    S    
C82   H43   S    
O19   H55   S    
C52   C54   A    
C76   H23   S    
C46   O10   S    
C25   O17   S    
Cu1   O4    S    
C84   H48   S    
C39   C42   A    
C8    H10   S    
C19   H17   S    
C3    C5    A    
C48   C50   A    
C28   C34   A    
C80   H37   S    
Cu1   O5    S    
C41   C43   A    
C42   C44   A    
C28   C32   A    
C11   C67   A    
C66   H13   S    
C54   C56   A    
C53   C55   A    
C10   C21   A    
C65   H14   S    
C47   C83   S    
C59   C61   A    
C50   N4    A    
C13   C19   A    
C27   C31   A    
C14   C20   A    
C80   H36   S    
C83   H47   S    
C64   N2    A    
C62   C80   S    
C4    C6    A    
C39   C40   A    
C5    C7    A    
C53   C57   A    
C15   C26   A    
C6    C8    A    
C65   C67   A    
C58   C59   A    
C5    C45   A    
Cu1   N4    S    
C72   O16   S    
C78   H30   S    
C24   O6    A    
C49   H6    S    
C37   C43   A    
C35   C39   A    
Cu1   Cu2   S    
C38   C44   A    
C3    C9    A    
C74   N2    S    
O17   H53   S    
C2    O2    A    
C36   C40   A    
C77   H25   S    
C76   H24   S    
C71   O15   S    
Cu1   O1    S    
C75   H20   S    
C77   H26   S    
C4    C17   A    
C23   O5    A    
C40   C41   A    
C20   C22   A    
C29   O13   S    
C56   C62   A    
C48   C84   S    
C24   O8    A    
C73   N1    S    
C32   C77   S    
C4    C10   A    
O13   H31   S    
C45   N1    A    
C1    O3    A    
C47   C55   A    
O14   H32   S    
C21   H15   S    
C77   H27   S    
Cu2   O3    S    
C48   C56   A    
C20   H18   S    
C6    C46   A    
C19   C21   A    
C9    C63   A    
C10   C64   A    
C57   C60   A    
C41   H3    S    
C2    C28   S    
C81   H39   S    
C11   C69   A    
C15   C17   A    
C51   C82   S    
C70   C76   S    
Cu2   O2    S    
C30   O14   S    
C83   H46   S    
C12   C24   S    
C26   O18   S    
C7    C25   A    
C13   C17   A    
C63   O12   S    
C36   C38   A    
Cu2   N3    S    
C31   C78   S    
C29   C31   A    
C30   C32   A    
C81   H40   S    
C57   C58   A    
C7    H9    S    
C55   C61   A    
C52   N4    A    
C33   C35   A    
C75   H21   S    
C34   C36   A    
C44   O20   S    
C84   H49   S    
C79   H33   S    
C69   C75   S    
C61   C79   S    
C49   N3    A    
C45   O9    S    
C46   N2    A    
Cu1   O8    S    
C16   C18   A    
C13   C16   A    
C71   C73   A    
O15   H51   S    
C1    C27   S    
C68   H11   S    
C22   H16   S    
C14   C15   A    
C70   C72   A    
C51   C53   A    
Cu2   O7    S    
C76   H22   S    
C50   H5    S    
C43   O19   S    
C66   C74   A    
