data_mof_unit_58976.cif
_audit_creation_date              2013-03-05T15:47:47-0500
_audit_creation_method            fapswitch 2.2
_symmetry_space_group_name_H-M    P1
_symmetry_Int_Tables_number       1
_space_group_crystal_system       triclinic
_cell_length_a                    21.772365
_cell_length_b                    7.199431
_cell_length_c                    18.62288
_cell_angle_alpha                 91.598505
_cell_angle_beta                  95.852188
_cell_angle_gamma                 90.80998
_cell_volume                      2902.34409975

loop_
_atom_site_label
_atom_site_type_symbol
_atom_site_description
_atom_site_fract_x
_atom_site_fract_y
_atom_site_fract_z
_atom_type_partial_charge
O1    O     O_R   0.449650 0.506500 0.414480 -0.578962
O2    O     O_R   0.550350 0.006500 0.585520 -0.585550
O3    O     O_R   0.432010 0.173150 0.560250 -0.589824
O4    O     O_R   0.567990 0.673150 0.439750 -0.591890
C1    C     C_R   0.416413 0.345267 0.580986 0.919444
C2    C     C_R   0.584051 0.843996 0.419619 0.915859
O5    O     O_R   0.442320 0.176650 0.413480 -0.584447
O6    O     O_R   0.557680 0.676650 0.586520 -0.584466
O7    O     O_R   0.560730 0.008380 0.437700 -0.581477
O8    O     O_R   0.439270 0.508380 0.562300 -0.596658
C3    C     C_R   0.427779 0.342240 0.387951 0.933569
C4    C     C_R   0.570489 0.849007 0.612978 0.928373
O9    O     O_3   0.538840 0.339860 0.508120 -0.281184
O10   O     O_3   0.461160 0.839860 0.491880 -0.283263
V1    V     V_3+5 0.492800 0.064220 0.498490 1.177753
V2    V     V_3+5 0.507200 0.564220 0.501510 1.172174
C5    C     C_R   0.868077 0.798108 0.695461 -0.234496
C6    C     C_R   0.132055 0.506464 0.311936 -0.239551
H1    H     H_    0.886216 0.734812 0.648636 0.187449
H2    H     H_    0.114745 0.548426 0.362396 0.186708
C7    C     C_R   0.886056 0.920769 0.818984 -0.418127
C8    C     C_R   0.113747 0.451990 0.181860 -0.419828
C9    C     C_R   0.584295 0.976610 0.736672 -0.242274
C10   C     C_R   0.407744 0.251420 0.259515 -0.259533
C11   C     C_R   0.621190 0.069354 0.792656 0.389402
C12   C     C_R   0.368512 0.206062 0.197061 0.388530
C13   C     C_R   0.685499 0.055495 0.795572 -0.195875
C14   C     C_R   0.306029 0.252850 0.194110 -0.190277
C15   C     C_R   0.713870 0.935833 0.747936 0.080917
C16   C     C_R   0.282168 0.354388 0.250735 0.076128
C17   C     C_R   0.675560 0.856837 0.687194 0.112447
C18   C     C_R   0.321967 0.385749 0.316322 0.111668
C19   C     C_R   0.779565 0.904895 0.755016 -0.015027
C20   C     C_R   0.218541 0.411097 0.246385 -0.010604
C21   C     C_R   0.804776 0.821965 0.694789 0.085589
C22   C     C_R   0.194707 0.467224 0.311371 0.086684
C23   C     C_R   0.766764 0.757051 0.633911 -0.135524
C24   C     C_R   0.233774 0.488768 0.375811 -0.136629
C25   C     C_R   0.703223 0.769039 0.630997 -0.215959
C26   C     C_R   0.296621 0.454699 0.377792 -0.201536
C27   C     C_R   0.821072 0.946572 0.819299 0.240094
C28   C     C_R   0.178062 0.418489 0.180321 0.225574
C29   C     C_R   0.908752 0.844436 0.756086 0.351737
C30   C     C_R   0.091247 0.498113 0.248729 0.345565
C31   C     C_R   0.610536 0.878340 0.681776 -0.220656
C32   C     C_R   0.385419 0.336526 0.319910 -0.222409
H3    H     H_    0.676064 0.712120 0.583351 0.129938
H4    H     H_    0.324832 0.476741 0.428731 0.116126
C33   C     C_R   0.633298 0.733879 0.310408 -0.168125
C34   C     C_R   0.367812 0.510806 0.679835 -0.152758
C35   C     C_R   0.633941 0.853677 0.371213 -0.148485
C36   C     C_R   0.367439 0.359713 0.630377 -0.151081
C37   C     C_R   0.681283 0.988406 0.384103 -0.199322
C38   C     C_R   0.318804 0.229108 0.626493 -0.214539
C39   C     C_R   0.727838 0.002698 0.337295 0.119337
C40   C     C_R   0.270323 0.251497 0.670243 0.122644
C41   C     C_R   0.726356 0.885992 0.275139 0.102155
C42   C     C_R   0.271042 0.401956 0.720408 0.107855
C43   C     C_R   0.678436 0.751780 0.261813 0.106106
C44   C     C_R   0.320409 0.531425 0.724997 0.101940
C45   C     C_R   0.776600 0.129130 0.353108 -0.309029
C46   C     C_R   0.219875 0.129838 0.661954 -0.316150
C47   C     C_R   0.824553 0.141545 0.308741 0.368917
C48   C     C_R   0.169761 0.154614 0.702334 0.387222
C49   C     C_R   0.821785 0.035379 0.242339 -0.133388
C50   C     C_R   0.171797 0.295524 0.758235 -0.098923
C51   C     C_R   0.772560 0.903290 0.226640 -0.031151
C52   C     C_R   0.222627 0.422901 0.765684 -0.033795
C53   C     C_R   0.769500 0.786410 0.163442 -0.123756
C54   C     C_R   0.225752 0.570685 0.818157 -0.110678
C55   C     C_R   0.717470 0.662913 0.148158 0.359550
C56   C     C_R   0.273820 0.708062 0.817793 0.384235
C57   C     C_R   0.674686 0.641967 0.198737 -0.279993
C58   C     C_R   0.320839 0.683808 0.772698 -0.290417
C59   C     C_R   0.866151 0.056556 0.191586 0.340942
C60   C     C_R   0.125930 0.310411 0.807458 0.370926
C61   C     C_R   0.864871 0.936562 0.129819 -0.396853
C62   C     C_R   0.131831 0.445389 0.864945 -0.398136
C63   C     C_R   0.818515 0.794239 0.118275 0.347237
C64   C     C_R   0.182746 0.573106 0.870932 0.347613
O11   O     O_R   0.060820 0.290050 0.937800 -0.559394
O12   O     O_R   0.939180 0.790050 0.062200 -0.557392
O13   O     O_R   0.057690 0.616620 0.086540 -0.579577
O14   O     O_R   0.942310 0.116620 0.913460 -0.555672
C65   C     C_R   0.071156 0.451633 0.113396 1.096584
C66   C     C_R   0.928862 0.944922 0.886853 1.096148
O15   O     O_R   0.068010 0.619890 0.939770 -0.541081
O16   O     O_R   0.931990 0.119890 0.060230 -0.552313
O17   O     O_R   0.949640 0.787940 0.914460 -0.566917
O18   O     O_R   0.050360 0.287940 0.085540 -0.570392
C67   C     C_R   0.084403 0.451565 0.918602 1.072153
C68   C     C_R   0.915148 0.950647 0.080403 1.070181
O19   O     O_3   0.961210 0.453080 0.991940 -0.257810
O20   O     O_3   0.038790 0.953080 0.008060 -0.263387
V3    V     V_3+5 0.007200 0.728820 0.001500 1.399011
V4    V     V_3+5 0.992800 0.228820 0.998500 1.400873
N1    N     N_R   0.972792 0.803843 0.752683 0.265478
O21   O     O_R   0.000973 0.695010 0.799328 -0.352747
O22   O     O_R   0.996516 0.827165 0.692243 -0.257530
N2    N     N_R   0.027773 0.545646 0.253834 0.265972
O23   O     O_R   0.998863 0.651936 0.206698 -0.355702
O24   O     O_R   0.002469 0.511662 0.312564 -0.254317
H5    H     H_    0.682368 0.080299 0.431390 0.133505
H6    H     H_    0.317514 0.113898 0.587559 0.140237
H7    H     H_    0.779257 0.213059 0.402641 0.173593
H8    H     H_    0.217782 0.019346 0.620926 0.171558
N3    N     N_R   0.877806 0.250299 0.336269 0.271211
O25   O     O_R   0.871065 0.420240 0.359474 -0.321206
O26   O     O_R   0.929420 0.166917 0.354697 -0.277179
N4    N     N_R   0.116001 0.042227 0.681468 0.268267
O27   O     O_R   0.067342 0.120574 0.649996 -0.285480
O28   O     O_R   0.121511 0.863044 0.674337 -0.322961
N5    N     N_R   0.913844 0.196811 0.203006 0.255824
O29   O     O_R   0.899706 0.371561 0.201259 -0.294534
O30   O     O_R   0.971614 0.150108 0.211357 -0.358441
N6    N     N_R   0.075291 0.180125 0.802793 0.246138
O31   O     O_R   0.019262 0.236287 0.785889 -0.358499
O32   O     O_R   0.084149 0.013912 0.827035 -0.301452
N7    N     N_R   0.824150 0.648909 0.064676 0.263705
O33   O     O_R   0.829814 0.687887 0.997952 -0.321917
O34   O     O_R   0.826151 0.476089 0.083192 -0.308413
N8    N     N_R   0.197861 0.678422 0.937262 0.250165
O35   O     O_R   0.251375 0.655507 0.973443 -0.254562
O36   O     O_R   0.165547 0.821609 0.953233 -0.273873
N9    N     N_R   0.703285 0.571117 0.078955 0.270976
O37   O     O_R   0.684607 0.398263 0.075025 -0.289372
O38   O     O_R   0.696489 0.669260 0.021167 -0.248026
N10   N     N_R   0.273394 0.880920 0.857987 0.263131
O39   O     O_R   0.324689 0.951476 0.890107 -0.269950
O40   O     O_R   0.225078 0.985094 0.849975 -0.358141
H9    H     H_    0.636051 0.545596 0.186600 0.188297
H10   H     H_    0.357157 0.788710 0.773398 0.181569
H11   H     H_    0.786366 0.691638 0.588500 0.147193
H12   H     H_    0.215676 0.535701 0.425193 0.143203
N11   N     N_R   0.797575 0.984665 0.887444 0.222215
O41   O     O_R   0.754585 0.878259 0.908770 -0.285694
O42   O     O_R   0.816932 0.129831 0.926954 -0.352673
N12   N     N_R   0.203509 0.430793 0.112559 0.223806
O43   O     O_R   0.181869 0.327836 0.056911 -0.390054
O44   O     O_R   0.249365 0.545419 0.106963 -0.301259
H13   H     H_    0.534698 0.994307 0.732054 0.167606
H14   H     H_    0.455758 0.211690 0.262750 0.170469
H15   H     H_    0.712780 0.146426 0.833493 0.208852
H16   H     H_    0.275897 0.200347 0.148388 0.210385
N13   N     N_R   0.593527 0.184810 0.844618 0.256233
O45   O     O_R   0.627522 0.268398 0.897775 -0.262893
O46   O     O_R   0.533958 0.205294 0.839934 -0.338550
N14   N     N_R   0.391711 0.107263 0.137338 0.259790
O47   O     O_R   0.355734 0.066865 0.078627 -0.253657
O48   O     O_R   0.449231 0.058242 0.140790 -0.337075
H17   H     H_    0.596339 0.631213 0.299579 0.138206
H18   H     H_    0.405238 0.612751 0.683311 0.141757

loop_
_geom_bond_atom_site_label_1
_geom_bond_atom_site_label_2
_geom_bond_distance
_ccdc_geom_bond_type
O14   C66   1.336139 A    
C50   C52   1.420512 A    
O16   V4    2.005200 S    
C61   C68   1.504306 S    
O4    V2    2.005251 S    
C9    C31   1.400831 A    
O15   C67   1.328763 A    
C13   C15   1.412401 A    
O1    C3    1.331475 A    
O2    C4    1.319119 A    
N10   O39   1.301487 A    
C2    O7    1.342174 A    
C57   H9    1.084444 S    
N13   O45   1.301806 A    
N11   O41   1.301220 A    
C64   N8    1.437654 S    
O5    C3    1.326307 A    
C56   N10   1.434883 S    
C38   H6    1.084488 S    
C21   C23   1.398871 A    
C60   C62   1.420324 A    
C58   H10   1.084553 S    
C47   C49   1.431004 A    
C62   C64   1.423720 A    
C41   C43   1.410349 A    
C28   N12   1.433413 S    
C42   C44   1.407091 A    
C15   C19   1.443974 A    
O12   C68   1.325487 A    
N6    O31   1.301309 A    
C45   C47   1.399332 A    
O14   V4    1.979269 S    
C8    C65   1.498059 S    
C34   C36   1.404995 A    
C53   C55   1.430538 A    
C26   H4    1.082753 S    
N4    O27   1.301064 A    
C46   C48   1.397551 A    
C60   N6    1.431662 S    
C7    C29   1.417045 A    
C8    C30   1.416661 A    
O16   C68   1.342095 A    
C10   H14   1.083911 S    
C20   C28   1.441210 A    
C33   C35   1.402944 A    
O15   V3    1.994727 S    
C13   H15   1.075990 S    
N3    O25   1.301419 A    
C1    C36   1.480408 S    
C59   N5    1.434026 S    
C2    C35   1.482695 S    
C45   H7    1.084622 S    
C43   C57   1.392230 A    
C20   C22   1.415584 A    
C33   C43   1.409153 A    
C40   C46   1.388560 A    
C61   C63   1.424416 A    
C50   C60   1.425930 A    
O6    V2    1.979387 S    
C24   C26   1.390508 A    
N3    O26   1.301123 A    
C41   C51   1.425229 A    
N1    O22   1.299432 A    
C36   C38   1.401098 A    
N1    O21   1.299170 A    
C37   C39   1.407165 A    
C65   O18   1.328863 A    
C38   C40   1.406004 A    
C16   C20   1.444742 A    
C54   C64   1.424839 A    
N14   O47   1.301826 A    
C56   C58   1.398538 A    
C55   C57   1.400208 A    
O11   V4    2.004024 S    
C33   H17   1.084570 S    
O5    V1    2.027624 S    
C49   C51   1.424860 A    
C40   C42   1.409409 A    
C63   N7    1.440991 S    
C51   C53   1.422962 A    
C48   C50   1.430128 A    
O17   V3    2.004614 S    
C5    C29   1.391736 A    
C19   C21   1.418877 A    
C6    C30   1.399944 A    
C48   N4    1.427810 S    
O6    C4    1.337314 A    
O13   V3    2.027427 S    
N2    O24   1.301387 A    
O1    V2    1.975624 S    
C12   N14   1.441754 S    
O2    V1    2.001920 S    
C59   C61   1.416890 A    
N7    O34   1.300486 A    
N12   O44   1.300540 A    
N6    O32   1.300719 A    
C14   H16   1.076756 S    
C42   C52   1.422488 A    
O13   C65   1.326679 A    
O19   V4    1.766351 S    
C39   C41   1.408623 A    
N9    O37   1.301510 A    
C7    C27   1.430192 A    
C53   C63   1.426032 A    
O4    C2    1.347602 A    
C47   N3    1.432080 S    
C22   C24   1.401942 A    
C27   N11   1.436788 S    
C18   C26   1.402232 A    
O3    V1    1.994762 S    
C25   H3    1.082018 S    
N5    O29   1.299933 A    
N11   O42   1.301030 A    
C7    C66   1.496417 S    
O12   V3    1.999356 S    
C18   C32   1.426517 A    
C55   N9    1.434770 S    
C29   N1    1.435973 S    
N14   O48   1.301708 A    
C4    C31   1.482633 S    
O3    C1    1.346056 A    
C66   O17   1.321256 A    
N10   O40   1.299205 A    
C11   N13   1.441601 S    
N7    O33   1.299126 A    
O18   V4    1.977709 S    
C46   H8    1.084714 S    
C62   C67   1.508672 S    
C11   C13   1.400748 A    
C12   C14   1.402117 A    
C49   C59   1.428175 A    
C19   C27   1.446198 A    
C14   C16   1.412699 A    
O7    V1    1.990861 S    
C34   C44   1.403178 A    
C1    O8    1.337673 A    
C15   C17   1.434248 A    
O8    V2    1.995168 S    
C16   C18   1.434212 A    
C30   N2    1.440273 S    
C10   C12   1.399045 A    
C8    C28   1.427289 A    
C6    C22   1.397956 A    
C37   H5    1.084698 S    
N13   O46   1.301732 A    
C39   C45   1.391516 A    
C44   C58   1.391561 A    
N2    O23   1.300269 A    
C5    H1    1.084981 S    
C17   C25   1.399982 A    
C6    H2    1.084415 S    
C24   H12   1.084201 S    
O20   V3    1.742181 S    
C23   H11   1.084505 S    
N4    O28   1.301628 A    
N12   O43   1.301182 A    
O11   C67   1.336911 A    
C34   H18   1.084693 S    
C9    C11   1.397599 A    
C23   C25   1.382987 A    
C17   C31   1.419985 A    
O9    V2    1.767497 S    
N9    O38   1.300863 A    
C52   C54   1.420539 A    
O10   V1    1.743255 S    
C9    H13   1.084088 S    
C3    C32   1.488484 S    
C54   C56   1.430412 A    
C5    C21   1.390110 A    
C35   C37   1.403269 A    
N8    O35   1.300111 A    
N8    O36   1.300847 A    
C10   C32   1.399331 A    
N5    O30   1.301647 A    
