data_mof_unit_45972.cif
_audit_creation_date              2012-12-11T17:07:24-0500
_audit_creation_method            fapswitch 2.2
_symmetry_space_group_name_H-M    P1
_symmetry_Int_Tables_number       1
_space_group_crystal_system       triclinic
_cell_length_a                    6.986057
_cell_length_b                    14.614161
_cell_length_c                    15.985622
_cell_angle_alpha                 89.988295
_cell_angle_beta                  89.966408
_cell_angle_gamma                 89.927396
_cell_volume                      1632.0562363

loop_
_atom_site_label
_atom_site_type_symbol
_atom_type_description
_atom_site_fract_x
_atom_site_fract_y
_atom_site_fract_z
_atom_type_partial_charge
O1    O     O_R   0.505720 0.583900 0.413310 -0.538638
O2    O     O_R   0.175940 0.594920 0.586080 -0.541345
O3    O     O_R   0.005640 0.416100 0.586690 -0.539671
C1    C     C_R   0.344640 0.617426 0.614331 0.693281
O4    O     O_R   0.176000 0.594930 0.413930 -0.525465
O5    O     O_R   0.005700 0.416110 0.413310 -0.525987
C2    C     C_R   0.344715 0.616637 0.385060 0.704725
O6    O     O_R   0.505660 0.583890 0.586690 -0.545214
O7    O     O_3   0.339200 0.441330 0.500000 -0.363575
V1    V     V_3+5 0.064350 0.510880 0.500000 1.489535
O8    O     O_R   0.675980 0.405080 0.413920 -0.539631
C3    C     C_R   0.844835 0.383458 0.385004 0.721995
O9    O     O_R   0.675920 0.405070 0.586070 -0.542721
C4    C     C_R   0.845286 0.384168 0.615422 0.677215
V2    V     V_3+5 0.564340 0.489120 0.500000 1.459409
O10   O     O_3   0.839360 0.558670 0.500000 -0.365288
C5    C     C_R   0.934665 0.436186 0.787221 -0.301990
C6    C     C_R   0.986569 0.463525 0.868137 0.415767
C7    C     C_R   0.991599 0.397961 0.932981 0.418634
C8    C     C_R   0.945475 0.306985 0.915098 -0.297679
C9    C     C_R   0.908230 0.277526 0.832778 0.007500
C10   C     C_R   0.899828 0.343371 0.767423 -0.001252
C11   C     C_R   0.879676 0.183621 0.815451 -0.131019
C12   C     C_R   0.852416 0.154839 0.731686 0.066659
C13   C     C_R   0.846423 0.220435 0.665747 0.064744
C14   C     C_R   0.859373 0.315287 0.684058 -0.124710
C15   C     C_R   0.838479 0.060873 0.711752 -0.169754
C16   C     C_R   0.829715 0.031771 0.628910 -0.148886
C17   C     C_R   0.833443 0.095382 0.564030 0.011258
C18   C     C_R   0.837618 0.188993 0.582102 -0.197463
H1    H     H_    0.926384 0.488694 0.739593 0.133529
H2    H     H_    0.939547 0.259601 0.967014 0.133413
H3    H     H_    0.839852 0.008797 0.759833 0.099119
H4    H     H_    0.824423 0.959192 0.615465 0.136533
H5    H     H_    0.841099 0.236626 0.530215 0.095790
C19   C     C_R   0.723208 0.184858 0.240614 0.064245
C20   C     C_R   0.881010 0.181426 0.186466 -0.092057
C21   C     C_R   0.034056 0.240855 0.203627 -0.144659
H6    H     H_    0.160320 0.239197 0.165127 0.116582
C22   C     C_R   0.020913 0.307078 0.267230 -0.070948
H7    H     H_    0.136125 0.355780 0.274445 0.136007
C23   C     C_R   0.857334 0.313409 0.318266 -0.169607
C24   C     C_R   0.712424 0.248822 0.305605 0.023869
C25   C     C_3   0.503471 0.264795 0.288654 0.326338
C26   C     C_3   0.516349 0.193662 0.219321 -0.457003
H8    H     H_    0.477317 0.334804 0.263828 0.048972
H9    H     H_    0.494825 0.222966 0.155803 0.133476
H10   H     H_    0.435588 0.129614 0.231719 0.184427
C27   C     C_R   0.514313 0.745036 0.689744 0.004662
C28   C     C_R   0.352787 0.689820 0.679205 -0.101954
C29   C     C_R   0.197705 0.705648 0.733379 -0.127601
H11   H     H_    0.073938 0.661836 0.730529 0.159416
C30   C     C_R   0.208024 0.772613 0.796682 -0.194606
H12   H     H_    0.092395 0.780051 0.840187 0.202660
C31   C     C_R   0.376383 0.821841 0.811577 -0.123263
C32   C     C_R   0.527490 0.806822 0.756341 -0.001067
C33   C     C_3   0.731652 0.780837 0.771847 0.297281
C34   C     C_3   0.718493 0.716968 0.696167 -0.290221
H13   H     H_    0.827219 0.840559 0.761706 0.059352
H14   H     H_    0.739391 0.642986 0.709366 0.137908
C35   C     C_R   0.503343 0.680527 0.256404 -0.001106
C36   C     C_R   0.352394 0.681829 0.314136 -0.135968
C37   C     C_R   0.202528 0.744385 0.299433 -0.095602
H15   H     H_    0.081277 0.747110 0.341403 0.139473
C38   C     C_R   0.213731 0.808463 0.233734 -0.170863
H16   H     H_    0.100220 0.858333 0.227067 0.129285
C39   C     C_R   0.375688 0.812344 0.181064 -0.086807
C40   C     C_R   0.515750 0.744686 0.191968 0.010568
C41   C     C_3   0.727817 0.753580 0.199918 -0.439421
C42   C     C_3   0.715946 0.684052 0.270861 0.349813
H17   H     H_    0.770318 0.822948 0.221343 0.142876
H18   H     H_    0.804437 0.728572 0.143401 0.191936
H19   H     H_    0.750463 0.714371 0.332802 0.085043
O11   O     O_R   0.229140 0.916090 0.913340 -0.541855
O12   O     O_R   0.558860 0.905090 0.086080 -0.536678
O13   O     O_R   0.729100 0.083920 0.086690 -0.537188
C43   C     C_R   0.389810 0.882922 0.114666 0.699026
O14   O     O_R   0.558860 0.905090 0.913930 -0.526487
O15   O     O_R   0.729100 0.083920 0.913310 -0.538754
C44   C     C_R   0.390075 0.885172 0.883755 0.702980
O16   O     O_R   0.229140 0.916080 0.086720 -0.540872
O17   O     O_3   0.395570 0.058660 0.000020 -0.374484
V3    V     V_3+5 0.670450 0.989140 0.000000 1.442013
O18   O     O_R   0.058810 0.094980 0.913910 -0.539403
C45   C     C_R   0.890055 0.115171 0.884257 0.691817
O19   O     O_R   0.058810 0.094980 0.086060 -0.548377
C46   C     C_R   0.889843 0.116361 0.115267 0.692134
V4    V     V_3+5 0.170450 0.010950 0.999970 1.413539
O20   O     O_3   0.895460 0.941370 0.999990 -0.362493
C47   C     C_1   0.840547 0.064224 0.478595 0.267011
N1    N     N_1   0.847264 0.039035 0.410020 -0.372466
O21   O     O_3   0.369196 0.242504 0.352828 -0.542562
C48   C     C_3   0.433101 0.175513 0.409934 -0.133460
H20   H     H_    0.547489 0.203765 0.450381 0.125287
H21   H     H_    0.481276 0.112240 0.377755 0.141430
H22   H     H_    0.311744 0.156542 0.451190 0.151165
O22   O     O_3   0.774667 0.736056 0.849348 -0.540421
C49   C     C_3   0.635361 0.674117 0.879674 -0.119066
H23   H     H_    0.562198 0.634560 0.829947 0.111416
H24   H     H_    0.531535 0.710770 0.919812 0.098148
H25   H     H_    0.705524 0.624193 0.921677 0.182485
C50   C     C_1   0.825609 0.749420 0.622587 0.301990
N2    N     N_1   0.909670 0.774813 0.564668 -0.359918
O23   O     O_3   0.826067 0.603263 0.255864 -0.543147
C51   C     C_3   0.736083 0.538848 0.202957 -0.187062
H26   H     H_    0.693041 0.569786 0.142285 0.138363
H27   H     H_    0.611191 0.507165 0.234818 0.109308
H28   H     H_    0.839655 0.483305 0.189000 0.168310
O24   O     O_3   0.013639 0.556263 0.882107 -0.549819
C52   C     C_3   0.189861 0.573303 0.922051 -0.201620
H29   H     H_    0.307812 0.529037 0.898147 0.094947
H30   H     H_    0.175030 0.569039 0.990938 0.186812
H31   H     H_    0.230274 0.644791 0.909856 0.143105
O25   O     O_3   0.021358 0.424229 0.015132 -0.554327
C53   C     C_3   0.197326 0.387522 0.043330 -0.308019
H32   H     H_    0.319888 0.414337 0.006403 0.130531
H33   H     H_    0.199635 0.311662 0.040864 0.138524
H34   H     H_    0.219169 0.408389 0.109364 0.157885

loop_
_geom_bond_atom_site_label_1
_geom_bond_atom_site_label_2
_ccdc_geom_bond_type
C35   C42   S    
C21   C22   A    
C31   C32   A    
C37   C38   A    
C48   H20   S    
C7    C8    A    
C39   C43   S    
C6    O24   S    
C1    O6    A    
O25   C53   S    
C47   N1    T    
C30   H12   S    
C15   H3    S    
C51   H27   S    
C17   C18   A    
C18   H5    S    
C16   C17   A    
C41   C42   S    
O5    C3    A    
C21   H6    S    
O14   C44   A    
C33   H13   S    
C38   C39   A    
C34   H14   S    
C53   H32   S    
C32   C33   S    
C6    C7    A    
C41   H17   S    
C52   H29   S    
O23   C51   S    
C3    C23   S    
O8    V2    S    
O14   V3    S    
C40   C41   S    
C53   H33   S    
C11   C12   A    
C12   C15   A    
C34   C50   S    
O7    V1    S    
C25   O21   S    
V4    O20   S    
C30   C31   A    
C16   H4    S    
C48   H21   S    
O11   C44   A    
O9    C4    A    
C50   N2    T    
C42   H19   S    
O13   V3    S    
C17   C47   S    
C25   H8    S    
O22   C49   S    
C26   H9    S    
V3    O20   S    
C51   H28   S    
O19   V4    S    
C39   C40   A    
C12   C13   A    
O4    C2    A    
O19   C46   A    
C7    O25   S    
C28   C29   A    
C13   C14   A    
O17   V3    S    
C4    C14   S    
C27   C34   S    
C29   H11   S    
C1    C28   S    
C29   C30   A    
C41   H18   S    
O2    C1    A    
C24   C25   S    
C2    C36   S    
C20   C21   A    
C52   H31   S    
C43   O16   A    
C53   H34   S    
C33   O22   S    
C36   C37   A    
C5    C6    A    
C19   C26   S    
O18   C45   A    
O12   C43   A    
O13   C46   A    
O3    C4    A    
O1    V2    S    
C22   H7    S    
C38   H16   S    
O6    V2    S    
C49   H24   S    
C9    C11   A    
C10   C14   A    
C5    H1    S    
C27   C28   A    
C23   C24   A    
C27   C32   A    
O15   C45   A    
C25   C26   S    
C8    H2    S    
C26   H10   S    
C13   C18   A    
C19   C20   A    
O1    C2    A    
C20   C46   S    
O18   V4    S    
O5    V1    S    
O8    C3    A    
C48   H22   S    
C49   H25   S    
C51   H26   S    
C5    C10   A    
O9    V2    S    
O7    V2    S    
O4    V1    S    
O3    V1    S    
V1    O10   S    
O24   C52   S    
O15   V3    S    
C31   C44   S    
C35   C40   A    
O12   V3    S    
C33   C34   S    
O17   V4    S    
C22   C23   A    
O21   C48   S    
C42   O23   S    
C35   C36   A    
C52   H30   S    
O16   V4    S    
C37   H15   S    
C8    C9    A    
C49   H23   S    
C11   C45   S    
C15   C16   A    
C19   C24   A    
O11   V4    S    
C9    C10   A    
V2    O10   S    
O2    V1    S    
