data_mof_unit_67094.cif
_audit_creation_date              2012-12-11T17:41:25-0500
_audit_creation_method            fapswitch 2.2
_symmetry_space_group_name_H-M    P1
_symmetry_Int_Tables_number       1
_space_group_crystal_system       triclinic
_cell_length_a                    8.168579
_cell_length_b                    12.762269
_cell_length_c                    14.19213
_cell_angle_alpha                 93.216861
_cell_angle_beta                  90.498653
_cell_angle_gamma                 98.551603
_cell_volume                      1460.5519289

loop_
_atom_site_label
_atom_site_type_symbol
_atom_type_description
_atom_site_fract_x
_atom_site_fract_y
_atom_site_fract_z
_atom_type_partial_charge
Ba1   Ba    Ba6+2 0.855630 0.555280 0.454520 1.649941
Ba2   Ba    Ba6+2 0.334200 0.444810 0.545490 1.654661
C1    C     C_3   0.571029 0.931478 0.169015 -0.385724
C2    C     C_R   0.183607 0.497615 0.195641 0.038906
C3    C     C_R   0.339295 0.549193 0.225750 -0.298233
C4    C     C_3   0.144253 0.788175 0.193295 0.389555
C5    C     C_R   0.452599 0.595707 0.162084 0.021777
C6    C     C_R   0.408291 0.597740 0.067140 -0.148958
C7    C     C_R   0.250830 0.549339 0.034273 -0.004189
C8    C     C_R   0.138356 0.495397 0.097651 -0.021153
C9    C     C_R   0.053712 0.501034 0.901493 -0.023635
C10   C     C_R   0.941674 0.446551 0.964793 -0.010288
C11   C     C_R   0.007939 0.499531 0.803556 0.055161
C12   C     C_3   0.637883 0.853885 0.231430 0.362708
C13   C     C_R   0.853292 0.446533 0.773246 -0.295665
C14   C     C_R   0.739617 0.400949 0.837115 0.017815
C15   C     C_R   0.784088 0.398541 0.931975 -0.146940
C16   C     C_3   0.124233 0.816003 0.091303 -0.326724
C17   C     C_R   0.206450 0.553974 0.938517 -0.033123
C18   C     C_R   0.764951 0.175533 0.534587 -0.283389
C19   C     C_R   0.427943 0.813271 0.461642 -0.230408
C20   C     C_R   0.407317 0.993349 0.424878 -0.047554
C21   C     C_R   0.341072 0.886435 0.421551 0.042979
C22   C     C_R   0.576437 0.846247 0.511744 0.088298
C23   C     C_3   0.477222 0.310588 0.257917 0.319365
C24   C     C_R   0.642645 0.956634 0.519439 -0.009191
C25   C     C_R   0.556771 0.030559 0.474348 -0.018561
C26   C     C_R   0.620112 0.140322 0.482640 0.019535
C27   C     C_R   0.854756 0.104325 0.574123 -0.019504
C28   C     C_3   0.226721 0.765131 0.664273 0.251190
C29   C     C_R   0.791862 0.995925 0.569681 -0.092403
C30   C     C_3   0.222790 0.881725 0.689866 0.417714
C31   C     C_3   0.967685 0.235175 0.336535 0.339902
C32   C     C_3   0.907040 0.120279 0.302729 -0.029785
C33   C     C_3   0.715440 0.674023 0.737705 0.299078
C34   C     C_3   0.472728 0.292023 0.151045 -0.370265
C35   C     C_3   0.735485 0.698218 0.843797 -0.396321
C36   C     C_3   0.047510 0.195818 0.804706 0.324382
C37   C     C_3   0.061681 0.159257 0.904256 -0.340858
C38   C     C_3   0.540880 0.145160 0.762602 0.346962
C39   C     C_3   0.581482 0.051896 0.815887 -0.371247
C40   C     C_R   0.985617 0.442442 0.060686 -0.025855
F1    F     F_    0.308805 0.943057 0.624823 -0.753832
H1    H     H_    0.728035 0.898536 0.283518 0.073965
H2    H     H_    0.501472 0.984765 0.212125 0.102544
H3    H     H_    0.844187 0.760421 0.859241 0.125573
H4    H     H_    0.754091 0.625915 0.879724 0.064150
H5    H     H_    0.622633 0.726709 0.872178 0.118597
H6    H     H_    0.532532 0.814127 0.271533 -0.081427
H7    H     H_    0.487445 0.887038 0.113733 0.107297
H8    H     H_    0.354728 0.328396 0.281349 0.014887
H9    H     H_    0.573985 0.379563 0.276633 0.054874
H10   H     H_    0.373848 0.225512 0.129186 0.162261
H11   H     H_    0.447790 0.364501 0.117294 0.056368
H12   H     H_    0.280593 0.903681 0.760498 0.034496
H13   H     H_    0.593748 0.272162 0.126541 0.120928
H14   H     H_    0.673609 0.980060 0.133624 0.163460
H15   H     H_    0.160740 0.752865 0.042661 0.048382
H16   H     H_    0.130015 0.272703 0.800273 0.096760
H17   H     H_    0.917519 0.207472 0.791882 -0.062983
H18   H     H_    0.191722 0.149945 0.920583 0.161538
H19   H     H_    0.022429 0.218805 0.955977 0.092941
H20   H     H_    0.981333 0.081929 0.911046 0.124218
H21   H     H_    0.656655 0.181584 0.729331 -0.067481
H22   H     H_    0.449051 0.115909 0.705596 0.148566
H23   H     H_    0.092795 0.897402 0.691680 0.043508
H24   H     H_    0.682935 0.079546 0.867970 0.106443
H25   H     H_    0.621272 0.990964 0.765766 0.105941
H26   H     H_    0.060535 0.713199 0.203537 0.088343
H27   H     H_    0.471546 0.016109 0.854527 0.125951
H28   H     H_    0.375399 0.549511 0.299317 0.069506
H29   H     H_    0.496891 0.636586 0.019124 0.068195
H30   H     H_    0.695152 0.360200 0.980028 0.074177
H31   H     H_    0.817270 0.445902 0.699643 0.069478
H32   H     H_    0.898440 0.397997 0.105778 0.106981
H33   H     H_    0.293249 0.599075 0.893675 0.098707
H34   H     H_    0.869156 0.268054 0.376072 -0.050746
H35   H     H_    0.337184 0.046604 0.391211 0.095229
H36   H     H_    0.861895 0.944020 0.604777 0.101064
H37   H     H_    0.812799 0.259439 0.540389 0.066778
H38   H     H_    0.273911 0.775822 0.205414 -0.093519
H39   H     H_    0.375267 0.730165 0.457825 0.047784
H40   H     H_    0.993318 0.823755 0.075835 0.169961
H41   H     H_    0.203468 0.892052 0.078228 0.135256
H42   H     H_    0.355344 0.752677 0.650423 0.013688
H43   H     H_    0.147624 0.741590 0.600275 0.051469
H44   H     H_    0.077815 0.237956 0.382739 0.052252
H45   H     H_    0.772313 0.110207 0.286766 0.061024
H46   H     H_    0.928886 0.066291 0.358546 0.055925
H47   H     H_    0.831501 0.650843 0.709756 0.012490
H48   H     H_    0.612232 0.607623 0.724485 0.066806
I1    I     I_    0.028017 0.077617 0.174825 -0.500130
O1    O     O_2   0.887370 0.460630 0.272300 -0.465920
O2    O     O_2   0.196008 0.113281 0.566256 -0.410894
O3    O     O_3   0.094882 0.119087 0.739776 -0.593101
O4    O     O_3   0.129410 0.451380 0.388510 -0.497500
O5    O     O_3   0.575400 0.626570 0.547370 -0.494425
O6    O     O_2   0.344320 0.238700 0.455090 -0.464628
O7    O     O_3   0.513221 0.218733 0.298444 -0.643980
O8    O     O_2   0.399464 0.407982 0.835721 -0.495817
O9    O     O_3   0.471984 0.215208 0.825511 -0.601239
O10   O     O_3   0.670210 0.653170 0.329170 -0.479552
O11   O     O_2   0.792816 0.591615 0.165068 -0.500805
O12   O     O_3   0.681598 0.765377 0.696000 -0.641531
O13   O     O_3   0.008544 0.292324 0.257312 -0.612704
O14   O     O_3   0.719548 0.784204 0.174785 -0.583399
O15   O     O_2   0.845380 0.761330 0.544970 -0.480762
O16   O     O_3   0.088930 0.704860 0.376040 -0.498729
O17   O     O_2   0.998287 0.888255 0.427570 -0.475184
O18   O     O_3   0.103449 0.870847 0.254104 -0.566906
O19   O     O_2   0.302330 0.539400 0.727760 -0.469528
O20   O     O_3   0.060300 0.548700 0.611500 -0.493334
O21   O     O_3   0.519500 0.346920 0.670840 -0.474391
O22   O     O_3   0.169909 0.709091 0.742017 -0.690495
O23   O     O_3   0.614310 0.373510 0.452640 -0.479861
O24   O     O_3   0.100780 0.295230 0.623970 -0.496112
P1    P     P_3+3 0.054400 0.427280 0.286870 0.982102
P2    P     P_3+3 0.668300 0.742890 0.573060 0.971290
P3    P     P_3+3 0.133526 0.840805 0.371052 0.991820
P4    P     P_3+3 0.135310 0.572810 0.713130 0.960833
P5    P     P_3+3 0.060576 0.156807 0.625345 0.990739
P6    P     P_3+3 0.659089 0.653737 0.206430 0.959690
P7    P     P_3+3 0.527166 0.241477 0.421264 0.939725
P8    P     P_3+3 0.531889 0.345374 0.793423 0.956000

loop_
_geom_bond_atom_site_label_1
_geom_bond_atom_site_label_2
_ccdc_geom_bond_type
C4    H26   S    
C8    C40   A    
C26   P7    S    
O20   P4    S    
C5    C6    A    
C39   H24   S    
C9    C17   A    
C40   H32   S    
C12   H1    S    
C17   H33   S    
C33   C35   S    
C22   C24   A    
Ba1   O20   S    
C21   P3    S    
C36   C37   S    
Ba2   O21   S    
C12   H6    S    
C13   C14   A    
Ba1   Ba2   S    
O5    P2    S    
C10   C40   A    
C34   H10   S    
C38   O9    S    
Ba2   O24   S    
C23   O7    S    
Ba2   O5    S    
C14   C15   A    
C27   P5    S    
C36   O3    S    
C16   H41   S    
C35   H4    S    
C7    C8    A    
C30   H12   S    
O3    P5    S    
C24   C29   A    
C4    H38   S    
C15   H30   S    
C4    O18   S    
O16   P3    S    
O13   P1    S    
O1    P1    D    
C4    C16   S    
C1    H7    S    
C7    C17   A    
C16   H40   S    
C39   H25   S    
O12   P2    S    
C18   C27   A    
O6    P7    D    
C37   H18   S    
Ba2   O19   S    
C6    H29   S    
O9    P8    S    
O23   P7    S    
O24   P5    S    
C18   H37   S    
O4    P1    S    
C31   O13   S    
C20   H35   S    
C33   O12   S    
Ba1   O5    S    
C3    C5    A    
Ba2   P4    S    
C6    C7    A    
Ba1   P1    S    
C18   C26   A    
C1    H2    S    
O19   P4    D    
C28   H42   S    
C10   C15   A    
C23   H8    S    
C34   H13   S    
Ba2   O23   S    
C27   C29   A    
Ba2   O20   S    
O14   P6    S    
C31   C32   S    
C24   C25   A    
C32   H45   S    
C35   H5    S    
C1    C12   S    
Ba1   O15   S    
C36   H17   S    
C1    H14   S    
C38   C39   S    
C20   C25   A    
C19   C21   A    
C2    P1    S    
C28   H43   S    
C5    P6    S    
C2    C8    A    
C11   P4    S    
O17   P3    D    
C30   H23   S    
C28   O22   S    
O7    P7    S    
C37   H19   S    
O15   P2    D    
C23   C34   S    
C2    C3    A    
O18   P3    S    
C9    C10   A    
C29   H36   S    
C37   H20   S    
C22   P2    S    
C38   H21   S    
C38   H22   S    
C11   C13   A    
C14   P8    S    
C23   H9    S    
C3    H28   S    
C28   C30   S    
C9    C11   A    
C31   H34   S    
O21   P8    S    
Ba1   O4    S    
Ba2   O4    S    
C30   F1    S    
C16   H15   S    
Ba1   P2    S    
C31   H44   S    
C33   H47   S    
C32   I1    S    
C32   H46   S    
C34   H11   S    
Ba1   O16   S    
C36   H16   S    
O2    P5    D    
C12   O14   S    
C13   H31   S    
C19   H39   S    
Ba2   O6    S    
Ba1   O1    S    
C19   C22   A    
C25   C26   A    
C20   C21   A    
Ba1   O23   S    
O8    P8    D    
C35   H3    S    
O10   P6    S    
O11   P6    D    
Ba1   O10   S    
O22   P4    S    
C39   H27   S    
C33   H48   S    
