data_mof_unit_49199.cif
_audit_creation_date              2013-03-05T16:47:21-0500
_audit_creation_method            fapswitch 2.2
_symmetry_space_group_name_H-M    P1
_symmetry_Int_Tables_number       1
_space_group_crystal_system       triclinic
_cell_length_a                    10.863725
_cell_length_b                    10.907738
_cell_length_c                    9.841196
_cell_angle_alpha                 91.047478
_cell_angle_beta                  92.989945
_cell_angle_gamma                 90.033077
_cell_volume                      1164.38511549

loop_
_atom_site_label
_atom_site_type_symbol
_atom_site_description
_atom_site_fract_x
_atom_site_fract_y
_atom_site_fract_z
_atom_type_partial_charge
O1    O     O_R   0.500020 0.321960 0.617040 -0.572930
O2    O     O_R   0.499980 0.321920 0.382900 -0.543198
C1    C     C_R   0.501442 0.265705 0.498952 0.897194
O3    O     O_R   0.319660 0.500030 0.617070 -0.587094
O4    O     O_R   0.319620 0.499990 0.382930 -0.585521
C2    C     C_R   0.263194 0.499089 0.496111 0.781611
Cu1   Cu    Cu3+1 0.500020 0.500020 0.638630 0.971128
Cu2   Cu    Cu3+1 0.499980 0.499980 0.361370 1.049586
O5    O     O_R   0.500020 0.678080 0.617100 -0.580744
O6    O     O_R   0.499980 0.678040 0.382960 -0.581329
O7    O     O_R   0.680380 0.500010 0.617070 -0.583003
O8    O     O_R   0.680340 0.499970 0.382930 -0.462907
C3    C     C_R   0.501986 0.734320 0.501418 0.870093
C4    C     C_R   0.738128 0.501860 0.502047 0.821516
H1    H     H_    0.291196 0.815350 0.017547 0.156886
C5    C     C_R   0.226397 0.820446 0.220570 -0.088890
H2    H     H_    0.263083 0.911349 0.242908 0.153092
C6    C     C_R   0.164170 0.758121 0.319751 0.433663
C7    C     C_R   0.117428 0.638474 0.288930 0.012203
C8    C     C_R   0.134713 0.585214 0.160370 -0.146686
H3    H     H_    0.101936 0.493085 0.136598 0.155414
C9    C     C_R   0.196623 0.648990 0.062866 -0.161237
H4    H     H_    0.209888 0.606908 0.964229 0.154934
C10   C     C_R   0.242556 0.766337 0.092995 -0.201491
C11   C     C_R   0.931510 0.565713 0.399574 -0.163678
H5    H     H_    0.878425 0.625173 0.332666 0.199409
C12   C     C_R   0.873833 0.501205 0.500975 -0.057185
C13   C     C_R   0.946966 0.434727 0.595406 0.010215
C14   C     C_R   0.072914 0.425816 0.582790 -0.218579
H6    H     H_    0.128303 0.377297 0.659556 0.154053
C15   C     C_R   0.129932 0.493899 0.486432 -0.067978
C16   C     C_R   0.059259 0.563176 0.391604 -0.034898
C17   C     C_R   0.932807 0.525732 0.816585 -0.254383
H7    H     H_    0.981933 0.604366 0.780445 0.175209
C18   C     C_R   0.889927 0.530623 0.944835 -0.228440
H8    H     H_    0.905802 0.612998 0.006343 0.197865
C19   C     C_R   0.822482 0.432775 0.991461 0.305762
C20   C     C_R   0.802838 0.326275 0.910931 -0.164956
H9    H     H_    0.749993 0.250523 0.947398 0.208864
C21   C     C_R   0.845590 0.320099 0.779878 0.403141
C22   C     C_R   0.908191 0.423138 0.732518 0.002363
C23   C     C_2   0.533447 0.930927 0.396423 -0.231104
C24   C     C_2   0.512193 0.866631 0.507279 -0.326899
H10   H     H_    0.544860 0.884398 0.299344 0.203301
H11   H     H_    0.510962 0.910469 0.607104 0.166879
C25   C     C_2   0.554163 0.063860 0.404572 0.361293
C26   C     C_2   0.495682 0.133011 0.495979 -0.397841
H12   H     H_    0.434508 0.092341 0.566355 0.131834
C27   C     C_2   0.444021 0.417914 0.918193 -0.091815
N1    N     N_2   0.498640 0.498660 0.846910 -0.286089
H13   H     H_    0.390596 0.346511 0.864398 0.158569
H14   H     H_    0.555493 0.560817 0.898848 0.215586
C28   C     C_2   0.454514 0.411744 0.072737 0.001027
N2    N     N_2   0.498610 0.498630 0.153040 -0.219269
H15   H     H_    0.421407 0.328911 0.118037 0.154498
H16   H     H_    0.514334 0.581465 0.108866 0.222962
N3    N     N_R   0.764875 0.448479 0.115689 0.110129
O9    O     O_R   0.720903 0.354626 0.176619 -0.280693
O10   O     O_R   0.737963 0.559467 0.154179 -0.425919
O11   O     O_3   0.821051 0.215616 0.701860 -0.704976
H17   H     H_    0.861397 0.222022 0.614429 0.354073
N4    N     N_R   0.642503 0.115978 0.318499 0.162311
O12   O     O_R   0.650415 0.074834 0.194280 -0.359771
O13   O     O_R   0.731446 0.183489 0.372929 -0.326401
O14   O     O_3   0.153110 0.816720 0.444165 -0.743549
H18   H     H_    0.104822 0.765299 0.503780 0.322790

loop_
_geom_bond_atom_site_label_1
_geom_bond_atom_site_label_2
_geom_bond_distance
_ccdc_geom_bond_type
O4    Cu2   1.981808 S    
N1    H14   1.027776 S    
N2    H16   1.027853 S    
C21   C22   1.412190 A    
N4    O12   1.301597 A    
C21   O11   1.380473 S    
C4    C12   1.474871 S    
C11   C12   1.404967 A    
C15   C16   1.408223 A    
C7    C8    1.404099 A    
Cu2   O8    1.959801 S    
C17   C22   1.396784 A    
C11   C16   1.394387 A    
C17   H7    1.085103 S    
Cu1   Cu2   2.728540 S    
C5    C10   1.396932 A    
C5    C6    1.401573 A    
O1    Cu1   1.949954 S    
C28   N2    1.298003 D    
C6    O14   1.381642 S    
Cu1   O7    1.981807 S    
C24   H11   1.085421 S    
N3    O9    1.299049 A    
C14   H6    1.086493 S    
C23   H10   1.086461 S    
C25   N4    1.436493 S    
O3    Cu1   1.959802 S    
C27   C28   1.521945 S    
C7    C16   1.480286 S    
C1    C26   1.448413 S    
H1    C10   1.082338 S    
C20   C21   1.393909 A    
C19   C20   1.404110 A    
C8    C9    1.395783 A    
C2    C15   1.446901 S    
O2    C1    1.305502 A    
C28   H15   1.084216 S    
O4    C2    1.299270 A    
O7    C4    1.322962 A    
C9    C10   1.394722 A    
N3    O10   1.299910 A    
O3    C2    1.310262 A    
C5    H2    1.082954 S    
C23   C24   1.337688 D    
Cu1   O5    1.957602 S    
C13   C22   1.442089 S    
C3    C24   1.447278 S    
C6    C7    1.421898 A    
C8    H3    1.083368 S    
C18   C19   1.392342 A    
C14   C15   1.385963 A    
O14   H18   0.988825 S    
C23   C25   1.467336 S    
C27   H13   1.084469 S    
Cu2   N2    2.049277 S    
C12   C13   1.403182 A    
C27   N1    1.298209 D    
O5    C3    1.304186 A    
C25   C26   1.348007 D    
C13   C14   1.383645 A    
N4    O13   1.301381 A    
C17   C18   1.368118 A    
C11   H5    1.078526 S    
C9    H4    1.082644 S    
C19   N3    1.409940 S    
O6    C3    1.306717 A    
Cu2   O6    1.949954 S    
O2    Cu2   1.957601 S    
C26   H12   1.084913 S    
Cu1   N1    2.050885 S    
O8    C4    1.300406 A    
O11   H17   0.989357 S    
O1    C1    1.305027 A    
C18   H8    1.082829 S    
C20   H9    1.083008 S    
