data_mof_unit_25483.cif
_audit_creation_date              2012-12-11T15:26:05-0500
_audit_creation_method            fapswitch 2.2
_symmetry_space_group_name_H-M    P1
_symmetry_Int_Tables_number       1
_space_group_crystal_system       triclinic
_cell_length_a                    24.586439
_cell_length_b                    16.978982
_cell_length_c                    15.811132
_cell_angle_alpha                 90.000125
_cell_angle_beta                  50.090162
_cell_angle_gamma                 90.000226
_cell_volume                      5062.86968909

loop_
_atom_site_label
_atom_site_type_symbol
_atom_type_description
_atom_site_fract_x
_atom_site_fract_y
_atom_site_fract_z
_atom_type_partial_charge
C1    C     C_R   0.332930 0.110764 0.799914 0.425979
C2    C     C_2   0.327677 0.772028 0.906951 -0.229433
C3    C     C_3   0.898365 0.969184 0.221416 -0.924790
C4    C     C_3   0.234301 0.728665 0.321958 0.241974
C5    C     C_3   0.188963 0.766357 0.297821 -0.382830
C6    C     C_3   0.183926 0.855438 0.314225 -0.814679
C7    C     C_3   0.725018 0.418982 0.685801 0.215833
C8    C     C_3   0.645716 0.400882 0.768941 -0.220416
C9    C     C_3   0.601599 0.468930 0.778368 -0.924856
C10   C     C_3   0.765710 0.728671 0.678035 0.241976
C11   C     C_3   0.811041 0.766359 0.702187 -0.382832
C12   C     C_3   0.816080 0.855440 0.685788 -0.814659
C13   C     C_2   0.309088 0.184817 0.957921 -0.256520
C14   C     C_3   0.274987 0.418957 0.314215 0.215758
C15   C     C_3   0.354289 0.400859 0.231037 -0.220291
C16   C     C_3   0.398407 0.468866 0.221722 -0.924861
C17   C     C_2   0.672320 0.772023 0.093054 -0.229431
C18   C     C_2   0.190912 0.684817 0.042079 -0.256482
C19   C     C_2   0.827672 0.272037 0.906962 -0.229460
C20   C     C_2   0.809086 0.684813 0.957924 -0.256480
C21   C     C_2   0.172331 0.272043 0.093032 -0.229461
C22   C     C_2   0.753018 0.156044 0.952137 0.537412
C23   C     C_2   0.311049 0.710456 0.872513 0.367109
C24   C     C_2   0.246982 0.156049 0.047860 0.537408
C25   C     C_R   0.662785 0.876902 0.210772 0.506956
C26   C     C_2   0.688949 0.710451 0.127491 0.367112
C27   C     C_2   0.253014 0.656042 0.952140 0.537391
C28   C     C_2   0.811051 0.210463 0.872516 0.367090
C29   C     C_2   0.746984 0.656038 0.047862 0.537391
C30   C     C_2   0.188950 0.210468 0.127480 0.367085
C31   C     C_R   0.616050 0.097233 0.591031 -0.137301
C32   C     C_R   0.411567 0.853666 0.410324 -0.195639
C33   C     C_R   0.383948 0.097229 0.408970 -0.137299
C34   C     C_R   0.588433 0.853667 0.589676 -0.195625
C35   C     C_R   0.116052 0.597221 0.591032 -0.137298
C36   C     C_R   0.667071 0.110762 0.200085 0.425976
C37   C     C_R   0.911574 0.353662 0.410324 -0.195629
C38   C     C_R   0.883947 0.597221 0.408970 -0.137293
C39   C     C_R   0.088427 0.353663 0.589676 -0.195640
C40   C     C_R   0.687170 0.109312 0.410946 0.535814
C41   C     C_R   0.332578 0.858385 0.592458 0.556044
C42   C     C_R   0.312828 0.109308 0.589054 0.535863
C43   C     C_R   0.667426 0.858388 0.407542 0.556023
C44   C     C_R   0.187175 0.609299 0.410948 0.535952
C45   C     C_R   0.832585 0.358379 0.592459 0.556066
C46   C     C_R   0.812825 0.609299 0.589053 0.535925
C47   C     C_R   0.337212 0.876907 0.789232 0.506990
C48   C     C_R   0.167413 0.358378 0.407541 0.556087
C49   C     C_R   0.575663 0.116860 0.203749 0.470412
C50   C     C_R   0.426961 0.875934 0.789653 0.413843
C51   C     C_R   0.424337 0.116861 0.796250 0.470408
C52   C     C_R   0.573037 0.875931 0.210349 0.413841
C53   C     C_R   0.075661 0.616862 0.203752 0.470429
C54   C     C_R   0.926958 0.375939 0.789659 0.413849
C55   C     C_R   0.924338 0.616862 0.796249 0.470426
C56   C     C_R   0.073043 0.375941 0.210337 0.413848
C57   C     C_R   0.354426 0.139497 0.855492 -0.101677
C58   C     C_R   0.832930 0.610766 0.799912 0.425969
C59   C     C_R   0.637567 0.841120 0.164706 -0.024095
C60   C     C_R   0.645574 0.139494 0.144506 -0.101668
C61   C     C_R   0.362429 0.841125 0.835300 -0.024116
C62   C     C_R   0.854427 0.639499 0.855490 -0.101715
C63   C     C_R   0.137580 0.341143 0.164678 -0.024130
C64   C     C_R   0.145572 0.639502 0.144512 -0.101723
C65   C     C_R   0.862423 0.341137 0.835315 -0.024118
C66   C     C_R   0.684247 0.115495 0.501216 -0.191055
C67   C     C_R   0.359329 0.810405 0.502562 -0.089730
C68   C     C_R   0.315751 0.115489 0.498785 -0.191092
C69   C     C_R   0.162793 0.376919 0.210755 0.507060
C70   C     C_R   0.640672 0.810407 0.497438 -0.089684
C71   C     C_R   0.184252 0.615473 0.501218 -0.191139
C72   C     C_R   0.859340 0.310398 0.502561 -0.089797
C73   C     C_R   0.815748 0.615475 0.498784 -0.191123
C74   C     C_R   0.140661 0.310399 0.497439 -0.089831
C75   C     C_R   0.189849 0.149756 0.595950 -0.194861
C76   C     C_R   0.729050 0.702450 0.397138 -0.048183
C77   C     C_R   0.810151 0.149754 0.404052 -0.194950
C78   C     C_R   0.270950 0.702448 0.602865 -0.048224
C79   C     C_R   0.689848 0.649741 0.595944 -0.194748
C80   C     C_R   0.167069 0.610769 0.200089 0.425964
C81   C     C_R   0.229041 0.202443 0.397143 -0.048311
C82   C     C_R   0.310154 0.649731 0.404061 -0.194693
C83   C     C_R   0.770959 0.202443 0.602858 -0.048267
C84   C     C_R   0.645785 0.700731 0.596286 -0.148285
C85   C     C_R   0.274782 0.155040 0.396974 -0.174394
C86   C     C_R   0.354217 0.700724 0.403717 -0.148289
C87   C     C_R   0.725217 0.155042 0.603027 -0.174390
C88   C     C_R   0.145780 0.200733 0.596291 -0.148250
C89   C     C_R   0.774785 0.655035 0.396969 -0.174344
C90   C     C_R   0.854221 0.200730 0.403710 -0.148235
C91   C     C_R   0.837209 0.376914 0.789240 0.507029
C92   C     C_R   0.225214 0.655033 0.603035 -0.174363
C93   C     C_R   0.669959 0.735123 0.496887 0.161309
C94   C     C_R   0.258751 0.136708 0.497217 0.141563
C95   C     C_R   0.330043 0.735119 0.503115 0.161323
C96   C     C_R   0.741248 0.136711 0.502785 0.141573
C97   C     C_R   0.169948 0.235116 0.496891 0.161380
C98   C     C_R   0.758750 0.636694 0.497212 0.141495
C99   C     C_R   0.830053 0.235115 0.503110 0.161373
C100  C     C_R   0.241250 0.636689 0.502792 0.141492
C101  C     C_3   0.734302 0.228671 0.321934 0.241994
C102  C     C_2   0.690913 0.184814 0.042076 -0.256516
C103  C     C_3   0.688956 0.266359 0.297811 -0.382854
C104  C     C_3   0.683925 0.355441 0.314201 -0.814676
C105  C     C_3   0.225025 0.919040 0.685842 0.215879
C106  C     C_3   0.145719 0.900959 0.768965 -0.220420
C107  C     C_3   0.101617 0.969066 0.778490 -0.924869
C108  C     C_3   0.265712 0.228678 0.678044 0.241975
C109  C     C_3   0.311046 0.266364 0.702193 -0.382826
C110  C     C_3   0.316082 0.355446 0.685801 -0.814682
C111  C     C_3   0.774966 0.919081 0.314137 0.215938
C112  C     C_3   0.854276 0.901012 0.231035 -0.220421
Cl1   Cl    Cl    0.244238 0.086855 0.865563 -0.534183
Cl2   Cl    Cl    0.457954 0.887715 0.862902 -0.554125
Cl3   Cl    Cl    0.467791 0.116565 0.850752 -0.560977
Cl4   Cl    Cl    0.542046 0.887712 0.137099 -0.554129
Cl5   Cl    Cl    0.032208 0.616567 0.149250 -0.560957
Cl6   Cl    Cl    0.957955 0.387721 0.862902 -0.554137
Cl7   Cl    Cl    0.967791 0.616566 0.850752 -0.560961
Cl8   Cl    Cl    0.042045 0.387724 0.137098 -0.554129
Cl9   Cl    Cl    0.356437 0.694018 0.730877 -0.603432
Cl10  Cl    Cl    0.764614 0.053955 0.923182 -0.459470
Cl11  Cl    Cl    0.643563 0.694013 0.269126 -0.603434
Cl12  Cl    Cl    0.753974 0.895098 0.129702 -0.547495
Cl13  Cl    Cl    0.235383 0.053960 0.076816 -0.459466
Cl14  Cl    Cl    0.856447 0.194027 0.730877 -0.603432
Cl15  Cl    Cl    0.264605 0.553951 0.923197 -0.459494
Cl16  Cl    Cl    0.143553 0.194033 0.269119 -0.603429
Cl17  Cl    Cl    0.735393 0.553947 0.076804 -0.459490
Cl18  Cl    Cl    0.755762 0.086849 0.134434 -0.534238
Cl19  Cl    Cl    0.246025 0.895108 0.870301 -0.547453
Cl20  Cl    Cl    0.744238 0.586863 0.865561 -0.534109
Cl21  Cl    Cl    0.253978 0.395135 0.129694 -0.547360
Cl22  Cl    Cl    0.255762 0.586869 0.134439 -0.534061
Cl23  Cl    Cl    0.746023 0.395122 0.870302 -0.547380
Cl24  Cl    Cl    0.532208 0.116564 0.149249 -0.560980
H1    H     H_    0.597699 0.084471 0.672231 0.204939
H2    H     H_    0.744364 0.719214 0.318601 0.210329
H3    H     H_    0.827296 0.128412 0.326006 0.176520
H4    H     H_    0.255636 0.719212 0.681402 0.210332
H5    H     H_    0.672699 0.628391 0.673990 0.176481
H6    H     H_    0.244351 0.219199 0.318606 0.210326
H7    H     H_    0.327304 0.628377 0.326016 0.176455
H8    H     H_    0.755650 0.219199 0.681395 0.210328
H9    H     H_    0.596468 0.718005 0.674901 0.153884
H10   H     H_    0.325005 0.139881 0.318297 0.162218
H11   H     H_    0.403535 0.717996 0.325102 0.153881
H12   H     H_    0.439765 0.836000 0.326969 0.190368
H13   H     H_    0.674993 0.139885 0.681704 0.162219
H14   H     H_    0.096463 0.218006 0.674906 0.153880
H15   H     H_    0.825008 0.639876 0.318292 0.162232
H16   H     H_    0.903539 0.218002 0.325095 0.153882
H17   H     H_    0.174990 0.639877 0.681712 0.162232
H18   H     H_    0.304342 0.777628 0.992748 0.162208
H19   H     H_    0.681341 0.247907 0.050139 0.156972
H20   H     H_    0.695653 0.777623 0.007258 0.162207
H21   H     H_    0.318662 0.247910 0.949858 0.156969
H22   H     H_    0.804332 0.277637 0.992761 0.162201
H23   H     H_    0.402300 0.084468 0.327769 0.204940
H24   H     H_    0.181343 0.747911 0.050137 0.156988
H25   H     H_    0.195672 0.277642 0.007232 0.162200
H26   H     H_    0.818654 0.747907 0.949867 0.156991
H27   H     H_    0.789390 0.251077 0.260542 0.154437
H28   H     H_    0.715308 0.249095 0.403933 0.081359
H29   H     H_    0.713131 0.254241 0.211028 0.227901
H30   H     H_    0.634690 0.240885 0.353471 0.192634
H31   H     H_    0.658386 0.369838 0.401078 0.251038
H32   H     H_    0.651483 0.380974 0.294764 0.289512
H33   H     H_    0.737594 0.382353 0.258530 0.283964
H34   H     H_    0.560233 0.836000 0.673031 0.190362
H35   H     H_    0.240014 0.926783 0.603028 0.059350
H36   H     H_    0.235686 0.974586 0.710164 0.178526
H37   H     H_    0.134515 0.847055 0.742509 0.198103
H38   H     H_    0.129918 0.889629 0.851347 0.262668
H39   H     H_    0.109335 0.022316 0.810527 0.285731
H40   H     H_    0.044573 0.952921 0.836721 0.290579
H41   H     H_    0.116972 0.982372 0.696857 0.261895
H42   H     H_    0.210625 0.251090 0.739415 0.154428
H43   H     H_    0.284725 0.249097 0.596032 0.081350
H44   H     H_    0.286857 0.254245 0.788983 0.227910
H45   H     H_    0.097698 0.584458 0.672234 0.204946
H46   H     H_    0.365311 0.240888 0.646549 0.192626
H47   H     H_    0.341635 0.369844 0.598918 0.251037
H48   H     H_    0.348513 0.380978 0.705259 0.289516
H49   H     H_    0.262413 0.382360 0.741457 0.283961
H50   H     H_    0.759970 0.926867 0.396950 0.059311
H51   H     H_    0.764299 0.974602 0.289777 0.178617
H52   H     H_    0.865490 0.847161 0.257562 0.198050
H53   H     H_    0.870079 0.889597 0.148667 0.262667
H54   H     H_    0.890636 0.022379 0.189311 0.285805
H55   H     H_    0.955412 0.953050 0.163205 0.290562
H56   H     H_    0.939774 0.335996 0.326968 0.190365
H57   H     H_    0.883006 0.982573 0.303033 0.261862
H58   H     H_    0.289389 0.751076 0.260580 0.154441
H59   H     H_    0.215296 0.749083 0.403966 0.081347
H60   H     H_    0.213147 0.754244 0.211032 0.227919
H61   H     H_    0.134698 0.740879 0.353467 0.192623
H62   H     H_    0.158374 0.869829 0.401109 0.251042
H63   H     H_    0.151492 0.880973 0.294773 0.289514
H64   H     H_    0.237594 0.882352 0.258570 0.283956
H65   H     H_    0.740006 0.426671 0.602981 0.059371
H66   H     H_    0.735665 0.474563 0.710081 0.178417
H67   H     H_    0.902301 0.584459 0.327768 0.204944
H68   H     H_    0.634527 0.346924 0.742551 0.198128
H69   H     H_    0.629910 0.389636 0.851344 0.262654
H70   H     H_    0.609297 0.522233 0.810348 0.285652
H71   H     H_    0.544560 0.452768 0.836604 0.290592
H72   H     H_    0.616965 0.482158 0.696710 0.261900
H73   H     H_    0.710622 0.751085 0.739401 0.154434
H74   H     H_    0.784726 0.749087 0.596020 0.081351
H75   H     H_    0.786850 0.754243 0.788978 0.227923
H76   H     H_    0.865306 0.740881 0.646548 0.192623
H77   H     H_    0.841639 0.869834 0.598902 0.251048
H78   H     H_    0.060229 0.335999 0.673032 0.190371
H79   H     H_    0.848509 0.880973 0.705251 0.289515
H80   H     H_    0.762412 0.882355 0.741436 0.283956
H81   H     H_    0.260015 0.426600 0.397031 0.059416
H82   H     H_    0.264334 0.474561 0.289987 0.178328
H83   H     H_    0.365475 0.346841 0.257328 0.198155
H84   H     H_    0.370088 0.389716 0.148617 0.262630
H85   H     H_    0.390728 0.522223 0.189806 0.285570
H86   H     H_    0.455446 0.452696 0.163476 0.290594
H87   H     H_    0.383032 0.482010 0.303408 0.261900
H88   H     H_    0.172704 0.128414 0.673997 0.176503
N1    N     N_R   0.388930 0.078160 0.705470 -0.130634
N2    N     N_R   0.419500 0.922160 0.443350 -0.067881
N3    N     N_R   0.419500 0.077840 0.443350 -0.076835
N4    N     N_R   0.580500 0.922160 0.556650 -0.067878
N5    N     N_R   0.080500 0.577840 0.556650 -0.076849
N6    N     N_R   0.919500 0.422160 0.443350 -0.067886
N7    N     N_R   0.919500 0.577840 0.443350 -0.076846
N8    N     N_R   0.080500 0.422160 0.556650 -0.067889
N9    N     N_R   0.626210 0.077590 0.443410 -0.105774
N10   N     N_R   0.373790 0.922410 0.556590 -0.122911
N11   N     N_R   0.373790 0.077590 0.556590 -0.105771
N12   N     N_R   0.611070 0.921840 0.294530 -0.130835
N13   N     N_R   0.626210 0.922410 0.443410 -0.122927
N14   N     N_R   0.126210 0.577590 0.443410 -0.105769
N15   N     N_R   0.873790 0.422410 0.556590 -0.122892
N16   N     N_R   0.873790 0.577590 0.556590 -0.105770
N17   N     N_R   0.126210 0.422410 0.443410 -0.122878
N18   N     N_R   0.554800 0.077270 0.294580 -0.127602
N19   N     N_R   0.445200 0.922730 0.705420 -0.115986
N20   N     N_R   0.445200 0.077270 0.705420 -0.127604
N21   N     N_R   0.554800 0.922730 0.294580 -0.115981
N22   N     N_R   0.054800 0.577270 0.294580 -0.127614
N23   N     N_R   0.611070 0.078160 0.294530 -0.130633
N24   N     N_R   0.945200 0.422730 0.705420 -0.115994
N25   N     N_R   0.945200 0.577270 0.705420 -0.127612
N26   N     N_R   0.054800 0.422730 0.294580 -0.115998
N27   N     N_R   0.388930 0.921840 0.705470 -0.130835
N28   N     N_R   0.888930 0.578160 0.705470 -0.130634
N29   N     N_R   0.111070 0.421840 0.294530 -0.130836
N30   N     N_R   0.111070 0.578160 0.294530 -0.130634
N31   N     N_R   0.888930 0.421840 0.705470 -0.130837
N32   N     N_R   0.580500 0.077840 0.556650 -0.076832
Ni1   Ni    Ni4+2 0.382710 0.000000 0.629850 0.275172
Ni2   Ni    Ni4+2 0.617290 0.000000 0.370150 0.275136
Ni3   Ni    Ni4+2 0.882710 0.500000 0.629850 0.275218
Ni4   Ni    Ni4+2 0.117290 0.500000 0.370150 0.275250
Ni5   Ni    Ni4+2 0.513020 0.000000 0.629850 0.268893
Ni6   Ni    Ni4+2 0.486980 0.000000 0.370150 0.268894
Ni7   Ni    Ni4+2 0.013020 0.500000 0.629850 0.268882
Ni8   Ni    Ni4+2 0.986980 0.500000 0.370150 0.268883
O1    O     O_3   0.736553 0.145362 0.310289 -0.633429
O2    O     O_3   0.262512 0.856499 0.686971 -0.648086
O3    O     O_3   0.263451 0.145369 0.689705 -0.633407
O4    O     O_3   0.737494 0.856506 0.313036 -0.648109
O5    O     O_3   0.236558 0.645357 0.310298 -0.633363
O6    O     O_3   0.762522 0.356488 0.686975 -0.648049
O7    O     O_3   0.763447 0.645363 0.689701 -0.633379
O8    O     O_3   0.237474 0.356486 0.313019 -0.648033

loop_
_geom_bond_atom_site_label_1
_geom_bond_atom_site_label_2
_ccdc_geom_bond_type
C109  H46   S    
C58   C62   A    
C31   C66   A    
C83   C87   A    
N7    Ni8   S    
C110  H49   S    
C46   O7    S    
C105  H36   S    
N12   Ni2   S    
C4    H59   S    
C64   C80   A    
C79   H5    S    
C79   C98   A    
C58   N28   A    
C51   N20   A    
C109  H44   S    
C36   N23   A    
C86   H11   S    
C49   N18   A    
C16   H85   S    
N24   N31   A    
C69   N29   A    
C7    C8    S    
C23   Cl9   S    
C54   C65   A    
C55   Cl7   S    
C84   H9    S    
N1    N20   A    
C4    H58   S    
C3    H57   S    
C49   C60   A    
C80   N30   A    
C31   N32   A    
C17   C26   D    
N15   Ni3   S    
N8    Ni7   S    
C111  O4    S    
C7    H66   S    
C3    H55   S    
C9    H70   S    
C101  H28   S    
C5    C6    S    
C76   C93   A    
C53   C64   A    
C53   Cl5   S    
C103  H30   S    
C13   C57   S    
C41   N10   A    
C43   C70   A    
C15   C16   S    
C55   C62   A    
C80   Cl22  S    
C108  C109  S    
C44   C71   A    
N19   Ni5   S    
C42   N11   A    
C39   C74   A    
N13   Ni2   S    
C53   N22   A    
C101  O1    S    
C37   N6    A    
C43   N13   A    
N9    N32   A    
C11   H75   S    
C112  H53   S    
N10   Ni1   S    
C27   Cl15  S    
C10   H74   S    
C29   Cl17  S    
C111  C112  S    
C25   N12   A    
C58   Cl20  S    
C8    C9    S    
C111  H50   S    
C105  C106  S    
C56   N26   A    
C55   N25   A    
C14   H81   S    
N14   Ni4   S    
C92   H17   S    
C51   C57   A    
C46   N16   A    
C50   Cl2   S    
C31   H1    S    
C34   C70   A    
N17   Ni4   S    
C47   N27   A    
C88   C97   A    
C34   H34   S    
C2    C61   S    
C81   C85   A    
C76   C89   A    
C6    H63   S    
N24   Ni7   S    
C40   O1    S    
C78   H4    S    
N26   N29   A    
C52   Cl4   S    
C75   H88   S    
C110  H48   S    
C2    H18   S    
C83   C99   A    
N32   Ni5   S    
C52   N21   A    
C45   C72   A    
C67   C95   S    
C56   Cl8   S    
N6    N15   A    
C73   C98   S    
C1    Cl1   S    
C12   H77   S    
C60   C102  S    
N21   Ni6   S    
C8    H68   S    
C13   H21   S    
C48   C74   A    
C28   Cl14  S    
C22   Cl10  S    
C74   C97   S    
N6    Ni8   S    
C20   C29   D    
N5    Ni7   S    
N18   Ni6   S    
C45   O6    S    
C30   Cl16  S    
C77   C90   A    
C104  H33   S    
C21   H25   S    
N8    N17   A    
C63   C69   A    
C101  H27   S    
C70   C93   S    
N19   N27   A    
C85   H10   S    
C41   C67   A    
C50   N19   A    
C9    H71   S    
C3    H54   S    
C6    H62   S    
C82   H7    S    
C5    H61   S    
N22   N30   A    
C78   C92   A    
C105  O2    S    
C82   C86   A    
C91   N31   A    
C40   C66   A    
C51   Cl3   S    
C107  H40   S    
C108  H43   S    
C47   Cl19  S    
N7    N16   A    
C35   N5    A    
C1    C57   A    
N28   Ni3   S    
C108  O3    S    
C34   N4    A    
C45   N15   A    
C112  H52   S    
C52   C59   A    
C36   Cl18  S    
C11   H76   S    
C104  H32   S    
C85   C94   A    
C10   H73   S    
C82   C100  A    
N30   Ni4   S    
C78   C95   A    
N11   Ni1   S    
C20   H26   S    
C87   C96   A    
C106  H38   S    
C56   C63   A    
C108  H42   S    
C15   H84   S    
N25   Ni7   S    
C19   C28   D    
N26   Ni8   S    
N9    Ni2   S    
C17   C59   S    
C5    H60   S    
C32   H12   S    
C90   H16   S    
C81   H6    S    
C49   Cl24  S    
C32   N2    A    
C110  H47   S    
C103  H29   S    
C3    C112  S    
C23   C27   S    
C38   H67   S    
C32   C67   A    
C87   H13   S    
C24   Cl13  S    
C13   C24   D    
C48   O8    S    
N3    Ni6   S    
C37   C72   A    
C24   C30   S    
C26   Cl11  S    
C12   H80   S    
C15   H83   S    
C90   C99   A    
C103  C104  S    
N23   Ni2   S    
N22   Ni8   S    
N4    Ni5   S    
C92   C100  A    
C66   C96   S    
C21   C30   D    
C1    N1    A    
C4    O5    S    
C65   C91   A    
N2    Ni6   S    
C41   O2    S    
N25   N28   A    
C69   Cl21  S    
C105  H35   S    
C39   H78   S    
C19   H22   S    
C88   H14   S    
N12   N21   A    
C7    O6    S    
C18   C27   D    
C77   H3    S    
C4    C5    S    
C33   N3    A    
C9    H72   S    
C44   N14   A    
C16   H86   S    
C47   C61   A    
C11   C12   S    
N31   Ni3   S    
C38   N7    A    
C48   N17   A    
C76   H2    S    
C35   H45   S    
N3    N11   A    
C71   C100  S    
C77   C96   A    
C111  H51   S    
N18   N23   A    
N2    N10   A    
C89   C98   A    
C10   O7    S    
C54   Cl6   S    
C42   O3    S    
N1    Ni1   S    
N4    N13   A    
C7    H65   S    
C83   H8    S    
N27   Ni1   S    
C104  H31   S    
C6    H64   S    
N29   Ni4   S    
C18   C64   S    
C79   C84   A    
C22   C102  D    
C107  H39   S    
C54   N24   A    
C40   N9    A    
C43   O4    S    
C81   C97   A    
C106  H37   S    
C19   C65   S    
C14   O8    S    
C84   C93   A    
C42   C68   A    
N16   Ni3   S    
C20   C62   S    
C8    H69   S    
C25   Cl12  S    
C68   C94   S    
C21   C63   S    
C18   H24   S    
C10   C11   S    
C35   C71   A    
C75   C88   A    
C39   N8    A    
C37   H56   S    
C91   Cl23  S    
C33   C68   A    
C26   C29   S    
C101  C103  S    
C106  C107  S    
C89   H15   S    
C2    C23   D    
C50   C61   A    
C36   C60   A    
C14   C15   S    
C14   H82   S    
C16   H87   S    
C22   C28   S    
N20   Ni5   S    
C25   C59   A    
C12   H79   S    
C86   C95   A    
N5    N14   A    
C109  C110  S    
C17   H20   S    
C102  H19   S    
C72   C99   S    
C46   C73   A    
C107  H41   S    
C33   H23   S    
C75   C94   A    
C44   O5    S    
C38   C73   A    
