data_mof_unit_33371.cif
_audit_creation_date              2012-12-10T20:28:46-0500
_audit_creation_method            fapswitch 2.2
_symmetry_space_group_name_H-M    P1
_symmetry_Int_Tables_number       1
_space_group_crystal_system       triclinic
_cell_length_a                    10.62675
_cell_length_b                    10.723781
_cell_length_c                    9.874066
_cell_angle_alpha                 90.213184
_cell_angle_beta                  89.720392
_cell_angle_gamma                 89.676221
_cell_volume                      1125.19882205

loop_
_atom_site_label
_atom_site_type_symbol
_atom_type_description
_atom_site_fract_x
_atom_site_fract_y
_atom_site_fract_z
_atom_type_partial_charge
C1    C     C_R   0.496350 0.260070 0.499592 0.889731
C2    C     C_R   0.492695 0.935294 0.374182 -0.190928
C3    C     C_R   0.479811 0.871833 0.497513 -0.125339
C4    C     C_R   0.260625 0.502916 0.500245 0.899008
C5    C     C_R   0.441985 0.937487 0.613001 0.018670
C6    C     C_3   0.482585 0.932010 0.757654 -0.065892
C7    C     C_3   0.480890 0.074847 0.756730 0.286053
C8    C     C_R   0.400272 0.546647 0.071832 0.246495
C9    C     C_R   0.604163 0.463649 0.071251 -0.153831
C10   C     C_R   0.604454 0.464508 0.927307 -0.164794
C11   C     C_R   0.399589 0.544264 0.929837 0.285467
C12   C     C_R   0.064513 0.614811 0.551585 0.079025
C13   C     C_3   0.267115 0.499882 0.925121 -0.500559
C14   C     C_3   0.266698 0.505127 0.079075 -0.509111
C15   C     C_R   0.497029 0.740117 0.500003 0.856322
C16   C     C_R   0.739429 0.501539 0.499701 0.913932
C17   C     C_R   0.128243 0.722012 0.598225 -0.151823
C18   C     C_R   0.061084 0.825635 0.645455 -0.097570
C19   C     C_R   0.930224 0.824102 0.647398 -0.157004
C20   C     C_R   0.866006 0.719738 0.600104 -0.150812
C21   C     C_R   0.932732 0.613780 0.551613 0.042490
C22   C     C_3   0.426259 0.156897 0.966350 0.140426
C23   C     C_R   0.128498 0.509383 0.500304 -0.171529
C24   C     C_3   0.315016 0.160888 0.064124 -0.799368
C25   C     C_3   0.856675 0.212642 0.487424 0.077796
C26   C     C_3   0.820747 0.091290 0.417814 -0.803652
C27   C     C_R   0.066672 0.407637 0.445134 -0.296907
C28   C     C_R   0.937718 0.404920 0.446269 0.457548
C29   C     C_R   0.871771 0.507462 0.499414 -0.227351
C30   C     C_R   0.441084 0.064857 0.612342 0.094095
C31   C     C_R   0.477962 0.128854 0.496523 -0.154287
C32   C     C_R   0.491732 0.063946 0.373759 -0.228968
H1    H     H_    0.118789 0.329041 0.403205 0.166919
H2    H     H_    0.229781 0.727324 0.596775 0.156931
H3    H     H_    0.110610 0.907660 0.679923 0.175517
H4    H     H_    0.878295 0.904456 0.684503 0.126472
H5    H     H_    0.764342 0.723770 0.600432 0.138067
H6    H     H_    0.513144 0.111236 0.279868 0.169991
H7    H     H_    0.513097 0.886843 0.280052 0.184422
H8    H     H_    0.470764 0.249963 0.964240 0.149634
H9    H     H_    0.495704 0.087496 0.005377 0.128773
H10   H     H_    0.282434 0.064961 0.086292 0.273578
H11   H     H_    0.343078 0.205996 0.160547 0.206920
H12   H     H_    0.578695 0.891976 0.769159 0.103300
H13   H     H_    0.235719 0.214221 0.019555 0.257680
H14   H     H_    0.778332 0.241613 0.555971 0.132228
H15   H     H_    0.942562 0.194332 0.549029 0.137320
H16   H     H_    0.904145 0.050365 0.365589 0.254742
H17   H     H_    0.784894 0.023843 0.493550 0.199398
H18   H     H_    0.746436 0.108976 0.341710 0.264860
H19   H     H_    0.574792 0.119786 0.767930 0.027258
H20   H     H_    0.686911 0.431944 0.124633 0.182117
H21   H     H_    0.687470 0.433510 0.872831 0.159754
H22   H     H_    0.202849 0.569503 0.878524 0.233110
H23   H     H_    0.259592 0.403891 0.883271 0.229134
H24   H     H_    0.203895 0.579366 0.120565 0.225934
H25   H     H_    0.255841 0.413103 0.128311 0.217200
I1    I     I_    0.340370 0.847540 0.881351 -0.429421
N1    N     N_R   0.499160 0.499140 0.142800 -0.118267
N2    N     N_R   0.499160 0.499180 0.857150 -0.108368
O1    O     O_R   0.500020 0.316790 0.614690 -0.613857
O2    O     O_3   0.876618 0.304805 0.387880 -0.604212
O3    O     O_R   0.500000 0.316760 0.385350 -0.620748
O4    O     O_R   0.316770 0.500020 0.614690 -0.613600
O5    O     O_R   0.316760 0.499980 0.385350 -0.621674
O6    O     O_R   0.500000 0.683240 0.614650 -0.608670
O7    O     O_R   0.499980 0.683210 0.385310 -0.618563
O8    O     O_R   0.683240 0.500020 0.614650 -0.645688
O9    O     O_R   0.683230 0.499980 0.385310 -0.589750
O10   O     O_3   0.382458 0.127370 0.835369 -0.558251
Zn1   Zn    Zn3+2 0.500010 0.500020 0.653130 0.956482
Zn2   Zn    Zn3+2 0.499990 0.499980 0.346870 0.955993

loop_
_geom_bond_atom_site_label_1
_geom_bond_atom_site_label_2
_ccdc_geom_bond_type
C12   C17   A    
C19   C20   A    
O9    Zn2   S    
C14   H24   S    
C14   H25   S    
C6    C7    S    
C16   O8    A    
C32   H6    S    
O5    Zn2   S    
C24   H10   S    
C9    C10   A    
C6    I1    S    
C10   N2    A    
O6    Zn1   S    
C26   H16   S    
N1    Zn2   S    
C25   O2    S    
C22   H8    S    
O1    Zn1   S    
C7    O10   S    
C26   H18   S    
C2    C3    A    
C16   C29   S    
C15   O7    A    
C7    C30   S    
C6    H12   S    
C13   C14   S    
C27   H1    S    
C20   H5    S    
C11   C13   S    
C12   C23   A    
C5    C6    S    
C9    H20   S    
C8    C11   A    
C24   H13   S    
C12   C21   A    
C2    C32   A    
C28   C29   A    
C17   C18   A    
C23   C27   A    
C19   H4    S    
O8    Zn1   S    
C8    N1    A    
C4    O5    A    
C24   H11   S    
C22   C24   S    
O4    Zn1   S    
C22   H9    S    
C17   H2    S    
C2    H7    S    
C7    H19   S    
C11   N2    A    
C1    O3    A    
C1    C31   S    
O7    Zn2   S    
C3    C15   S    
O3    Zn2   S    
C20   C21   A    
C13   H22   S    
C18   H3    S    
C26   H17   S    
C27   C28   A    
C10   H21   S    
C4    C23   S    
C4    O4    A    
C30   C31   A    
C18   C19   A    
C8    C14   S    
C25   H15   S    
C1    O1    A    
N2    Zn1   S    
C3    C5    A    
C25   C26   S    
C15   O6    A    
C21   C29   A    
C25   H14   S    
C22   O10   S    
C16   O9    A    
C31   C32   A    
C5    C30   A    
C13   H23   S    
C9    N1    A    
C28   O2    S    
