data_mof_unit_34837.cif
_audit_creation_date              2012-12-10T18:18:17-0500
_audit_creation_method            fapswitch 2.2
_symmetry_space_group_name_H-M    P1
_symmetry_Int_Tables_number       1
_space_group_crystal_system       triclinic
_cell_length_a                    14.081933
_cell_length_b                    15.028744
_cell_length_c                    15.425021
_cell_angle_alpha                 89.369005
_cell_angle_beta                  68.131549
_cell_angle_gamma                 90.825348
_cell_volume                      3028.76377398

loop_
_atom_site_label
_atom_site_type_symbol
_atom_type_description
_atom_site_fract_x
_atom_site_fract_y
_atom_site_fract_z
_atom_type_partial_charge
C1    C     C_R   0.498400 0.672900 0.505635 0.878978
C2    C     C_R   0.496848 0.768518 0.511663 -0.120310
C3    C     C_R   0.455279 0.182786 0.434059 0.099511
C4    C     C_R   0.545754 0.816221 0.562806 0.110603
C5    C     C_R   0.446915 0.089311 0.446416 0.098693
C6    C     C_R   0.554898 0.909576 0.550461 0.097280
C7    C     C_R   0.502554 0.046042 0.494153 0.041894
C8    C     C_R   0.500326 0.952985 0.501763 0.032397
C9    C     C_R   0.560863 0.095443 0.533988 0.111152
C10   C     C_R   0.443313 0.903550 0.460550 0.118391
C11   C     C_R   0.385295 0.037511 0.411509 -0.247233
C12   C     C_R   0.502336 0.327021 0.492546 0.895051
C13   C     C_R   0.616614 0.960917 0.585414 -0.227924
C14   C     C_R   0.386415 0.945726 0.415764 -0.230331
C15   C     C_R   0.618516 0.052944 0.578175 -0.215724
C16   C     C_R   0.436126 0.503910 0.675987 0.917012
C17   C     C_R   0.563680 0.500244 0.323987 0.938632
C18   C     C_R   0.174763 0.445104 0.564168 0.071150
C19   C     C_R   0.822421 0.562946 0.449371 0.112485
C20   C     C_R   0.219900 0.567479 0.456549 0.638480
C21   C     C_R   0.771629 0.441971 0.558101 0.649912
C22   C     C_R   0.114472 0.578328 0.469416 -0.140049
C23   C     C_R   0.375497 0.552834 0.102570 0.090057
C24   C     C_R   0.868372 0.444767 0.568446 -0.148278
C25   C     C_R   0.042261 0.512047 0.519168 -0.056442
C26   C     C_R   0.941121 0.511754 0.518976 -0.051236
C27   C     C_R   0.068199 0.451897 0.576599 -0.023408
C28   C     C_R   0.913456 0.578064 0.468341 -0.034322
C29   C     C_R   0.074966 0.659363 0.449019 0.110542
C30   C     C_R   0.892517 0.388247 0.631667 0.063564
C31   C     C_R   0.973992 0.658947 0.445426 0.092139
C32   C     C_R   0.984397 0.405268 0.647417 0.092166
C33   C     C_R   0.397419 0.525791 0.775175 -0.205800
C34   C     C_R   0.623379 0.535468 0.896420 0.087539
C35   C     C_R   0.602154 0.497095 0.222529 -0.220113
C36   C     C_R   0.276153 0.598648 0.912274 0.004888
C37   C     C_R   0.706948 0.429825 0.075539 0.012548
C38   C     C_R   0.304356 0.569310 0.819100 0.551669
C39   C     C_R   0.682821 0.441907 0.172121 0.533555
C40   C     C_R   0.463946 0.515274 0.821299 -0.366437
C41   C     C_R   0.543919 0.538204 0.178861 -0.341406
C42   C     C_R   0.443946 0.551448 0.908559 0.057285
C43   C     C_R   0.555924 0.517361 0.088285 0.057974
C44   C     C_R   0.344639 0.581997 0.959208 0.028552
C45   C     C_R   0.312836 0.584580 0.056710 -0.254108
C46   C     C_R   0.647791 0.475814 0.032752 0.018279
C47   C     C_R   0.517245 0.545375 0.950313 0.033440
C48   C     C_R   0.482690 0.540920 0.049174 0.038118
C49   C     C_3   0.204468 0.374576 0.619934 -0.305686
C50   C     C_3   0.188509 0.279829 0.591239 -0.393970
C51   C     C_3   0.223523 0.210088 0.645010 -0.883080
C52   C     C_3   0.819811 0.595493 0.357351 -0.411523
C53   C     C_3   0.857554 0.523800 0.282647 -0.245418
C54   C     C_3   0.974123 0.515515 0.243830 -0.909639
C55   C     C_3   0.128660 0.746826 0.456950 -0.403979
C56   C     C_R   0.682062 0.488349 0.935912 -0.265060
C57   C     C_3   0.132994 0.755038 0.555235 -0.319165
C58   C     C_3   0.133067 0.851660 0.584657 -0.905815
C59   C     C_3   0.831550 0.302397 0.672165 -0.363439
C60   C     C_3   0.734387 0.314404 0.760603 -0.271611
C61   C     C_3   0.657066 0.238350 0.773383 -0.848957
C62   C     C_3   0.921165 0.747212 0.443850 -0.435310
C63   C     C_3   0.969341 0.801833 0.351464 -0.360227
C64   C     C_3   0.951299 0.901236 0.368224 -0.887598
C65   C     C_3   0.979965 0.390831 0.747318 -0.448385
C66   C     C_3   0.008407 0.475761 0.789153 -0.324058
C67   C     C_R   0.559579 0.186972 0.530813 -0.289461
C68   C     C_3   0.049046 0.454471 0.866337 -0.858312
C69   C     C_3   0.174741 0.644931 0.963535 -0.424668
C70   C     C_3   0.129351 0.698315 0.902813 -0.254744
C71   C     C_3   0.043378 0.757788 0.962576 -0.961670
C72   C     C_3   0.785599 0.363485 0.017320 -0.441184
C73   C     C_3   0.835460 0.301407 0.067406 -0.235203
C74   C     C_3   0.892965 0.226659 0.003829 -0.970852
C75   C     C_3   0.317939 0.514357 0.200760 -0.390270
C76   C     C_3   0.318169 0.412349 0.200762 -0.330821
C77   C     C_3   0.251899 0.373512 0.296494 -0.898756
C78   C     C_R   0.444776 0.812207 0.463220 -0.288835
C79   C     C_3   0.678358 0.579506 0.800892 -0.430199
C80   C     C_3   0.754624 0.651993 0.805110 -0.327883
C81   C     C_3   0.825724 0.682353 0.707429 -0.916628
C82   C     C_3   0.415104 0.228065 0.365266 -0.403815
C83   C     C_3   0.467189 0.195836 0.264017 -0.398903
C84   C     C_3   0.563737 0.249246 0.210823 -0.811984
C85   C     C_3   0.578435 0.769826 0.636052 -0.414660
C86   C     C_3   0.518260 0.800232 0.736567 -0.372075
C87   C     C_3   0.402582 0.794351 0.762449 -0.806026
C88   C     C_R   0.505298 0.230984 0.484300 -0.122962
F1    F     F_    0.292941 0.624895 0.401519 -0.712622
F2    F     F_    0.697700 0.381735 0.604873 -0.689624
F3    F     F_    0.731767 0.397056 0.219151 -0.735103
F4    F     F_    0.243966 0.584136 0.769732 -0.715240
H1    H     H_    0.233500 0.597190 0.098173 0.139623
H2    H     H_    0.665207 0.090981 0.607295 0.146331
H3    H     H_    0.305178 0.221464 0.634407 0.268955
H4    H     H_    0.176343 0.212968 0.720816 0.255190
H5    H     H_    0.214777 0.142715 0.619734 0.257835
H6    H     H_    0.106986 0.266110 0.603199 0.219479
H7    H     H_    0.232452 0.273522 0.515788 0.231471
H8    H     H_    0.280822 0.382639 0.617170 0.261982
H9    H     H_    0.168227 0.383893 0.694795 0.196475
H10   H     H_    0.011929 0.580596 0.215338 0.249044
H11   H     H_    0.000952 0.491618 0.298971 0.268824
H12   H     H_    0.758512 0.470498 0.891287 0.141433
H13   H     H_    0.997190 0.466698 0.186491 0.252864
H14   H     H_    0.822476 0.458178 0.312148 0.287565
H15   H     H_    0.833820 0.541920 0.223761 0.226314
H16   H     H_    0.742269 0.616878 0.366174 0.218573
H17   H     H_    0.868746 0.654027 0.329385 0.190153
H18   H     H_    0.197098 0.889824 0.532536 0.274122
H19   H     H_    0.059721 0.883093 0.591579 0.253356
H20   H     H_    0.141870 0.854083 0.653214 0.259404
H21   H     H_    0.065683 0.720457 0.608325 0.220734
H22   H     H_    0.203060 0.723039 0.556602 0.259098
H23   H     H_    0.491172 0.588743 0.215691 0.194458
H24   H     H_    0.206363 0.752666 0.402211 0.234729
H25   H     H_    0.090643 0.806106 0.444163 0.215824
H26   H     H_    0.629905 0.237710 0.714481 0.284814
H27   H     H_    0.692279 0.173500 0.777268 0.241022
H28   H     H_    0.590038 0.247282 0.839252 0.241353
H29   H     H_    0.753760 0.314567 0.823781 0.176759
H30   H     H_    0.696983 0.378111 0.758494 0.252383
H31   H     H_    0.812644 0.269483 0.616267 0.234532
H32   H     H_    0.881203 0.254133 0.689588 0.160142
H33   H     H_    0.867927 0.913944 0.400075 0.270778
H34   H     H_    0.532678 0.477533 0.788253 0.207777
H35   H     H_    0.988882 0.926092 0.415292 0.253116
H36   H     H_    0.983942 0.938512 0.300697 0.251431
H37   H     H_    0.052752 0.790639 0.317356 0.219510
H38   H     H_    0.935298 0.782599 0.300137 0.213150
H39   H     H_    0.838086 0.737635 0.459426 0.190300
H40   H     H_    0.922381 0.786684 0.503976 0.212070
H41   H     H_    0.015793 0.392015 0.904345 0.250345
H42   H     H_    0.133162 0.446879 0.836678 0.284420
H43   H     H_    0.030395 0.508905 0.917554 0.251082
H44   H     H_    0.066674 0.518018 0.735386 0.257464
H45   H     H_    0.600206 0.224412 0.566411 0.201629
H46   H     H_    0.939242 0.517056 0.818471 0.200195
H47   H     H_    0.901515 0.373702 0.794775 0.185490
H48   H     H_    0.021693 0.330761 0.753380 0.203551
H49   H     H_    0.981888 0.717012 0.015227 0.267710
H50   H     H_    0.073268 0.807908 0.998888 0.266656
H51   H     H_    0.010255 0.793389 0.917291 0.258919
H52   H     H_    0.189621 0.740808 0.851200 0.242581
H53   H     H_    0.095911 0.652858 0.865197 0.273770
H54   H     H_    0.117472 0.594572 0.006434 0.192662
H55   H     H_    0.187651 0.693687 0.011895 0.201972
H56   H     H_    0.405266 0.774657 0.426595 0.207860
H57   H     H_    0.838257 0.182259 0.987573 0.265999
H58   H     H_    0.950091 0.253330 0.937337 0.262560
H59   H     H_    0.933256 0.186527 0.039900 0.262702
H60   H     H_    0.889709 0.340341 0.089939 0.250297
H61   H     H_    0.776657 0.268716 0.129057 0.268364
H62   H     H_    0.746623 0.320748 0.981789 0.201333
H63   H     H_    0.847212 0.401575 0.963159 0.206052
H64   H     H_    0.284270 0.392667 0.349228 0.271419
H65   H     H_    0.172330 0.397747 0.318439 0.261425
H66   H     H_    0.249661 0.299836 0.293178 0.241251
H67   H     H_    0.337043 0.066601 0.378809 0.153592
H68   H     H_    0.287778 0.387751 0.148237 0.224886
H69   H     H_    0.397454 0.388449 0.181648 0.230345
H70   H     H_    0.345026 0.539642 0.253957 0.252291
H71   H     H_    0.236596 0.534901 0.226943 0.197871
H72   H     H_    0.877588 0.627754 0.672494 0.272090
H73   H     H_    0.781095 0.702028 0.664576 0.258073
H74   H     H_    0.873049 0.740305 0.712506 0.250243
H75   H     H_    0.711475 0.709986 0.843346 0.218795
H76   H     H_    0.802674 0.627418 0.843013 0.222563
H77   H     H_    0.719419 0.528364 0.749966 0.207124
H78   H     H_    0.664606 0.931014 0.617947 0.146119
H79   H     H_    0.624555 0.612545 0.774272 0.210062
H80   H     H_    0.542404 0.318025 0.200873 0.252189
H81   H     H_    0.615456 0.249245 0.250327 0.294707
H82   H     H_    0.603347 0.219980 0.141054 0.238446
H83   H     H_    0.487553 0.124691 0.260575 0.239694
H84   H     H_    0.413461 0.203659 0.226961 0.212595
H85   H     H_    0.332113 0.213552 0.387710 0.154373
H86   H     H_    0.422914 0.301350 0.363746 0.236877
H87   H     H_    0.377321 0.848666 0.727097 0.260773
H88   H     H_    0.380491 0.729607 0.741086 0.270314
H89   H     H_    0.341766 0.907579 0.384586 0.148707
H90   H     H_    0.363110 0.801049 0.839141 0.235748
H91   H     H_    0.538446 0.756743 0.785637 0.211082
H92   H     H_    0.539847 0.869166 0.747561 0.223355
H93   H     H_    0.566866 0.696899 0.638530 0.217818
H94   H     H_    0.661654 0.780987 0.618085 0.154981
N1    N     N_R   0.249980 0.499930 0.499960 -0.159694
N2    N     N_R   0.750020 0.500070 0.500040 -0.156518
O1    O     O_R   0.419720 0.632140 0.499980 -0.554942
O2    O     O_R   0.580280 0.367860 0.500020 -0.543182
O3    O     O_R   0.580270 0.632160 0.499970 -0.667289
O4    O     O_R   0.419730 0.367840 0.500030 -0.672459
O5    O     O_R   0.373870 0.499980 0.632250 -0.591565
O6    O     O_R   0.626130 0.500020 0.367750 -0.602742
O7    O     O_R   0.534420 0.500000 0.632240 -0.590907
O8    O     O_R   0.465580 0.500000 0.367760 -0.594074
Zn1   Zn    Zn3+2 0.392800 0.499980 0.500010 0.975865
Zn2   Zn    Zn3+2 0.607200 0.500020 0.499990 0.975714

loop_
_geom_bond_atom_site_label_1
_geom_bond_atom_site_label_2
_ccdc_geom_bond_type
C51   H5    S    
C66   C68   S    
C34   C79   S    
C34   C56   A    
C23   C45   A    
C22   C29   A    
C83   H83   S    
C63   H37   S    
C61   H27   S    
C73   C74   S    
C2    C4    A    
O3    Zn2   S    
C45   H1    S    
C87   H90   S    
C10   C78   A    
C11   H67   S    
C7    C8    A    
C53   C54   S    
C44   C45   A    
C50   H7    S    
N1    Zn1   S    
C75   H70   S    
C58   H20   S    
C68   H41   S    
C24   C26   A    
C5    C11   A    
C77   H64   S    
C49   H9    S    
C19   N2    A    
C11   C14   A    
C55   H24   S    
C38   F4    S    
C18   N1    A    
C85   H94   S    
C75   H71   S    
C1    C2    S    
C63   H38   S    
C79   H79   S    
C16   O5    A    
C87   H88   S    
C65   H48   S    
C53   H14   S    
C83   C84   S    
C76   H69   S    
C64   H36   S    
C22   C25   A    
C81   H74   S    
C74   H57   S    
C70   C71   S    
C43   C48   A    
C80   H75   S    
C64   H33   S    
C78   H56   S    
C51   H4    S    
C71   H49   S    
O7    Zn2   S    
C40   C42   A    
C61   H26   S    
C59   C60   S    
C72   H63   S    
C83   H84   S    
C61   H28   S    
C59   H31   S    
C69   H54   S    
C41   C43   A    
C31   C62   S    
C17   O6    A    
C69   C70   S    
C42   C44   A    
C41   H23   S    
C84   H82   S    
C19   C52   S    
C39   F3    S    
C3    C88   A    
C21   F2    S    
C68   H43   S    
C85   H93   S    
C12   O4    A    
C86   H92   S    
C50   H6    S    
C33   C40   A    
C72   H62   S    
C12   C88   S    
C58   H19   S    
C62   H40   S    
C54   H11   S    
C76   C77   S    
C56   H12   S    
C72   C73   S    
C4    C6    A    
C10   C14   A    
C5    C7    A    
C86   C87   S    
O8    Zn1   S    
C57   H21   S    
C4    C85   S    
C29   C55   S    
C84   H80   S    
C25   C26   A    
C85   C86   S    
C63   C64   S    
C60   C61   S    
C35   C39   A    
C75   C76   S    
C9    C67   A    
C62   C63   S    
C2    C78   A    
C16   C33   S    
C53   H15   S    
C47   C48   A    
C66   H46   S    
N2    Zn2   S    
C64   H35   S    
C40   H34   S    
C30   C59   S    
C82   H86   S    
C3    C82   S    
C50   C51   S    
C67   C88   A    
C70   H53   S    
O4    Zn1   S    
C60   H30   S    
C19   C28   A    
C77   H65   S    
C71   H50   S    
C66   H44   S    
C1    O3    A    
C8    C10   A    
C13   H78   S    
C20   C22   A    
C82   C83   S    
C13   C15   A    
C73   H60   S    
C86   H91   S    
C69   H55   S    
C81   H72   S    
C74   H59   S    
C36   C44   A    
C21   C24   A    
C46   C56   A    
C84   H81   S    
C14   H89   S    
C36   C38   A    
C52   C53   S    
O2    Zn2   S    
C21   N2    A    
C71   H51   S    
C55   H25   S    
O1    Zn1   S    
C59   H32   S    
C7    C9    A    
C76   H68   S    
C23   C48   A    
C54   H13   S    
C27   C32   A    
C58   H18   S    
C70   H52   S    
C62   H39   S    
C54   H10   S    
C28   C31   A    
C18   C27   A    
C23   C75   S    
C80   C81   S    
C3    C5    A    
C6    C8    A    
C57   H22   S    
C25   C27   A    
C12   O2    A    
C20   F1    S    
C77   H66   S    
C26   C28   A    
C33   C38   A    
C79   H77   S    
C55   C57   S    
C36   C69   S    
C9    C15   A    
C29   C31   A    
C16   O7    A    
C6    C13   A    
C30   C32   A    
C57   C58   S    
O6    Zn2   S    
C52   H17   S    
O5    Zn1   S    
C82   H85   S    
C68   H42   S    
C42   C47   A    
C65   C66   S    
C60   H29   S    
C35   C41   A    
C43   C46   A    
C24   C30   A    
C87   H87   S    
C79   C80   S    
C65   H47   S    
C15   H2    S    
C52   H16   S    
C37   C39   A    
C49   C50   S    
C37   C72   S    
C73   H61   S    
C81   H73   S    
C74   H58   S    
C17   O8    A    
C34   C47   A    
C17   C35   S    
C20   N1    A    
C37   C46   A    
C67   H45   S    
C80   H76   S    
C18   C49   S    
C51   H3    S    
C32   C65   S    
C49   H8    S    
C1    O1    A    
