data_mof_unit_62410.cif
_audit_creation_date              2013-03-05T16:26:40-0500
_audit_creation_method            fapswitch 2.2
_symmetry_space_group_name_H-M    P1
_symmetry_Int_Tables_number       1
_space_group_crystal_system       triclinic
_cell_length_a                    39.289885
_cell_length_b                    32.240718
_cell_length_c                    22.000049
_cell_angle_alpha                 89.100146
_cell_angle_beta                  124.831956
_cell_angle_gamma                 90.43645
_cell_volume                      22872.234076

loop_
_atom_site_label
_atom_site_type_symbol
_atom_site_description
_atom_site_fract_x
_atom_site_fract_y
_atom_site_fract_z
_atom_type_partial_charge
O1    O     O_R   0.440150 0.534640 0.440170 -0.575783
O2    O     O_R   0.559850 0.534640 0.559830 -0.574590
O3    O     O_R   0.940150 0.034640 0.440170 -0.572128
O4    O     O_R   0.059850 0.034640 0.559830 -0.577815
O5    O     O_R   0.440150 0.465360 0.440130 -0.578548
O6    O     O_R   0.559850 0.465360 0.559870 -0.577878
O7    O     O_R   0.940150 0.965360 0.440130 -0.581058
O8    O     O_R   0.059850 0.965360 0.559870 -0.575488
C1    C     C_R   0.420420 0.500023 0.420424 0.820993
C2    C     C_R   0.579580 0.499971 0.579580 0.822749
C3    C     C_R   0.920420 0.000022 0.420420 0.822666
C4    C     C_R   0.079580 0.999972 0.579580 0.822487
O9    O     O_R   0.500010 0.534640 0.589030 -0.580744
O10   O     O_R   0.499990 0.534640 0.410970 -0.582218
O11   O     O_R   0.000010 0.034640 0.589030 -0.591301
O12   O     O_R   0.999990 0.034640 0.410970 -0.581948
O13   O     O_R   0.500010 0.465360 0.588990 -0.591347
O14   O     O_R   0.499990 0.465360 0.411010 -0.592111
O15   O     O_R   0.000010 0.965360 0.588990 -0.583006
O16   O     O_R   0.999990 0.965360 0.411010 -0.592468
C5    C     C_R   0.499722 0.500077 0.617409 0.827818
C6    C     C_R   0.499582 0.500672 0.381782 0.829244
C7    C     C_R   0.000438 0.999314 0.618240 0.829280
C8    C     C_R   0.999581 0.000672 0.381782 0.829181
Cu1   Cu    Cu3+1 0.500000 0.541020 0.500000 0.988367
Cu2   Cu    Cu3+1 0.000000 0.041020 0.500000 0.988189
Cu3   Cu    Cu3+1 0.500000 0.458980 0.500000 0.981962
Cu4   Cu    Cu3+1 0.000000 0.958980 0.500000 0.980992
C9    C     C_2   0.529976 0.481803 0.813574 -0.150350
C10   C     C_2   0.470321 0.480319 0.187317 -0.151612
C11   C     C_2   0.029669 0.019715 0.812680 -0.151600
C12   C     C_2   0.970322 0.980316 0.187317 -0.151579
C13   C     C_2   0.497025 0.485787 0.816069 -0.309919
C14   C     C_2   0.503172 0.486970 0.185138 -0.309613
C15   C     C_2   0.996825 0.012987 0.814847 -0.309746
C16   C     C_2   0.003172 0.986971 0.185139 -0.310055
H1    H     H_    0.561240 0.482811 0.863697 0.175676
H2    H     H_    0.439282 0.478281 0.136828 0.175668
H3    H     H_    0.060698 0.021838 0.863173 0.175830
H4    H     H_    0.939283 0.978275 0.136828 0.175700
H5    H     H_    0.466217 0.480385 0.766669 0.172596
H6    H     H_    0.534144 0.484454 0.235790 0.172263
H7    H     H_    0.965852 0.015422 0.764173 0.172484
H8    H     H_    0.034144 0.984457 0.235791 0.172164
C17   C     C_2   0.524222 0.477088 0.741710 -0.155259
C18   C     C_2   0.476124 0.476285 0.259506 -0.156888
C19   C     C_2   0.023869 0.023733 0.740490 -0.156162
C20   C     C_2   0.976125 0.976283 0.259507 -0.156911
C21   C     C_2   0.498963 0.502171 0.682902 0.033878
C22   C     C_2   0.498212 0.504086 0.313945 0.028912
C23   C     C_2   0.001865 0.995868 0.686133 0.029159
C24   C     C_2   0.998210 0.004086 0.313943 0.028867
H9    H     H_    0.544575 0.455507 0.739451 0.139791
H10   H     H_    0.459060 0.451929 0.265830 0.145145
H11   H     H_    0.040843 0.048157 0.734086 0.146348
H12   H     H_    0.959064 0.951924 0.265834 0.145124
H13   H     H_    0.289430 0.433349 0.281420 0.161830
H14   H     H_    0.710904 0.433749 0.728042 0.161767
H15   H     H_    0.789503 0.933023 0.288050 0.161656
H16   H     H_    0.210764 0.932874 0.715450 0.162400
C25   C     C_R   0.228640 0.461211 0.224836 0.109327
C26   C     C_R   0.771554 0.461405 0.780654 0.109693
C27   C     C_R   0.728682 0.961034 0.228672 0.109149
C28   C     C_R   0.271474 0.960925 0.773363 0.108303
C29   C     C_R   0.206333 0.498882 0.207746 0.042052
C30   C     C_R   0.793672 0.498765 0.792400 0.042143
C31   C     C_R   0.706333 0.998894 0.207825 0.041994
C32   C     C_R   0.293671 0.998799 0.792234 0.042165
C33   C     C_R   0.228226 0.536529 0.234634 0.362485
C34   C     C_R   0.771589 0.536071 0.760187 0.362699
C35   C     C_R   0.728185 0.036729 0.230965 0.362216
C36   C     C_R   0.271668 0.036616 0.767121 0.362606
C37   C     C_R   0.271619 0.536662 0.277768 -0.201299
C38   C     C_R   0.728197 0.536175 0.717045 -0.201078
C39   C     C_R   0.771577 0.036857 0.274089 -0.200667
C40   C     C_R   0.228276 0.036713 0.723992 -0.202284
H17   H     H_    0.288147 0.565769 0.298125 0.186315
H18   H     H_    0.711523 0.565021 0.692569 0.186282
H19   H     H_    0.788072 0.066107 0.291545 0.186698
H20   H     H_    0.211664 0.065951 0.705010 0.186006
C41   C     C_R   0.293661 0.499560 0.294587 0.039448
C42   C     C_R   0.706341 0.499384 0.705492 0.039517
C43   C     C_R   0.793661 0.999565 0.294613 0.039398
C44   C     C_R   0.206341 0.999409 0.705415 0.039472
C45   C     C_R   0.272203 0.462068 0.268221 -0.167312
C46   C     C_R   0.727986 0.462228 0.737164 -0.167287
C47   C     C_R   0.772245 0.961889 0.271981 -0.167804
C48   C     C_R   0.227907 0.961749 0.730011 -0.166231
C49   C     C_1   0.161414 0.499381 0.162776 0.052096
C50   C     C_1   0.838588 0.499307 0.837294 0.052428
C51   C     C_1   0.661414 0.999386 0.162808 0.051921
C52   C     C_1   0.338588 0.999325 0.837224 0.051929
C53   C     C_1   0.338398 0.499899 0.338967 -0.009343
C54   C     C_1   0.661603 0.499711 0.661077 -0.009073
C55   C     C_1   0.838398 0.999898 0.338968 -0.009141
C56   C     C_1   0.161603 0.999723 0.661045 -0.009232
C57   C     C_1   0.375839 0.500037 0.376115 -0.156689
C58   C     C_1   0.624162 0.499883 0.623907 -0.157233
C59   C     C_1   0.875838 0.000034 0.376109 -0.156908
C60   C     C_1   0.124162 0.999887 0.623896 -0.156957
C61   C     C_1   0.123968 0.499727 0.125033 -0.106978
C62   C     C_1   0.876033 0.499690 0.874990 -0.106812
C63   C     C_1   0.623968 0.999727 0.125039 -0.106993
C64   C     C_1   0.376033 0.999698 0.874975 -0.106934
O17   O     O_R   0.534640 0.440150 0.034560 -0.580929
O18   O     O_R   0.465360 0.440150 0.965440 -0.581504
O19   O     O_R   0.034640 0.940150 0.034560 -0.576484
O20   O     O_R   0.965360 0.940150 0.965440 -0.577777
C65   C     C_R   0.500026 0.420416 0.000037 0.809764
C66   C     C_R   0.000025 0.920420 0.999978 0.822450
O21   O     O_R   0.534630 0.500000 0.945560 -0.580854
O22   O     O_R   0.465370 0.500000 0.054440 -0.580464
O23   O     O_R   0.034630 0.000000 0.945560 -0.580306
O24   O     O_R   0.965370 0.000000 0.054440 -0.580288
O25   O     O_R   0.465350 0.500000 0.876310 -0.585991
O26   O     O_R   0.534650 0.500000 0.123690 -0.586013
O27   O     O_R   0.965350 0.000000 0.876310 -0.585943
O28   O     O_R   0.034650 0.000000 0.123690 -0.585997
C67   C     C_R   0.499581 0.495977 0.882635 0.851545
C68   C     C_R   0.500457 0.496123 0.117639 0.850967
C69   C     C_R   0.999543 0.003867 0.882358 0.850692
C70   C     C_R   0.000457 0.996124 0.117639 0.850846
Cu5   Cu    Cu3+1 0.541020 0.500000 0.040980 0.988857
Cu6   Cu    Cu3+1 0.458980 0.500000 0.959020 0.988430
Cu7   Cu    Cu3+1 0.041020 0.000000 0.040980 0.988389
Cu8   Cu    Cu3+1 0.958980 0.000000 0.959020 0.988480
O29   O     O_R   0.534640 0.559850 0.034640 -0.573201
O30   O     O_R   0.465360 0.559850 0.965360 -0.573056
O31   O     O_R   0.034640 0.059850 0.034640 -0.577799
O32   O     O_R   0.965360 0.059850 0.965360 -0.576495
C71   C     C_R   0.499974 0.579584 0.999986 0.834474
C72   C     C_R   0.999975 0.079586 0.000021 0.822546
O33   O     O_R   0.000000 0.440190 0.051560 -0.574213
O34   O     O_R   0.000000 0.440190 0.948440 -0.572466
O35   O     O_R   0.500000 0.940190 0.051560 -0.574111
O36   O     O_R   0.500000 0.940190 0.948440 -0.572595
C73   C     C_R   0.000001 0.420637 0.000413 0.800666
C74   C     C_R   0.500000 0.920637 0.000413 0.800598
O37   O     O_R   0.059850 0.500040 0.111340 -0.570226
O38   O     O_R   0.940150 0.500040 0.888660 -0.569184
O39   O     O_R   0.559850 0.000040 0.111340 -0.571153
O40   O     O_R   0.440150 0.000040 0.888660 -0.571052
O41   O     O_R   0.059840 0.499970 0.008270 -0.572136
O42   O     O_R   0.940160 0.499970 0.991730 -0.573043
O43   O     O_R   0.559840 0.999970 0.008270 -0.571230
O44   O     O_R   0.440160 0.999970 0.991730 -0.571312
C75   C     C_R   0.079394 0.499976 0.079709 0.819101
C76   C     C_R   0.920606 0.499977 0.920293 0.819144
C77   C     C_R   0.579394 0.999976 0.079709 0.819193
C78   C     C_R   0.420606 0.999977 0.920292 0.819268
Cu9   Cu    Cu3+1 0.000010 0.500040 0.061000 1.033932
Cu10  Cu    Cu3+1 0.999990 0.500040 0.939000 1.035774
Cu11  Cu    Cu3+1 0.500010 0.000040 0.061000 1.034582
Cu12  Cu    Cu3+1 0.499990 0.000040 0.939000 1.034849
O45   O     O_R   0.000010 0.559880 0.051460 -0.567898
O46   O     O_R   0.999990 0.559880 0.948540 -0.568610
O47   O     O_R   0.500010 0.059880 0.051460 -0.567665
O48   O     O_R   0.499990 0.059880 0.948540 -0.568889
C79   C     C_R   1.000000 0.579450 0.999586 0.823278
C80   C     C_R   0.499999 0.079450 0.999586 0.823458
H21   H     H_    0.433425 0.288688 0.933660 0.188406
H22   H     H_    0.566718 0.288497 0.064058 0.188523
H23   H     H_    0.933487 0.788658 0.936124 0.188388
H24   H     H_    0.066645 0.788529 0.061580 0.188695
C81   C     C_R   0.962361 0.728440 0.962874 0.350528
C82   C     C_R   0.037719 0.728365 0.033882 0.350326
C83   C     C_R   0.462331 0.228456 0.961482 0.350393
C84   C     C_R   0.537765 0.228347 0.035282 0.350338
C85   C     C_R   0.000032 0.706373 0.998246 -0.055614
C86   C     C_R   0.500040 0.206372 0.998251 -0.055762
C87   C     C_R   0.537587 0.271793 0.035417 -0.195354
C88   C     C_R   0.462544 0.271901 0.962004 -0.195572
C89   C     C_R   0.037542 0.771812 0.034021 -0.195281
C90   C     C_R   0.962575 0.771884 0.963390 -0.195821
C91   C     C_R   0.500074 0.293636 0.998921 0.008305
C92   C     C_R   0.000069 0.793637 0.998916 0.008432
C93   C     C_1   0.000023 0.661492 0.998358 0.134619
C94   C     C_1   0.500027 0.161492 0.998360 0.134552
C95   C     C_1   0.500087 0.338378 0.999397 0.010748
C96   C     C_1   0.000084 0.838380 0.999380 0.011204
C97   C     C_1   0.500074 0.375828 0.999750 -0.149660
C98   C     C_1   0.000073 0.875830 0.999717 -0.154074
C99   C     C_1   0.000012 0.624037 0.998725 -0.072478
C100  C     C_1   0.500014 0.124036 0.998726 -0.072371
H25   H     H_    0.433251 0.711607 0.931596 0.188187
H26   H     H_    0.566581 0.711302 0.070684 0.188172
H27   H     H_    0.933269 0.211622 0.930400 0.188206
H28   H     H_    0.066563 0.211286 0.071860 0.187926
C101  C     C_R   0.962219 0.271743 0.961574 0.350938
C102  C     C_R   0.037650 0.271553 0.041617 0.350990
C103  C     C_R   0.462209 0.771735 0.962253 0.350964
C104  C     C_R   0.537661 0.771562 0.040959 0.350935
C105  C     C_R   0.999942 0.293685 0.001725 -0.046867
C106  C     C_R   0.499943 0.793685 0.001734 -0.046847
C107  C     C_R   0.537451 0.728113 0.040436 -0.193916
C108  C     C_R   0.462390 0.728284 0.962134 -0.193879
C109  C     C_R   0.037442 0.228104 0.041092 -0.194259
C110  C     C_R   0.962400 0.228293 0.961455 -0.193576
C111  C     C_R   0.499914 0.706401 0.001079 0.007806
C112  C     C_R   0.999915 0.206401 0.001068 0.007666
C113  C     C_1   0.999965 0.338576 0.001628 0.129559
C114  C     C_1   0.499964 0.838576 0.001631 0.129562
C115  C     C_1   0.499907 0.661646 0.000613 0.010704
C116  C     C_1   0.999909 0.161646 0.000613 0.009975
C117  C     C_1   0.499924 0.624189 0.000267 -0.158345
C118  C     C_1   0.999925 0.124189 0.000281 -0.154318
C119  C     C_1   0.999983 0.376038 0.001269 -0.089920
C120  C     C_1   0.499982 0.876039 0.001269 -0.090016
Cl1   Cl    Cl    0.914352 0.702548 0.917509 -0.534889
Cl2   Cl    Cl    0.085710 0.702377 0.078996 -0.532892
Cl3   Cl    Cl    0.414274 0.202587 0.914347 -0.533294
Cl4   Cl    Cl    0.585803 0.202336 0.082168 -0.532373
Cl5   Cl    Cl    0.914179 0.297804 0.910722 -0.589820
Cl6   Cl    Cl    0.085709 0.297371 0.092720 -0.590477
Cl7   Cl    Cl    0.414157 0.797786 0.912245 -0.590377
Cl8   Cl    Cl    0.585732 0.797391 0.091211 -0.590355
C121  C     C_3   0.475365 0.538368 0.686259 -0.803703
H29   H     H_    0.464620 0.561074 0.640282 0.241079
H30   H     H_    0.446881 0.527303 0.680375 0.222971
H31   H     H_    0.495331 0.555672 0.738575 0.248478
C122  C     C_3   0.516248 0.543267 0.302984 -0.800225
H32   H     H_    0.524177 0.567211 0.344770 0.243371
H33   H     H_    0.545605 0.536198 0.309086 0.223320
H34   H     H_    0.493649 0.557765 0.247938 0.247704
C123  C     C_3   0.983976 0.956617 0.697244 -0.802551
H35   H     H_    0.976130 0.932645 0.655545 0.242688
H36   H     H_    0.006635 0.942199 0.752336 0.247810
H37   H     H_    0.954601 0.963579 0.691144 0.223327
C124  C     C_3   0.016241 0.043270 0.302976 -0.800135
H38   H     H_    0.024166 0.067215 0.344757 0.243303
H39   H     H_    0.045598 0.036205 0.309077 0.223193
H40   H     H_    0.993638 0.057765 0.247927 0.247858
C125  C     C_3   0.207647 0.419636 0.198326 -0.777685
H41   H     H_    0.173355 0.421668 0.164659 0.239126
H42   H     H_    0.216627 0.405160 0.163936 0.239242
H43   H     H_    0.217760 0.399059 0.246803 0.242762
C126  C     C_3   0.792758 0.420203 0.813047 -0.777884
H44   H     H_    0.827038 0.422231 0.846395 0.239060
H45   H     H_    0.783863 0.407606 0.849392 0.238295
H46   H     H_    0.782737 0.398046 0.767610 0.243859
C127  C     C_3   0.707734 0.919253 0.206301 -0.777170
H47   H     H_    0.673440 0.921308 0.172407 0.239202
H48   H     H_    0.716745 0.902811 0.173516 0.240224
H49   H     H_    0.717854 0.900459 0.256688 0.241735
C128  C     C_3   0.292591 0.919162 0.797913 -0.776035
H50   H     H_    0.326877 0.921241 0.831691 0.239202
H51   H     H_    0.283650 0.902755 0.831562 0.240298
H52   H     H_    0.282543 0.900321 0.748508 0.242093
Cl9   Cl    Cl    0.202136 0.584275 0.215112 -0.533984
Cl10  Cl    Cl    0.797438 0.583425 0.772949 -0.535259
Cl11  Cl    Cl    0.702042 0.084713 0.206695 -0.533203
Cl12  Cl    Cl    0.297617 0.084616 0.788887 -0.534554

loop_
_geom_bond_atom_site_label_1
_geom_bond_atom_site_label_2
_geom_bond_distance
_ccdc_geom_bond_type
C101  C110  1.401002 A    
C8    C24   1.464754 S    
O35   C74   1.298406 A    
C43   C47   1.398665 A    
C22   C122  1.525817 S    
O33   C73   1.298410 A    
C42   C54   1.443100 S    
O26   Cu5   1.973300 S    
C53   C57   1.207698 T    
C25   C125  1.508438 S    
C84   Cl4   1.761417 S    
O32   C72   1.285830 A    
C14   H6    1.085709 S    
C16   C70   1.452382 S    
O42   C76   1.296507 A    
C39   C43   1.397704 A    
O38   C76   1.297821 A    
O34   C73   1.296978 A    
C5    C21   1.460721 S    
H16   C48   1.084574 S    
O39   C77   1.297820 A    
Cu5   Cu6   2.646094 S    
C30   C50   1.448839 S    
C121  H31   1.110604 S    
O7    C3    1.285244 A    
C26   C46   1.405446 A    
C10   H2    1.085818 S    
C124  H38   1.108852 S    
C26   C126  1.508435 S    
C86   C94   1.446937 S    
C28   C32   1.417768 A    
C3    C59   1.438000 S    
C41   C53   1.443104 S    
O22   Cu6   1.966674 S    
C122  H34   1.110705 S    
C106  C114  1.447301 S    
O28   C70   1.277436 A    
C72   C118  1.438161 S    
O24   Cu8   1.966674 S    
C55   C59   1.207704 T    
C24   C124  1.525819 S    
C115  C117  1.207801 T    
O23   Cu7   1.966670 S    
C54   C58   1.207700 T    
C27   C127  1.508433 S    
C126  H45   1.110529 S    
C9    C13   1.333983 D    
C123  H37   1.107489 S    
C105  C113  1.447303 S    
O17   Cu5   1.940854 S    
O21   C67   1.286397 A    
C127  H47   1.108157 S    
C44   C56   1.443106 S    
C64   C78   1.437538 S    
C2    C58   1.437993 S    
C101  C105  1.409087 A    
O27   C69   1.277420 A    
C103  C108  1.401015 A    
C50   C62   1.207736 T    
O43   C77   1.296551 A    
C102  C105  1.409063 A    
C62   C76   1.437547 S    
O44   C78   1.296526 A    
H21   C88   1.083760 S    
Cu5   O29   1.940267 S    
C37   H17   1.083805 S    
C81   Cl1   1.761413 S    
C84   C87   1.400866 A    
C94   C100  1.207484 T    
H22   C87   1.083759 S    
O16   C8    1.294351 A    
C27   C47   1.405436 A    
O33   Cu9   1.943967 S    
C34   C38   1.399627 A    
C1    C57   1.437988 S    
Cu9   Cu10  2.683555 S    
C33   C37   1.399659 A    
C9    C17   1.473964 S    
O28   Cu7   1.973300 S    
Cu9   O45   1.937384 S    
O4    C4    1.285381 A    
C15   H7    1.085733 S    
C125  H41   1.108154 S    
C34   Cl10  1.762187 S    
C88   C91   1.399678 A    
C36   C40   1.399625 A    
Cu6   O30   1.940826 S    
O31   C72   1.285688 A    
C103  Cl7   1.761427 S    
C84   C86   1.409016 A    
O34   Cu10  1.937487 S    
O18   C65   1.285662 A    
O12   C8    1.273593 A    
C114  C120  1.207704 T    
C126  H44   1.108147 S    
O48   C80   1.296544 A    
C12   C20   1.473618 S    
O9    Cu1   1.965997 S    
C79   C99   1.437338 S    
C38   C42   1.397711 A    
C108  C111  1.399767 A    
C80   C100  1.437331 S    
H14   C46   1.084583 S    
C35   Cl11  1.762167 S    
C128  H52   1.110464 S    
C96   C98   1.207552 T    
C83   C86   1.408996 A    
C107  C111  1.399767 A    
O46   C79   1.296547 A    
C81   C85   1.408995 A    
O4    Cu2   1.941006 S    
C123  H36   1.110708 S    
C27   C31   1.417751 A    
C40   C44   1.397705 A    
C28   C128  1.508433 S    
H27   C110  1.083761 S    
O45   C79   1.295122 A    
O13   Cu3   1.971550 S    
C104  C107  1.400987 A    
Cu10  O46   1.943938 S    
H26   C107  1.083759 S    
C15   C69   1.452369 S    
C26   C30   1.417785 A    
O1    C1    1.285534 A    
O19   Cu7   1.940854 S    
O36   C74   1.296978 A    
C74   C120  1.437706 S    
O38   Cu10  1.944165 S    
O22   C68   1.287174 A    
O40   C78   1.297798 A    
C10   C14   1.334285 D    
O11   Cu2   1.965997 S    
C19   C23   1.351086 D    
O16   Cu4   1.965120 S    
C81   C90   1.400822 A    
C42   C46   1.398655 A    
O21   Cu5   1.966670 S    
O13   C5    1.293873 A    
O7    Cu4   1.940996 S    
O26   C68   1.277440 A    
C21   C121  1.524603 S    
C32   C36   1.410117 A    
C127  H48   1.110474 S    
C104  C106  1.409060 A    
C109  C112  1.399772 A    
O15   C7    1.273654 A    
O5    C1    1.285270 A    
C122  H32   1.108852 S    
C25   C29   1.417757 A    
C112  C116  1.443116 S    
O37   Cu9   1.944165 S    
O36   Cu12  1.937487 S    
C92   C96   1.442726 S    
C7    C23   1.464844 S    
O6    Cu3   1.941580 S    
C63   C77   1.437540 S    
C17   C21   1.351054 D    
O8    C4    1.285400 A    
C43   C55   1.443109 S    
C18   H10   1.086546 S    
C31   C51   1.448834 S    
C123  H35   1.108840 S    
C113  C119  1.207707 T    
O9    C5    1.271883 A    
H24   C89   1.083757 S    
C36   Cl12  1.762169 S    
O15   Cu4   1.971550 S    
C125  H42   1.110502 S    
O20   C66   1.285602 A    
C101  Cl5   1.761424 S    
C37   C41   1.397709 A    
O43   Cu12  1.938630 S    
O37   C75   1.297831 A    
O41   Cu10  1.938630 S    
C116  C118  1.207788 T    
O41   C75   1.296543 A    
O47   C80   1.295123 A    
O25   C67   1.278006 A    
C85   C93   1.446944 S    
Cu7   Cu8   2.646094 S    
O8    Cu4   1.941580 S    
O19   C66   1.285747 A    
C11   C15   1.334294 D    
C16   H8    1.085710 S    
C40   H20   1.083803 S    
H25   C108  1.083759 S    
O18   Cu6   1.940240 S    
C71   C117  1.438210 S    
O30   C71   1.285789 A    
C12   C16   1.334283 D    
C19   H11   1.086543 S    
C73   C119  1.437706 S    
C89   C92   1.399688 A    
C65   C97   1.437708 S    
C20   H12   1.086544 S    
O17   C65   1.285797 A    
C61   C75   1.437546 S    
C82   C89   1.400870 A    
C28   C48   1.405463 A    
O25   Cu6   1.973298 S    
C49   C61   1.207732 T    
O14   C6    1.294349 A    
C10   C18   1.473615 S    
O3    Cu2   1.941591 S    
O14   Cu3   1.965120 S    
C44   C48   1.398667 A    
C51   C63   1.207730 T    
C110  C112  1.399759 A    
O12   Cu2   1.972425 S    
C111  C115  1.443128 S    
O6    C2    1.285378 A    
C91   C95   1.442717 S    
O1    Cu1   1.941591 S    
Cu12  O48   1.943938 S    
C83   C88   1.400828 A    
C29   C49   1.448837 S    
C33   Cl9   1.762171 S    
C121  H30   1.107411 S    
C18   C22   1.351086 D    
Cu2   Cu4   2.645032 S    
O35   Cu11  1.943967 S    
C6    C22   1.464750 S    
C23   C123  1.525834 S    
C127  H49   1.110465 S    
C13   H5    1.084739 S    
O10   C6    1.273591 A    
O29   C71   1.285662 A    
C128  H51   1.110482 S    
C25   C45   1.405422 A    
C121  H29   1.109457 S    
C103  C106  1.409083 A    
C83   Cl3   1.761419 S    
C124  H39   1.107485 S    
C93   C99   1.207488 T    
C82   Cl2   1.761412 S    
C35   C39   1.399652 A    
O5    Cu3   1.940996 S    
O39   Cu11  1.944165 S    
C30   C34   1.410117 A    
O44   Cu11  1.938644 S    
C87   C91   1.399686 A    
H28   C109  1.083763 S    
C29   C33   1.410140 A    
C56   C60   1.207704 T    
O11   C7    1.294359 A    
C14   C68   1.452380 S    
C32   C52   1.448837 S    
C90   C92   1.399675 A    
H13   C45   1.084581 S    
O2    Cu1   1.941006 S    
C31   C35   1.410138 A    
C12   H4    1.085820 S    
O10   Cu1   1.972425 S    
Cu11  O47   1.937384 S    
C102  Cl6   1.761428 S    
C125  H43   1.110475 S    
H15   C47   1.084580 S    
C4    C60   1.438004 S    
O3    C3    1.285560 A    
C52   C64   1.207729 T    
C13   C67   1.452326 S    
C17   H9    1.086752 S    
C124  H40   1.110707 S    
O24   C70   1.287175 A    
Cu7   O31   1.940267 S    
C20   C24   1.351086 D    
O23   C69   1.287190 A    
C66   C98   1.437758 S    
C82   C85   1.409011 A    
C122  H33   1.107485 S    
C38   H18   1.083809 S    
C126  H46   1.110485 S    
C9    H1    1.085851 S    
O42   Cu9   1.938644 S    
C11   H3    1.085819 S    
Cu8   O32   1.940826 S    
O27   Cu8   1.973298 S    
C11   C19   1.473599 S    
O40   Cu12  1.944165 S    
O20   Cu8   1.940240 S    
Cu11  Cu12  2.683555 S    
C128  H50   1.108160 S    
H23   C90   1.083760 S    
C39   H19   1.083802 S    
C104  Cl8   1.761427 S    
C41   C45   1.398659 A    
C102  C109  1.400985 A    
C95   C97   1.207539 T    
Cu1   Cu3   2.645032 S    
O2    C2    1.285393 A    
