data_mof_unit_24566.cif
_audit_creation_date              2013-03-05T16:35:51-0500
_audit_creation_method            fapswitch 2.2
_symmetry_space_group_name_H-M    P1
_symmetry_Int_Tables_number       1
_space_group_crystal_system       triclinic
_cell_length_a                    23.54197
_cell_length_b                    9.09532
_cell_length_c                    7.785846
_cell_angle_alpha                 90.056342
_cell_angle_beta                  90.035034
_cell_angle_gamma                 89.988063
_cell_volume                      1667.11782161

loop_
_atom_site_label
_atom_site_type_symbol
_atom_site_description
_atom_site_fract_x
_atom_site_fract_y
_atom_site_fract_z
_atom_type_partial_charge
O1    O     O_R   0.500000 0.288390 0.642760 -0.575841
O2    O     O_R   0.500000 0.711610 0.357240 -0.575903
O3    O     O_R   0.500000 0.711610 0.642760 -0.575599
O4    O     O_R   0.500000 0.288390 0.357240 -0.575849
H1    H     H_    0.949515 0.128072 0.444401 0.184808
H2    H     H_    0.050766 0.868982 0.541077 0.184302
H3    H     H_    0.947478 0.867286 0.538734 0.185635
H4    H     H_    0.052800 0.130107 0.442194 0.186607
C1    C     C_R   0.500000 0.220018 0.499948 0.849440
C2    C     C_R   0.499999 0.779982 0.500052 0.849731
O5    O     O_R   0.417880 0.500000 0.642820 -0.588184
O6    O     O_R   0.582120 0.500000 0.357180 -0.581238
O7    O     O_R   0.582120 0.500000 0.642820 -0.588445
O8    O     O_R   0.417880 0.500000 0.357180 -0.580923
C3    C     C_R   0.208825 0.501627 0.498733 0.212770
C4    C     C_R   0.791294 0.494258 0.499116 0.206909
C5    C     C_R   0.390630 0.500180 0.499931 0.844715
C6    C     C_R   0.609377 0.499673 0.500023 0.844920
Cu1   Cu    Cu3+1 0.500000 0.500000 0.669080 1.012011
Cu2   Cu    Cu3+1 0.500000 0.500000 0.330920 1.014592
C7    C     C_R   0.298216 0.530853 0.347794 -0.310347
C8    C     C_R   0.701682 0.470607 0.347242 -0.311905
C9    C     C_R   0.297984 0.471661 0.651164 -0.196616
C10   C     C_R   0.702170 0.522734 0.652348 -0.197908
H5    H     H_    0.321186 0.554177 0.230398 0.173521
H6    H     H_    0.678619 0.450671 0.229034 0.173832
H7    H     H_    0.320497 0.448022 0.769402 0.188556
H8    H     H_    0.679771 0.543777 0.771412 0.187891
C11   C     C_R   0.328100 0.500822 0.499629 -0.162512
C12   C     C_R   0.671921 0.498001 0.499862 -0.162528
C13   C     C_R   0.880353 0.627158 0.507586 0.566740
C14   C     C_R   0.119933 0.370002 0.475933 0.577307
C15   C     C_R   0.881078 0.365368 0.479806 0.602980
C16   C     C_R   0.119221 0.631108 0.511559 0.591233
N1    N     N_R   0.852305 0.495600 0.495435 -0.461913
N2    N     N_R   0.147907 0.500917 0.495277 -0.461488
C17   C     C_R   0.940646 0.364012 0.476123 -0.026097
C18   C     C_R   0.059647 0.632992 0.509857 -0.022611
C19   C     C_R   0.939913 0.630962 0.508026 -0.021840
C20   C     C_R   0.060376 0.366284 0.474458 -0.023176
C21   C     C_R   0.970175 0.498052 0.491808 -0.014407
C22   C     C_R   0.030115 0.499129 0.491850 -0.014005
C23   C     C_R   0.971245 0.232307 0.457957 -0.150683
C24   C     C_R   0.029044 0.764825 0.526487 -0.149799
C25   C     C_R   0.969786 0.763858 0.525106 -0.146741
C26   C     C_R   0.030501 0.233473 0.456670 -0.147695
C27   C     C_1   0.500000 0.065368 0.499928 -0.159537
C28   C     C_1   0.499999 0.934632 0.500071 -0.159550
C29   C     C_R   0.238586 0.532235 0.346624 0.458684
C30   C     C_R   0.761304 0.467992 0.345999 0.458673
C31   C     C_R   0.238710 0.471218 0.652654 0.389337
C32   C     C_R   0.761443 0.520824 0.654114 0.392600
N3    N     N_1   0.500000 0.500000 0.076820 -0.047257
N4    N     N_1   0.500000 0.500000 0.923180 -0.047069
O9    O     O_2   0.850610 0.753585 0.519814 -0.488282
O10   O     O_2   0.149739 0.244094 0.458851 -0.490937
O11   O     O_2   0.852075 0.237736 0.468837 -0.492854
O12   O     O_2   0.148329 0.757958 0.529906 -0.495959
O13   O     O_3   0.208251 0.562807 0.199090 -0.670443
H9    H     H_    0.235263 0.585612 0.105162 0.353603
O14   O     O_3   0.791388 0.440757 0.197208 -0.668194
H10   H     H_    0.764218 0.417673 0.103678 0.354782
O15   O     O_3   0.211974 0.440492 0.806331 -0.694478
H11   H     H_    0.170359 0.449667 0.792483 0.343494
O16   O     O_3   0.788262 0.545295 0.809257 -0.694798
H12   H     H_    0.829362 0.524992 0.797919 0.343939

loop_
_geom_bond_atom_site_label_1
_geom_bond_atom_site_label_2
_geom_bond_distance
_ccdc_geom_bond_type
C10   C32   1.395567 A    
C9    C11   1.402401 A    
C18   C24   1.404655 A    
C6    C12   1.472471 S    
C3    C31   1.416762 A    
C5    C11   1.472104 S    
C21   C22   1.411139 A    
C9    C31   1.395477 A    
C27   C28   1.189080 T    
C29   O13   1.380693 S    
C8    C30   1.403853 A    
C19   C25   1.404715 A    
O3    Cu1   1.935740 S    
O6    Cu2   1.943924 S    
C20   C22   1.408970 A    
H1    C23   1.082400 S    
O1    C1    1.273463 A    
O13   H9    0.991544 S    
C19   C21   1.408655 A    
O3    C2    1.273825 A    
H2    C24   1.082488 S    
N3    N4    1.196218 T    
C20   C26   1.404602 A    
O8    C5    1.283630 A    
O5    Cu1   1.943926 S    
O7    C6    1.284028 A    
C13   N1    1.369949 A    
C17   C21   1.408701 A    
H3    C25   1.082430 S    
Cu1   N4    1.978383 S    
C7    C29   1.403885 A    
C15   N1    1.369735 A    
C16   N2    1.368855 A    
C13   C19   1.402598 A    
C1    C27   1.406591 S    
C9    H7    1.083680 S    
C3    C29   1.404524 A    
C4    N1    1.436687 S    
C2    C28   1.406592 S    
O14   H10   0.991308 S    
C4    C30   1.405430 A    
C23   C26   1.395081 A    
H4    C26   1.082512 S    
C17   C23   1.404756 A    
O1    Cu1   1.935340 S    
C10   C12   1.402056 A    
O7    Cu1   1.944172 S    
O2    Cu2   1.935339 S    
O15   H11   0.989068 S    
O4    Cu2   1.935741 S    
C18   C22   1.409009 A    
C14   N2    1.368947 A    
C3    N2    1.434381 S    
C14   C20   1.402541 A    
C31   O15   1.381145 S    
C24   C25   1.395105 A    
O8    Cu2   1.944175 S    
C4    C32   1.417375 A    
O16   H12   0.989004 S    
C8    H6    1.083427 S    
O6    C6    1.283666 A    
C16   O12   1.349434 S    
C30   O14   1.380355 S    
C7    H5    1.083465 S    
O5    C5    1.283880 A    
C15   O11   1.349504 S    
C8    C12   1.401904 A    
C13   O9    1.349496 S    
O4    C1    1.273824 A    
C16   C18   1.402643 A    
C7    C11   1.402353 A    
C14   O10   1.349431 S    
C15   C17   1.402694 A    
C32   O16   1.380515 S    
Cu1   Cu2   2.632862 S    
C10   H8    1.083630 S    
Cu2   N3    1.978383 S    
O2    C2    1.273462 A    
