data_mof_unit_59287.cif
_audit_creation_date              2012-10-26T18:25:42-0400
_audit_creation_method            fapswitch 2.2
_symmetry_space_group_name_H-M    P1
_symmetry_Int_Tables_number       1
_space_group_crystal_system       triclinic
_cell_length_a                    7.521338
_cell_length_b                    8.705609
_cell_length_c                    11.32989
_cell_angle_alpha                 87.078475
_cell_angle_beta                  72.459331
_cell_angle_gamma                 101.838408
_cell_volume                      687.241406906

loop_
_atom_site_label
_atom_site_type_symbol
_atom_type_description
_atom_site_fract_x
_atom_site_fract_y
_atom_site_fract_z
_atom_type_partial_charge
C1    C     C_R   0.453389 0.200556 0.506225 0.584030
C2    C     C_2   0.571990 0.966136 0.472159 0.220309
C3    C     C_2   0.279759 0.510835 0.139347 0.646791
C4    C     C_2   0.720253 0.489134 0.860663 0.646875
C5    C     C_R   0.546611 0.799444 0.493774 0.584014
C6    C     C_R   0.423442 0.484903 0.741197 0.565891
C7    C     C_R   0.576558 0.515104 0.258796 0.565897
C8    C     C_2   0.380518 0.462075 0.876379 0.215436
C9    C     C_2   0.619500 0.537951 0.123618 0.215487
C10   C     C_2   0.521019 0.492406 0.931977 0.012835
C11   C     C_2   0.478993 0.507588 0.068015 0.012813
C12   C     C_2   0.428009 0.033864 0.527841 0.220318
Cl1   Cl    Cl    0.861665 0.635444 0.044265 -0.360054
Cl2   Cl    Cl    0.138337 0.364610 0.955722 -0.359948
Cl3   Cl    Cl    0.214229 0.933701 0.646211 -0.415503
Cl4   Cl    Cl    0.785767 0.066299 0.353785 -0.415435
Cl5   Cl    Cl    0.874549 0.280738 0.615685 -0.321609
Cl6   Cl    Cl    0.125428 0.719290 0.384349 -0.321561
Cu1   Cu    Cu3+1 0.688910 0.517800 0.485820 1.255778
Cu2   Cu    Cu3+1 0.311090 0.482200 0.514180 1.255737
H1    H     H_    0.021690 0.391178 0.254404 0.387824
H2    H     H_    0.978384 0.608891 0.745779 0.387977
N1    N     N_2   0.027170 0.455360 0.535550 0.044322
N2    N     N_2   0.972830 0.544640 0.464450 0.044232
O1    O     O_R   0.622710 0.286400 0.490790 -0.486748
O2    O     O_R   0.155508 0.375218 0.214544 -0.569647
O3    O     O_2   0.777194 0.369535 0.873348 -0.369397
O4    O     O_R   0.844495 0.624689 0.785398 -0.569875
O5    O     O_R   0.377290 0.713600 0.509210 -0.486714
O6    O     O_R   0.303660 0.256330 0.514730 -0.434778
O7    O     O_R   0.696340 0.743670 0.485270 -0.434756
O8    O     O_R   0.600900 0.509520 0.671740 -0.509050
O9    O     O_R   0.399100 0.490480 0.328260 -0.509176
O10   O     O_R   0.281840 0.479450 0.695690 -0.466465
O11   O     O_R   0.718160 0.520550 0.304310 -0.466431
O12   O     O_2   0.222828 0.630490 0.126763 -0.369417

loop_
_geom_bond_atom_site_label_1
_geom_bond_atom_site_label_2
_ccdc_geom_bond_type
C6    O8    A    
N1    N2    D    
Cu2   N1    S    
C2    Cl4   S    
Cu1   Cu2   S    
C12   Cl3   S    
H1    O2    S    
Cu2   O10   S    
Cu1   N2    S    
Cu1   O7    S    
Cu1   O11   S    
Cu2   O6    S    
C1    O1    A    
C7    O9    A    
Cl5   N1    S    
C1    C12   S    
C3    O12   D    
Cl6   N2    S    
Cu1   O8    S    
C6    C8    S    
C1    O6    A    
C4    O4    S    
C5    O5    A    
Cu2   O5    S    
C9    C11   D    
Cu1   O1    S    
C8    Cl2   S    
C2    C5    S    
C3    C11   S    
C10   C11   S    
Cu2   O9    S    
C4    C10   S    
C4    O3    D    
C8    C10   D    
C2    C12   D    
C7    C9    S    
C9    Cl1   S    
H2    O4    S    
C7    O11   A    
C3    O2    S    
C6    O10   A    
C5    O7    A    
