data_mof_unit_63343.cif
_audit_creation_date              2012-12-10T18:08:43-0500
_audit_creation_method            fapswitch 2.2
_symmetry_space_group_name_H-M    P1
_symmetry_Int_Tables_number       1
_space_group_crystal_system       triclinic
_cell_length_a                    12.751611
_cell_length_b                    13.915615
_cell_length_c                    23.444685
_cell_angle_alpha                 90.269647
_cell_angle_beta                  92.140615
_cell_angle_gamma                 98.092255
_cell_volume                      4115.6704092

loop_
_atom_site_label
_atom_site_type_symbol
_atom_type_description
_atom_site_fract_x
_atom_site_fract_y
_atom_site_fract_z
_atom_type_partial_charge
C1    C     C_R   0.483454 0.315905 0.499438 0.800999
C2    C     C_R   0.516544 0.684095 0.500587 0.789995
C3    C     C_R   0.578653 0.591387 0.244637 0.316626
C4    C     C_R   0.538871 0.441739 0.765342 0.314171
C5    C     C_R   0.571151 0.586689 0.303863 0.324817
C6    C     C_R   0.541280 0.435799 0.705628 0.334534
C7    C     C_R   0.505838 0.507684 0.328403 -0.382636
C8    C     C_R   0.494885 0.504018 0.671809 -0.390935
C9    C     C_R   0.446362 0.435673 0.292474 0.371034
C10   C     C_R   0.433288 0.567130 0.698517 0.358715
C11   C     C_R   0.451069 0.443753 0.233054 0.451988
C12   C     C_R   0.425126 0.565410 0.757717 0.441614
C13   C     C_R   0.518383 0.521480 0.209114 -0.029733
C14   C     C_R   0.497894 0.519747 0.792055 -0.097926
C15   C     C_1   0.526226 0.787303 0.500727 -0.096518
C16   C     C_1   0.473777 0.212692 0.499282 -0.097366
C17   C     C_2   0.544169 0.978800 0.500895 0.386926
C18   C     C_2   0.455846 0.021192 0.499095 0.386193
C19   C     C_1   0.465088 0.125718 0.499175 0.009936
C20   C     C_1   0.534923 0.874274 0.500823 0.011133
C21   C     C_2   0.028827 0.474107 0.483282 0.100904
C22   C     C_2   0.971186 0.525891 0.516754 0.100539
C23   C     C_R   0.501375 0.500794 0.390857 0.805748
C24   C     C_R   0.498761 0.501288 0.609173 0.803804
C25   C     C_1   0.854396 0.519065 0.511847 0.317687
C26   C     C_1   0.145608 0.480940 0.488172 0.317371
C27   C     C_R   0.479880 0.616243 0.880484 0.615532
C28   C     C_R   0.598173 0.487600 0.120856 0.647987
C29   C     C_R   0.611309 0.517759 0.880147 0.688618
C30   C     C_R   0.457885 0.584379 0.120082 0.645798
C31   C     C_R   0.614502 0.511022 0.940480 -0.135702
C32   C     C_R   0.462404 0.596747 0.060346 -0.125492
C33   C     C_R   0.539749 0.555767 0.970599 -0.074079
C34   C     C_R   0.536534 0.549542 0.030716 -0.078769
C35   C     C_R   0.471850 0.611093 0.940161 -0.132509
C36   C     C_R   0.608285 0.497175 0.061169 -0.125481
C37   C     C_R   0.687909 0.461129 0.971027 0.257835
C38   C     C_R   0.395556 0.653672 0.029323 0.262942
C39   C     C_R   0.686667 0.456300 0.031029 0.256985
C40   C     C_R   0.399136 0.659065 0.969514 0.246816
Cu1   Cu    Cu3+1 0.395330 0.493960 0.496390 1.056879
Cu2   Cu    Cu3+1 0.604670 0.506040 0.503610 1.062086
N1    N     N_R   0.525751 0.547811 0.852074 -0.437629
N2    N     N_R   0.524735 0.531027 0.148238 -0.463607
N3    N     N_1   0.238030 0.484870 0.490960 -0.136687
N4    N     N_1   0.761970 0.515130 0.509040 -0.136217
O1    O     O_R   0.399110 0.356330 0.496510 -0.571958
O2    O     O_R   0.600890 0.643670 0.503490 -0.570668
O3    O     O_R   0.575900 0.366540 0.502610 -0.552231
O4    O     O_R   0.424100 0.633460 0.497390 -0.553369
O5    O     O_R   0.411590 0.494870 0.414830 -0.556649
O6    O     O_R   0.588410 0.505130 0.585170 -0.551651
O7    O     O_R   0.588370 0.505070 0.420930 -0.546185
O8    O     O_R   0.411630 0.494930 0.579070 -0.553100
O9    O     O_2   0.455286 0.694902 0.852648 -0.400978
O10   O     O_2   0.658971 0.434132 0.151972 -0.432424
O11   O     O_2   0.695566 0.502781 0.850102 -0.423310
O12   O     O_2   0.386798 0.623458 0.150580 -0.436516
Br1   Br    Br    0.785124 0.389613 0.932316 -0.201966
Br2   Br    Br    0.299221 0.728967 0.065884 -0.206613
Br3   Br    Br    0.798319 0.396478 0.069457 -0.205771
Br4   Br    Br    0.293144 0.722169 0.928374 -0.221483
Br5   Br    Br    0.669564 0.697367 0.211919 -0.256042
Br6   Br    Br    0.563460 0.326901 0.807072 -0.255934
O13   O     O_3   0.627825 0.661442 0.336017 -0.631005
H1    H     H_    0.595021 0.666158 0.373298 0.328060
O14   O     O_3   0.585679 0.359987 0.682419 -0.624183
H2    H     H_    0.562841 0.350249 0.641797 0.330847
O15   O     O_3   0.383541 0.355238 0.313288 -0.608299
H3    H     H_    0.402975 0.345438 0.353836 0.325933
O16   O     O_3   0.375561 0.628342 0.668370 -0.594546
H4    H     H_    0.411092 0.647063 0.632467 0.328311
O17   O     O_3   0.389957 0.372836 0.199988 -0.599533
H5    H     H_    0.399707 0.386417 0.159016 0.340398
O18   O     O_3   0.337792 0.599090 0.779181 -0.564475
H6    H     H_    0.316818 0.560033 0.813245 0.340622
O19   O     O_3   0.357235 0.964963 0.497206 -0.701255
H7    H     H_    0.302461 0.009063 0.496077 0.350608
O20   O     O_3   0.642780 0.035026 0.502786 -0.700953
H8    H     H_    0.697553 0.990923 0.503911 0.351050
Br7   Br    Br    0.041116 0.613386 0.574229 -0.353160
Br8   Br    Br    0.958945 0.386558 0.425832 -0.366497

loop_
_geom_bond_atom_site_label_1
_geom_bond_atom_site_label_2
_ccdc_geom_bond_type
C24   O6    A    
C30   C32   A    
C21   C26   S    
Cu1   Cu2   S    
C28   O10   S    
O19   H7    S    
C9    O15   S    
C18   O19   S    
Cu2   O7    S    
Cu2   N4    S    
C27   O9    S    
C24   O8    A    
C17   O20   S    
C17   C20   S    
C40   Br4   S    
C18   C19   S    
O17   H5    S    
C2    O4    A    
C26   N3    T    
C33   C35   A    
C22   C25   S    
C31   C33   A    
C23   O7    A    
C32   C38   A    
C3    C13   A    
C10   O16   S    
C21   C22   D    
C29   N1    A    
C30   N2    A    
C17   C18   D    
C15   C20   T    
C39   Br3   S    
O14   H2    S    
C22   Br7   S    
C5    O13   S    
C11   O17   S    
C5    C7    A    
C1    O1    A    
C6    C8    A    
C27   C35   A    
C28   N2    A    
C31   C37   A    
C32   C34   A    
O18   H6    S    
C23   O5    A    
C33   C34   A    
Cu1   O1    S    
C1    C16   S    
Cu2   O2    S    
C2    C15   S    
C9    C11   A    
C37   Br1   S    
C10   C12   A    
C38   Br2   S    
C8    C10   A    
C6    O14   S    
C12   C14   A    
C4    C6    A    
Cu1   O4    S    
C7    C9    A    
C36   C39   A    
C29   O11   S    
C3    C5    A    
C3    Br5   S    
C4    Br6   S    
C2    O2    A    
C35   C40   A    
O16   H4    S    
C37   C39   A    
C38   C40   A    
C11   C13   A    
C16   C19   T    
C7    C23   S    
C30   O12   S    
C8    C24   S    
C34   C36   A    
C4    C14   A    
O15   H3    S    
Cu1   O8    S    
Cu2   O3    S    
O20   H8    S    
C27   N1    A    
C21   Br8   S    
C28   C36   A    
C29   C31   A    
O13   H1    S    
C12   O18   S    
Cu1   N3    S    
C1    O3    A    
C25   N4    T    
Cu1   O5    S    
C13   N2    S    
Cu2   O6    S    
C14   N1    S    
