data_mof_unit_50336.cif
_audit_creation_date              2012-12-10T18:19:10-0500
_audit_creation_method            fapswitch 2.2
_symmetry_space_group_name_H-M    P1
_symmetry_Int_Tables_number       1
_space_group_crystal_system       triclinic
_cell_length_a                    19.126731
_cell_length_b                    18.328936
_cell_length_c                    18.625703
_cell_angle_alpha                 108.410144
_cell_angle_beta                  110.831346
_cell_angle_gamma                 109.944966
_cell_volume                      4976.32242881

loop_
_atom_site_label
_atom_site_type_symbol
_atom_type_description
_atom_site_fract_x
_atom_site_fract_y
_atom_site_fract_z
_atom_type_partial_charge
C1    C     C_R   0.619049 0.498285 0.621870 0.893753
C2    C     C_R   0.381707 0.502441 0.378270 0.884995
C3    C     C_3   0.311186 0.213881 0.466755 0.286262
C4    C     C_3   0.718084 0.790720 0.566871 0.295618
C5    C     C_3   0.315271 0.306445 0.500739 -0.083427
C6    C     C_3   0.686918 0.692388 0.500180 -0.103374
C7    C     C_3   0.187636 0.189208 0.497198 -0.100845
C8    C     C_3   0.809950 0.805540 0.495075 -0.078173
C9    C     C_3   0.150547 0.212533 0.424237 -0.262662
C10   C     C_3   0.837146 0.742059 0.518376 -0.371574
C11   C     C_3   0.243457 0.150369 0.477557 -0.481473
C12   C     C_3   0.797188 0.855753 0.569477 -0.471020
C13   C     C_3   0.773111 0.546649 0.692172 -0.540225
C14   C     C_3   0.228339 0.455225 0.308811 -0.530837
C15   C     C_3   0.846018 0.539649 0.755156 0.364285
C16   C     C_3   0.155249 0.461771 0.245681 0.348015
C17   C     C_3   0.704309 0.551649 0.786151 0.319445
C18   C     C_3   0.296399 0.449087 0.214188 0.319919
C19   C     C_3   0.664546 0.402001 0.667362 -0.293815
C20   C     C_3   0.337372 0.599649 0.333159 -0.315027
C21   C     C_3   0.687660 0.499318 0.691044 -0.092461
C22   C     C_3   0.313617 0.502021 0.309406 -0.084058
C23   C     C_R   0.383482 0.377491 0.503369 0.922963
C24   C     C_R   0.619937 0.622579 0.499943 0.881397
C25   C     C_3   0.812725 0.498171 0.806598 -0.092798
C26   C     C_3   0.188180 0.502929 0.193969 -0.092978
C27   C     C_3   0.783649 0.556844 0.854189 -0.505347
C28   C     C_3   0.217398 0.444458 0.146380 -0.507942
C29   C     C_3   0.733718 0.401651 0.740524 -0.339358
C30   C     C_3   0.267648 0.599602 0.259777 -0.328677
C31   C     C_3   0.003734 0.303698 0.821088 -0.233513
C32   C     C_3   0.996708 0.696417 0.179694 -0.247179
C33   C     C_R   0.989748 0.108144 0.621008 0.961757
C34   C     C_R   0.010151 0.891586 0.379165 0.936906
C35   C     C_R   0.120493 0.121362 0.498905 0.921744
C36   C     C_R   0.878862 0.873640 0.495386 0.879007
C37   C     C_R   0.995928 0.622753 0.115430 0.944462
C38   C     C_R   0.004153 0.377325 0.884747 0.944325
C39   C     C_R   0.879516 0.496940 0.875009 0.909331
C40   C     C_R   0.120675 0.503456 0.125298 0.899574
C41   C     C_3   0.897148 0.154630 0.675166 0.210958
C42   C     C_3   0.103250 0.843846 0.326851 0.270923
C43   C     C_3   0.039531 0.178868 0.787469 0.153629
C44   C     C_3   0.962513 0.822430 0.214123 0.094684
C45   C     C_3   0.061317 0.342331 0.785091 0.159503
C46   C     C_3   0.937242 0.657527 0.214233 0.208813
C47   C     C_3   0.036185 0.248970 0.860924 0.200350
C48   C     C_3   0.967742 0.753888 0.141295 0.198836
C49   C     C_3   0.907936 0.239709 0.741068 -0.451441
C50   C     C_3   0.091889 0.758236 0.260991 -0.444537
C51   C     C_3   0.989881 0.172647 0.693891 -0.263279
C52   C     C_3   0.010393 0.826991 0.307115 -0.210251
C53   C     C_3   0.042931 0.264853 0.704125 -0.454635
C54   C     C_3   0.956362 0.734556 0.296251 -0.522289
C55   C     C_3   0.327214 0.338715 0.594602 -0.356511
C56   C     C_3   0.651394 0.678796 0.405891 -0.331434
C57   C     C_3   0.246141 0.276137 0.589675 0.264350
C58   C     C_3   0.720665 0.750041 0.403484 0.251386
C59   C     C_3   0.226304 0.289502 0.433966 -0.483956
C60   C     C_3   0.766415 0.678066 0.525216 -0.453732
H1    H     H_    0.287514 0.185003 0.394739 0.154338
H2    H     H_    0.740113 0.798123 0.634027 0.128588
H3    H     H_    0.276637 0.140549 0.533216 0.268097
H4    H     H_    0.791403 0.912676 0.565043 0.243063
H5    H     H_    0.219274 0.271667 0.367822 0.178532
H6    H     H_    0.794068 0.689227 0.593969 0.174063
H7    H     H_    0.116010 0.152923 0.357664 0.239120
H8    H     H_    0.899693 0.780613 0.582917 0.206156
H9    H     H_    0.794033 0.618481 0.714947 0.143127
H10   H     H_    0.207389 0.383456 0.286612 0.148803
H11   H     H_    0.761719 0.517791 0.624021 0.253154
H12   H     H_    0.239984 0.484689 0.377037 0.256647
H13   H     H_    0.902698 0.608740 0.803679 0.133637
H14   H     H_    0.098702 0.392566 0.197347 0.149017
H15   H     H_    0.104773 0.272899 0.709052 0.284366
H16   H     H_    0.895059 0.726453 0.292227 0.252302
H17   H     H_    0.720989 0.621301 0.801566 0.129662
H18   H     H_    0.278979 0.379293 0.198847 0.130156
H19   H     H_    0.838093 0.627694 0.897217 0.191980
H20   H     H_    0.163025 0.373677 0.102876 0.193661
H21   H     H_    0.600284 0.363961 0.658193 0.267434
H22   H     H_    0.402390 0.638530 0.343345 0.231923
H23   H     H_    0.660516 0.367109 0.603908 0.234765
H24   H     H_    0.341372 0.634559 0.396620 0.234299
H25   H     H_    0.753868 0.355632 0.711396 0.220457
H26   H     H_    0.247799 0.645964 0.288856 0.220524
H27   H     H_    0.704783 0.374668 0.775204 0.246337
H28   H     H_    0.296304 0.625978 0.224614 0.242281
H29   H     H_    0.860239 0.219710 0.761876 0.261352
H30   H     H_    0.141256 0.777260 0.241974 0.245560
H31   H     H_    0.869650 0.100149 0.688735 0.199957
H32   H     H_    0.132190 0.898514 0.314108 0.172382
H33   H     H_    0.006848 0.267365 0.644208 0.254931
H34   H     H_    0.991421 0.730966 0.355816 0.238541
H35   H     H_    0.890395 0.277020 0.707825 0.207284
H36   H     H_    0.106669 0.719691 0.293900 0.240584
H37   H     H_    0.040276 0.383937 0.761119 0.189411
H38   H     H_    0.956198 0.614158 0.236815 0.187115
H39   H     H_    0.108982 0.208735 0.806977 0.149624
H40   H     H_    0.892776 0.791986 0.193110 0.200656
H41   H     H_    0.104252 0.296238 0.917296 0.106441
H42   H     H_    0.900513 0.707711 0.082850 0.140546
H43   H     H_    0.341663 0.408665 0.626048 0.268061
H44   H     H_    0.633157 0.610454 0.359820 0.268335
H45   H     H_    0.384523 0.340155 0.639937 0.229651
H46   H     H_    0.590768 0.681817 0.382643 0.223199
H47   H     H_    0.268183 0.258616 0.642347 0.131633
H48   H     H_    0.698528 0.796967 0.394605 0.187841
H49   H     H_    0.222740 0.351242 0.455813 0.263065
H50   H     H_    0.746470 0.608281 0.480859 0.241348
H51   H     H_    0.102434 0.232033 0.427895 0.259162
H52   H     H_    0.848241 0.704182 0.468463 0.205619
O1    O     O_R   0.592570 0.552270 0.644860 -0.596054
O2    O     O_R   0.407430 0.447730 0.355140 -0.591065
O3    O     O_R   0.947720 0.540390 0.092600 -0.556458
O4    O     O_R   0.052280 0.459610 0.907400 -0.554378
O5    O     O_R   0.959660 0.552230 0.907350 -0.569816
O6    O     O_R   0.040340 0.447770 0.092650 -0.560670
O7    O     O_R   0.855120 0.447750 0.907440 -0.616036
O8    O     O_R   0.144880 0.552250 0.092560 -0.615577
O9    O     O_R   0.592650 0.447750 0.540350 -0.596850
O10   O     O_R   0.407350 0.552250 0.459650 -0.601253
O11   O     O_R   0.407370 0.459660 0.552260 -0.599074
O12   O     O_R   0.592630 0.540340 0.447740 -0.603227
O13   O     O_R   0.407450 0.355140 0.447760 -0.583129
O14   O     O_R   0.592550 0.644860 0.552240 -0.572496
O15   O     O_R   0.052270 0.092540 0.644860 -0.571712
O16   O     O_R   0.947730 0.907460 0.355140 -0.580418
O17   O     O_R   0.947710 0.092600 0.540380 -0.522650
O18   O     O_R   0.052290 0.907400 0.459620 -0.556352
O19   O     O_R   0.144880 0.092570 0.552230 -0.623204
O20   O     O_R   0.855120 0.907430 0.447770 -0.576826
O21   O     O_R   0.040310 0.092630 0.447750 -0.560389
O22   O     O_R   0.959690 0.907370 0.552250 -0.604207
O23   O     O_R   0.052260 0.644880 0.092510 -0.574636
O24   O     O_R   0.947740 0.355120 0.907490 -0.579025
Zn1   Zn    Zn3+2 0.499940 0.569790 0.569780 1.121150
Zn2   Zn    Zn3+2 0.500060 0.430210 0.430220 1.116678
Zn3   Zn    Zn3+2 0.069820 0.999960 0.569760 1.126742
Zn4   Zn    Zn3+2 0.930180 0.000040 0.430240 1.181629
Zn5   Zn    Zn3+2 0.069800 0.569760 0.999940 1.145396
Zn6   Zn    Zn3+2 0.930200 0.430240 0.000060 1.169952
S1    S     S_3+6 0.178060 0.415710 0.865491 0.079360
O25   O     O_2   0.212476 0.488024 0.844529 -0.154446
O26   O     O_2   0.197499 0.459893 0.958648 -0.314543
O27   O     O_3   0.232087 0.360186 0.860729 -0.509460
H53   H     H_    0.245111 0.350930 0.912454 0.379850
S2    S     S_3+6 0.820508 0.586948 0.133684 0.046043
O28   O     O_2   0.801218 0.536915 0.041479 -0.289499
O29   O     O_2   0.782686 0.520233 0.159352 -0.218317
O30   O     O_3   0.770644 0.646764 0.132830 -0.515098
H54   H     H_    0.707588 0.601764 0.095453 0.426788
S3    S     S_3+6 0.410819 0.212727 0.515218 0.030193
O31   O     O_2   0.453691 0.255980 0.614093 -0.280315
O32   O     O_2   0.387844 0.116587 0.478907 -0.217675
O33   O     O_3   0.479990 0.263586 0.487755 -0.554291
H55   H     H_    0.512665 0.231974 0.484739 0.386210
S4    S     S_3+6 0.637113 0.824685 0.544794 0.049000
O34   O     O_2   0.670093 0.907265 0.627918 -0.221266
O35   O     O_2   0.625491 0.847150 0.471983 -0.262471
O36   O     O_3   0.539309 0.746266 0.516116 -0.552122
H56   H     H_    0.504322 0.775694 0.513856 0.388164
H57   H     H_    0.201420 0.083575 0.416334 0.211831
H58   H     H_    0.856155 0.885753 0.634637 0.221061
S5    S     S_3+6 0.883026 0.480359 0.694218 0.000885
O37   O     O_2   0.943453 0.459934 0.750320 -0.339666
O38   O     O_2   0.807305 0.394431 0.612351 -0.311871
O39   O     O_3   0.936777 0.546180 0.663938 -0.527081
H59   H     H_    0.955054 0.510876 0.630606 0.398206
S6    S     S_3+6 0.118107 0.520995 0.306466 0.019964
O40   O     O_2   0.193584 0.608198 0.386964 -0.291674
O41   O     O_2   0.055623 0.538972 0.249458 -0.329522
O42   O     O_3   0.066870 0.456382 0.339257 -0.513493
H60   H     H_    0.049150 0.491950 0.373146 0.399521
S7    S     S_3+6 0.613518 0.507244 0.801604 0.050723
O43   O     O_2   0.532305 0.494877 0.733475 -0.291654
O44   O     O_2   0.595487 0.419441 0.798404 -0.262929
O45   O     O_3   0.641352 0.581196 0.902265 -0.498812
H61   H     H_    0.594056 0.551030 0.911423 0.404743
S8    S     S_3+6 0.387071 0.491936 0.198157 0.048370
O46   O     O_2   0.411080 0.583213 0.208380 -0.279119
O47   O     O_2   0.465540 0.496243 0.261427 -0.282558
O48   O     O_3   0.355602 0.421458 0.094479 -0.519143
H62   H     H_    0.403848 0.450790 0.086125 0.417385
H63   H     H_    0.768740 0.535568 0.899015 0.279620
H64   H     H_    0.232940 0.466577 0.102307 0.280239
S9    S     S_3+6 0.814125 0.117425 0.564498 0.084307
O49   O     O_2   0.782288 0.021738 0.503674 -0.229282
O50   O     O_2   0.738112 0.122310 0.567173 -0.228621
O51   O     O_3   0.851329 0.181098 0.523581 -0.491109
H65   H     H_    0.852036 0.236959 0.553178 0.375475
S10   S     S_3+6 0.184877 0.879217 0.437426 0.061371
O52   O     O_2   0.260312 0.872887 0.434667 -0.227600
O53   O     O_2   0.217428 0.974825 0.499186 -0.280131
O54   O     O_3   0.145068 0.813806 0.475670 -0.536046
H66   H     H_    0.194172 0.838217 0.535618 0.399323
S11   S     S_3+6 0.018252 0.074989 0.790562 0.058886
O55   O     O_2   0.086050 0.099328 0.880107 -0.213099
O56   O     O_2   0.929063 0.026539 0.775896 -0.257264
O57   O     O_3   0.027986 0.003304 0.718519 -0.537112
H67   H     H_    0.021838 0.955071 0.733516 0.371358
S12   S     S_3+6 0.983855 0.927519 0.213140 0.065458
O58   O     O_2   0.076166 0.981017 0.237283 -0.246288
O59   O     O_2   0.922377 0.905072 0.121595 -0.209954
O60   O     O_3   0.965236 0.994399 0.279265 -0.534386
H68   H     H_    0.901413 0.969023 0.246760 0.378279
S13   S     S_3+6 0.979436 0.205954 0.913502 0.080166
O61   O     O_2   0.014163 0.157091 0.952580 -0.170804
O62   O     O_2   0.993288 0.281184 0.989895 -0.319159
O63   O     O_3   0.871864 0.136987 0.840834 -0.509996
H69   H     H_    0.847307 0.120409 0.875760 0.405319
S14   S     S_3+6 0.030988 0.801095 0.095296 0.080637
O64   O     O_2   0.002688 0.855281 0.059800 -0.161998
O65   O     O_2   0.126541 0.858933 0.163715 -0.266274
O66   O     O_3   0.015990 0.720239 0.007404 -0.563703
H70   H     H_    0.058572 0.751211 0.993450 0.386661
S15   S     S_3+6 0.191210 0.334681 0.614996 0.009100
O67   O     O_2   0.096029 0.270059 0.571900 -0.348952
O68   O     O_2   0.232417 0.383607 0.713651 -0.204003
O69   O     O_3   0.201590 0.409859 0.580169 -0.551607
H71   H     H_    0.171804 0.439465 0.599433 0.407159
S16   S     S_3+6 0.721708 0.696157 0.304427 0.049880
O70   O     O_2   0.632381 0.653642 0.225953 -0.184844
O71   O     O_2   0.784922 0.762649 0.295294 -0.296873
O72   O     O_3   0.744203 0.614718 0.302926 -0.505602
H72   H     H_    0.806460 0.640729 0.322027 0.357005

loop_
_geom_bond_atom_site_label_1
_geom_bond_atom_site_label_2
_ccdc_geom_bond_type
C9    H51   S    
S1    O27   S    
C40   O6    A    
O14   Zn1   S    
C1    C21   S    
O51   H65   S    
C47   H41   S    
C20   H22   S    
C44   H40   S    
C10   C60   S    
S2    O30   S    
C33   O15   A    
O48   H62   S    
C50   H36   S    
C35   O21   A    
O45   H61   S    
C58   S16   S    
S7    O44   D    
C20   C30   S    
O60   H68   S    
S15   O69   S    
C7    C11   S    
S5    O37   D    
C13   H9    S    
C55   H45   S    
C16   H14   S    
C26   C40   S    
O12   Zn2   S    
O33   H55   S    
C19   C21   S    
C43   H39   S    
C27   H19   S    
C36   O20   A    
C27   H63   S    
C12   H4    S    
S9    O50   D    
C45   S1    S    
C15   C25   S    
S6    O40   D    
S1    O25   D    
C4    H2    S    
C24   O12   A    
C11   H57   S    
C41   S9    S    
S1    O26   D    
C8    C36   S    
S11   O56   D    
C3    S3    S    
S9    O51   S    
O24   Zn6   S    
C34   C52   S    
S4    O36   S    
C8    C58   S    
S4    O35   D    
C4    S4    S    
C48   S14   S    
S8    O47   D    
O57   H67   S    
S12   O60   S    
C2    C22   S    
S13   O63   S    
O30   H54   S    
C37   O23   A    
C10   H52   S    
C38   O24   A    
C4    C12   S    
C29   H25   S    
S8    O48   S    
C8    C12   S    
C23   O13   A    
C44   C52   S    
C3    H1    S    
C46   H38   S    
O3    Zn6   S    
C18   S8    S    
S5    O38   D    
C31   C47   S    
C59   H5    S    
C24   O14   A    
C14   H10   S    
C53   H15   S    
O15   Zn3   S    
C31   C49   S    
C19   H23   S    
O18   Zn3   S    
C41   C49   S    
O69   H71   S    
C50   H30   S    
O36   H56   S    
S7    O45   S    
C7    C9    S    
C2    O10   A    
C25   C29   S    
C46   S2    S    
C58   H48   S    
C54   H34   S    
S12   O58   D    
C5    C59   S    
C53   H33   S    
S13   O61   D    
C17   C27   S    
S10   O54   S    
C6    C60   S    
C7    C35   S    
C18   C28   S    
S2    O28   D    
C56   H44   S    
C4    C6    S    
C6    C56   S    
O22   Zn3   S    
O19   Zn3   S    
C23   O11   A    
C13   H11   S    
S16   O72   S    
C3    C5    S    
S15   O67   D    
C39   O5    A    
C45   C53   S    
C20   H24   S    
C17   C21   S    
C33   C51   S    
O54   H66   S    
C9    C59   S    
S10   O53   D    
O9    Zn2   S    
S11   O57   S    
O5    Zn5   S    
O66   H70   S    
C9    H7    S    
C28   H64   S    
C12   H58   S    
C38   O4    A    
S11   O55   D    
C5    C23   S    
S14   O66   S    
C18   H18   S    
C3    C11   S    
C56   H46   S    
C46   C54   S    
C17   H17   S    
O72   H72   S    
C52   C54   S    
C43   S11   S    
C32   C37   S    
C49   H35   S    
C55   H43   S    
S16   O71   D    
C32   C50   S    
S12   O59   D    
C42   C50   S    
C54   H16   S    
S2    O29   D    
C34   O16   A    
O39   H59   S    
C41   H31   S    
C41   C51   S    
S14   O65   D    
C30   H26   S    
C26   C30   S    
S5    O39   S    
C55   C57   S    
S4    O34   D    
C14   C16   S    
S3    O32   D    
C20   C22   S    
C30   H28   S    
C19   C29   S    
C35   O19   A    
S8    O46   D    
C57   H47   S    
O27   H53   S    
C33   O17   A    
C44   S12   S    
C42   H32   S    
C15   H13   S    
C18   C22   S    
C32   C46   S    
C5    C55   S    
O8    Zn5   S    
O10   Zn1   S    
C49   H29   S    
C40   O8    A    
O6    Zn6   S    
C16   C26   S    
C36   O22   A    
C17   S7    S    
O42   H60   S    
C6    C24   S    
C37   O3    A    
C10   H8    S    
O13   Zn2   S    
O20   Zn4   S    
O11   Zn1   S    
C26   C28   S    
C31   C38   S    
C47   S13   S    
C48   H42   S    
C14   H12   S    
S10   O52   D    
C14   C22   S    
C13   C15   S    
O16   Zn4   S    
S9    O49   D    
S7    O43   D    
C45   H37   S    
C13   C21   S    
C2    O2    A    
C43   C51   S    
C32   C48   S    
O17   Zn4   S    
C57   S15   S    
C16   S6    S    
C39   O7    A    
S6    O42   S    
S3    O33   S    
C59   H49   S    
C56   C58   S    
O1    Zn1   S    
O2    Zn2   S    
S15   O68   D    
C28   H20   S    
C1    O9    A    
C29   H27   S    
C60   H50   S    
C1    O1    A    
C60   H6    S    
O4    Zn5   S    
C42   S10   S    
O23   Zn5   S    
S14   O64   D    
C34   O18   A    
O21   Zn4   S    
C8    C10   S    
O63   H69   S    
C31   C45   S    
S13   O62   D    
O7    Zn6   S    
C15   S5    S    
S6    O41   D    
C51   C53   S    
S3    O31   D    
C19   H21   S    
C11   H3    S    
C43   C47   S    
S16   O70   D    
C7    C57   S    
C25   C39   S    
C44   C48   S    
C42   C52   S    
C25   C27   S    
