data_mof_unit_52611.cif
_audit_creation_date              2012-12-11T15:52:21-0500
_audit_creation_method            fapswitch 2.2
_symmetry_space_group_name_H-M    P1
_symmetry_Int_Tables_number       1
_space_group_crystal_system       triclinic
_cell_length_a                    11.045975
_cell_length_b                    11.036431
_cell_length_c                    18.770751
_cell_angle_alpha                 89.97551
_cell_angle_beta                  89.985283
_cell_angle_gamma                 120.075068
_cell_volume                      1980.23107737

loop_
_atom_site_label
_atom_site_type_symbol
_atom_type_description
_atom_site_fract_x
_atom_site_fract_y
_atom_site_fract_z
_atom_type_partial_charge
C1    C     C_R   0.544402 0.422827 0.139906 0.541308
C2    C     C_3   0.027222 0.746411 0.452222 -0.270361
C3    C     C_3   0.715322 0.973998 0.460126 -0.277795
C4    C     C_3   0.257365 0.281460 0.460863 -0.277747
C5    C     C_R   0.521326 0.454525 0.355462 0.551731
C6    C     C_R   0.546957 0.069697 0.356180 0.550859
C7    C     C_R   0.939032 0.481025 0.353343 0.559801
C8    C     C_R   0.458097 0.517417 0.647095 0.549035
C9    C     C_R   0.064615 0.544524 0.645262 0.547269
C10   C     C_R   0.482932 0.941155 0.647281 0.549399
C11   C     C_R   0.507055 0.012679 0.919262 0.005731
C12   C     C_R   0.551822 0.077672 0.143321 0.528244
C13   C     C_R   0.982141 0.493132 0.918564 0.003366
C14   C     C_R   0.505233 0.489533 0.919115 0.005618
C15   C     C_R   0.909035 0.462364 0.064034 0.000760
C16   C     C_R   0.534477 0.052972 0.067192 0.004304
C17   C     C_R   0.532953 0.445362 0.064606 0.005144
C18   C     C_R   0.397821 0.004834 0.960333 0.014825
C19   C     C_R   0.985171 0.389793 0.960048 0.015323
C20   C     C_R   0.605438 0.596688 0.961494 0.015081
C21   C     C_R   0.945885 0.371712 0.030905 0.019379
C22   C     C_R   0.412728 0.027777 0.032691 0.008973
C23   C     C_R   0.878078 0.454760 0.139882 0.542188
C24   C     C_R   0.617321 0.574800 0.032846 0.011556
C25   C     C_R   0.650998 0.081311 0.025004 -0.160602
C26   C     C_R   0.891978 0.556615 0.020994 -0.171087
C27   C     C_R   0.442219 0.333444 0.020981 -0.164461
C28   C     C_R   0.921774 0.567157 0.948289 -0.153901
C29   C     C_R   0.638677 0.066946 0.951230 -0.156081
C30   C     C_R   0.431849 0.354357 0.948379 -0.154014
C31   C     C_3   0.246052 0.896424 0.967275 -0.095757
C32   C     C_3   0.096423 0.352684 0.972137 -0.106446
C33   C     C_3   0.637831 0.743736 0.974707 -0.103126
C34   C     C_R   0.457513 0.519374 0.852660 0.540237
C35   C     C_3   0.047794 0.323948 0.049855 -0.122178
C36   C     C_3   0.262461 0.926780 0.047632 -0.131888
C37   C     C_3   0.650817 0.718754 0.053890 -0.117792
C38   C     C_R   0.514928 0.016245 0.580186 0.017845
C39   C     C_R   0.029610 0.521305 0.570531 0.023206
C40   C     C_R   0.500732 0.487382 0.579430 0.018730
C41   C     C_R   0.006063 0.502530 0.421984 0.013825
C42   C     C_R   0.526777 0.042329 0.431885 0.019351
C43   C     C_R   0.511498 0.476706 0.430713 0.018899
C44   C     C_R   0.634851 0.040659 0.542683 0.022693
C45   C     C_R   0.061339 0.542076 0.852508 0.538361
C46   C     C_R   0.073175 0.640308 0.528310 0.048276
C47   C     C_R   0.406691 0.366131 0.542256 0.028143
C48   C     C_R   0.063712 0.632587 0.455545 0.017773
C49   C     C_R   0.639295 0.052412 0.470131 0.036561
C50   C     C_R   0.412244 0.362453 0.469597 0.043134
C51   C     C_R   0.419107 0.046672 0.469869 -0.152368
C52   C     C_R   0.981813 0.384900 0.462789 -0.165439
C53   C     C_R   0.620756 0.588406 0.468035 -0.165893
C54   C     C_R   0.992205 0.393961 0.537042 -0.173643
C55   C     C_R   0.414184 0.035371 0.544382 -0.154286
C56   C     C_R   0.480583 0.938819 0.852162 0.538697
C57   C     C_R   0.617052 0.592090 0.542624 -0.170272
C58   C     C_3   0.150473 0.939627 0.929638 -0.404267
C59   C     C_3   0.069366 0.221862 0.931669 -0.412232
C60   C     C_3   0.777238 0.850296 0.942004 -0.415850
C61   C     C_3   0.161624 0.415718 0.103194 -0.398126
C62   C     C_3   0.240575 0.803156 0.093176 -0.415119
C63   C     C_3   0.538417 0.721723 0.100047 -0.406033
C64   C     C_3   0.711162 0.960033 0.540127 -0.268962
C65   C     C_3   0.033282 0.750689 0.532598 -0.266343
C66   C     C_3   0.249447 0.283178 0.541097 -0.268434
Cr1   Cr    Cr6+3 0.769160 0.541570 0.250690 0.992277
Cr2   Cr    Cr6+3 0.458430 0.227590 0.250690 0.995160
Cr3   Cr    Cr6+3 0.772410 0.230840 0.250690 0.993609
Cr4   Cr    Cr6+3 0.541570 0.769160 0.749310 0.993718
Cr5   Cr    Cr6+3 0.227590 0.458430 0.749310 0.991163
Cr6   Cr    Cr6+3 0.230840 0.772410 0.749310 0.997741
H1    H     H_    0.749768 0.107829 0.049176 0.138780
H2    H     H_    0.994091 0.211168 0.064677 0.136898
H3    H     H_    0.207303 0.980289 0.068720 0.141549
H4    H     H_    0.758085 0.781107 0.076376 0.144293
H5    H     H_    0.337485 0.054009 0.442116 0.125150
H6    H     H_    0.942283 0.283452 0.438279 0.138004
H7    H     H_    0.704821 0.674607 0.439674 0.117595
H8    H     H_    0.966947 0.301444 0.568046 0.120990
H9    H     H_    0.327345 0.030787 0.573129 0.117058
H10   H     H_    0.697533 0.682046 0.570604 0.115036
H11   H     H_    0.644408 0.850199 0.557377 0.170900
H12   H     H_    0.866510 0.630006 0.044652 0.135515
H13   H     H_    0.117479 0.850712 0.554071 0.138239
H14   H     H_    0.200463 0.343544 0.559937 0.174398
H15   H     H_    0.920924 0.712028 0.432149 0.163339
H16   H     H_    0.822719 0.040073 0.438802 0.133877
H17   H     H_    0.218621 0.175146 0.438665 0.132011
H18   H     H_    0.816204 0.017520 0.565378 0.126586
H19   H     H_    0.929603 0.712069 0.558155 0.134911
H20   H     H_    0.207306 0.177814 0.565500 0.122013
H21   H     H_    0.111171 0.843059 0.426811 0.126194
H22   H     H_    0.651100 0.872740 0.432025 0.138041
H23   H     H_    0.372191 0.232749 0.044034 0.137615
H24   H     H_    0.216282 0.343371 0.434096 0.141489
H25   H     H_    0.210421 0.042991 0.903656 0.127558
H26   H     H_    0.090833 0.864699 0.886803 0.162994
H27   H     H_    0.075372 0.941841 0.967867 0.107480
H28   H     H_    0.113267 0.248651 0.877301 0.186285
H29   H     H_    0.118717 0.170960 0.960930 0.118129
H30   H     H_    0.956533 0.148169 0.926075 0.116110
H31   H     H_    0.762744 0.874940 0.886552 0.175626
H32   H     H_    0.823344 0.946038 0.975031 0.114424
H33   H     H_    0.850347 0.809560 0.941315 0.119663
H34   H     H_    0.911287 0.643593 0.917211 0.133161
H35   H     H_    0.191726 0.526725 0.097002 0.129516
H36   H     H_    0.124387 0.382086 0.158427 0.173424
H37   H     H_    0.254562 0.404112 0.094858 0.156464
H38   H     H_    0.300803 0.756638 0.071005 0.116841
H39   H     H_    0.274300 0.837135 0.148808 0.160504
H40   H     H_    0.128620 0.723832 0.093762 0.172612
H41   H     H_    0.433447 0.651549 0.077546 0.120105
H42   H     H_    0.542449 0.688699 0.155309 0.175737
H43   H     H_    0.556783 0.829474 0.102187 0.149178
H44   H     H_    0.727875 0.082860 0.920386 0.134778
H45   H     H_    0.356693 0.268056 0.916727 0.133248
H46   H     H_    0.224685 0.789704 0.952857 0.164551
H47   H     H_    0.203926 0.443290 0.964418 0.155258
H48   H     H_    0.549735 0.761414 0.961231 0.160363
O1    O     O_R   0.911480 0.572650 0.170990 -0.534997
O2    O     O_R   0.528970 0.640340 0.824320 -0.502309
O3    O     O_R   0.111370 0.471030 0.824320 -0.503849
O4    O     O_R   0.359660 0.888630 0.824320 -0.502421
O5    O     O_R   0.909980 0.572450 0.331530 -0.520676
O6    O     O_R   0.427550 0.337530 0.331530 -0.515661
O7    O     O_R   0.662470 0.090020 0.331530 -0.517067
O8    O     O_R   0.572450 0.909980 0.668470 -0.525741
O9    O     O_R   0.337530 0.427550 0.668470 -0.525588
O10   O     O_R   0.090020 0.662470 0.668470 -0.518477
O11   O     O_R   0.638950 0.528780 0.324500 -0.503991
O12   O     O_R   0.427350 0.338830 0.170990 -0.528566
O13   O     O_R   0.471220 0.110170 0.324500 -0.504589
O14   O     O_R   0.889830 0.361050 0.324500 -0.505203
O15   O     O_R   0.528780 0.638950 0.675500 -0.508482
O16   O     O_R   0.110170 0.471220 0.675500 -0.508921
O17   O     O_R   0.361050 0.889830 0.675500 -0.504031
O18   O     O_3   0.666667 0.333333 0.250560 -0.281273
O19   O     O_3   0.333333 0.666667 0.749440 -0.244579
O20   O     O_R   0.661170 0.088520 0.170990 -0.534613
O21   O     O_R   0.572650 0.911480 0.829010 -0.538667
O22   O     O_R   0.338830 0.427350 0.829010 -0.542710
O23   O     O_R   0.088520 0.661170 0.829010 -0.540861
O24   O     O_R   0.640340 0.528970 0.175680 -0.517743
O25   O     O_R   0.471030 0.111370 0.175680 -0.515234
O26   O     O_R   0.888630 0.359660 0.175680 -0.507034

loop_
_geom_bond_atom_site_label_1
_geom_bond_atom_site_label_2
_ccdc_geom_bond_type
C44   C49   A    
C40   C47   A    
C13   C45   S    
C11   C18   A    
Cr3   O14   S    
C59   H28   S    
Cr6   O23   S    
Cr2   O18   S    
C58   H26   S    
C64   H18   S    
C1    O12   A    
C61   H37   S    
C3    C49   S    
C35   H2    S    
C9    O10   A    
C45   O3    A    
C56   O4    A    
C31   C58   S    
Cr5   O3    S    
Cr2   O13   S    
C53   H7    S    
C6    O7    A    
C6    O13   A    
Cr1   O5    S    
C10   O8    A    
C39   C54   A    
C19   C32   S    
C9    C39   S    
Cr2   O25   S    
Cr2   O12   S    
Cr1   O18   S    
C61   H36   S    
C4    H24   S    
C63   H42   S    
C27   H23   S    
C43   C53   A    
Cr6   O19   S    
C62   H39   S    
C20   C24   A    
C28   H34   S    
C5    O6    A    
C26   H12   S    
C12   O20   A    
C13   C28   A    
C10   O17   A    
C55   H9    S    
C60   H31   S    
C47   C66   S    
C25   H1    S    
C42   C51   A    
C63   H43   S    
C2    C65   S    
Cr3   O20   S    
C15   C23   S    
C5    C43   S    
Cr4   O19   S    
C34   O2    A    
Cr6   O4    S    
C8    O15   A    
Cr3   O26   S    
C58   H25   S    
C14   C30   A    
C52   H6    S    
Cr1   O24   S    
Cr1   O1    S    
C37   C63   S    
C52   C54   A    
C47   C50   A    
C54   H8    S    
C31   C36   S    
C25   C29   A    
C23   O26   A    
C46   C48   A    
C17   C24   A    
C38   C55   A    
C17   C27   A    
C32   C35   S    
C12   C16   S    
C46   C65   S    
C23   O1    A    
Cr5   O16   S    
C13   C19   A    
C15   C26   A    
C66   H20   S    
C2    C48   S    
C3    C64   S    
C33   C37   S    
C4    C50   S    
C36   C62   S    
C59   H29   S    
C12   O25   A    
C51   H5    S    
C64   H11   S    
C38   C44   A    
C36   H3    S    
C14   C20   A    
Cr5   O9    S    
C16   C25   A    
Cr4   O2    S    
C62   H38   S    
C5    O11   A    
C24   C37   S    
C2    H15   S    
C35   C61   S    
C7    O5    A    
C65   H13   S    
C11   C29   A    
C7    O14   A    
Cr5   O22   S    
C56   O21   A    
Cr6   O17   S    
C37   H4    S    
C33   C60   S    
C39   C46   A    
Cr4   O15   S    
C20   C33   S    
C32   H47   S    
C44   C64   S    
Cr2   O6    S    
C66   H14   S    
C4    H17   S    
Cr4   O8    S    
Cr3   O18   S    
C65   H19   S    
C34   O22   A    
Cr4   O21   S    
C16   C22   A    
C40   C57   A    
C41   C52   A    
C19   C21   A    
C3    H16   S    
C18   C22   A    
C59   H30   S    
C1    C17   S    
C29   H44   S    
C2    H21   S    
Cr1   O11   S    
C58   H27   S    
C53   C57   A    
C14   C34   S    
Cr5   O19   S    
C43   C50   A    
Cr6   O10   S    
C21   C35   S    
C30   H45   S    
C22   C36   S    
C31   H46   S    
C26   C28   A    
C10   C38   S    
C1    O24   A    
C4    C66   S    
C41   C48   A    
C3    H22   S    
C51   C55   A    
C7    C41   S    
C61   H35   S    
C60   H33   S    
C42   C49   A    
C63   H41   S    
C9    O16   A    
C15   C21   A    
C62   H40   S    
Cr3   O7    S    
C33   H48   S    
C6    C42   S    
C8    O9    A    
C45   O23   A    
C57   H10   S    
C18   C31   S    
C8    C40   S    
C32   C59   S    
C60   H32   S    
C11   C56   S    
C27   C30   A    
