data_mof_unit_44286.cif
_audit_creation_date              2012-12-11T15:52:10-0500
_audit_creation_method            fapswitch 2.2
_symmetry_space_group_name_H-M    P1
_symmetry_Int_Tables_number       1
_space_group_crystal_system       triclinic
_cell_length_a                    8.248506
_cell_length_b                    19.248579
_cell_length_c                    18.977458
_cell_angle_alpha                 99.059842
_cell_angle_beta                  94.272052
_cell_angle_gamma                 92.61176
_cell_volume                      2962.20533675

loop_
_atom_site_label
_atom_site_type_symbol
_atom_type_description
_atom_site_fract_x
_atom_site_fract_y
_atom_site_fract_z
_atom_type_partial_charge
Ba1   Ba    Ba6+2 0.152000 0.534910 0.469330 1.653332
Ba2   Ba    Ba6+2 0.658180 0.465080 0.530610 1.657593
C1    C     C_3   0.423629 0.718873 0.209751 -0.210643
C2    C     C_3   0.397313 0.684416 0.275670 0.378803
C3    C     C_3   0.510016 0.680349 0.630540 0.311030
C4    C     C_3   0.532705 0.760288 0.646761 -0.400637
C5    C     C_3   0.072564 0.307003 0.732906 0.530763
C6    C     C_3   0.085134 0.226163 0.722053 -0.144506
C7    C     C_3   0.563840 0.185580 0.643481 0.334362
C8    C     C_3   0.506631 0.139461 0.696916 -0.055758
C9    C     C_R   0.943348 0.199292 0.456394 -0.137450
C10   C     C_R   0.980487 0.273218 0.472829 0.059650
C11   C     C_R   0.138997 0.184227 0.552025 -0.149132
C12   C     C_3   0.907325 0.727193 0.315509 0.352159
C13   C     C_R   0.206911 0.252067 0.550503 -0.003682
C14   C     C_R   0.682391 0.807945 0.433928 -0.168331
C15   C     C_R   0.609104 0.742376 0.439766 0.002533
C16   C     C_R   0.865354 0.798071 0.536300 -0.148698
C17   C     C_R   0.829468 0.724279 0.522983 0.074990
C18   C     C_R   0.011178 0.152386 0.500843 0.029346
C19   C     C_R   0.115450 0.298519 0.518762 -0.224915
C20   C     C_R   0.803641 0.841807 0.487233 0.006841
C21   C     C_R   0.694584 0.697708 0.477157 -0.247142
C22   C     C_R   0.238482 0.040460 0.528766 -0.092179
C23   C     C_3   0.946340 0.799010 0.294778 -0.382774
C24   C     C_R   0.341067 0.999336 0.563692 -0.090793
C25   C     C_R   0.293627 0.929983 0.564278 -0.064922
C26   C     C_R   0.142834 0.903658 0.531694 -0.081832
C27   C     C_R   0.021273 0.948442 0.512575 0.018713
C28   C     C_R   0.070644 0.021384 0.512466 0.036714
C29   C     C_R   0.857480 0.921391 0.491947 -0.009175
C30   C     C_R   0.745166 0.971208 0.472704 0.029754
C31   C     C_R   0.792808 0.044262 0.472255 -0.005175
C32   C     C_R   0.957383 0.072063 0.494063 -0.012652
C33   C     C_R   0.579544 0.950038 0.455415 -0.131291
C34   C     C_3   0.712689 0.331491 0.301415 0.521929
C35   C     C_R   0.476822 0.988243 0.418070 -0.063353
C36   C     C_R   0.520362 0.058077 0.414836 0.213444
C37   C     C_R   0.668494 0.087196 0.450859 -0.135771
C38   C     C_R   0.616841 0.525126 0.299596 -0.235895
C39   C     C_R   0.465030 0.492227 0.275398 0.045690
C40   C     C_R   0.404054 0.491200 0.204206 -0.146041
C41   C     C_R   0.496713 0.522342 0.156299 -0.016587
C42   C     C_R   0.653595 0.553004 0.181576 -0.147425
C43   C     C_R   0.712039 0.554668 0.253093 0.031308
C44   C     C_R   0.474310 0.577282 0.043394 -0.082668
C45   C     C_3   0.638421 0.256573 0.276691 -0.368698
C46   C     C_R   0.413968 0.576762 0.972335 -0.082780
C47   C     C_R   0.309132 0.520861 0.935795 0.056743
C48   C     C_R   0.263236 0.466460 0.973163 -0.084931
C49   C     C_R   0.323704 0.466892 0.044120 -0.077743
C50   C     C_R   0.430796 0.522211 0.080471 0.063896
C51   C     C_R   0.103852 0.485141 0.828451 -0.105436
C52   C     C_R   0.068255 0.470005 0.753795 0.013114
C53   C     C_R   0.329103 0.524910 0.736742 0.036365
C54   C     C_R   0.368931 0.537493 0.810827 -0.124048
C55   C     C_R   0.258132 0.516176 0.857792 0.003095
C56   C     C_3   0.023680 0.633552 0.695526 0.324354
C57   C     C_R   0.182224 0.489091 0.708799 -0.276333
C58   C     C_3   0.030791 0.658602 0.775901 -0.395735
C59   C     C_3   0.288395 0.323850 0.370397 0.299228
C60   C     C_3   0.226653 0.248254 0.343761 -0.450226
H1    H     H_    0.318814 0.635115 0.260528 0.074109
H2    H     H_    0.610538 0.232418 0.323988 0.074235
H3    H     H_    0.524874 0.257260 0.241630 0.091006
H4    H     H_    0.725229 0.223517 0.246554 0.099377
H5    H     H_    0.148933 0.626469 0.679595 0.004638
H6    H     H_    0.947891 0.583323 0.681985 0.033266
H7    H     H_    0.100261 0.710377 0.789862 0.125219
H8    H     H_    0.091866 0.620825 0.805359 0.066383
H9    H     H_    0.905544 0.664113 0.793078 0.120596
H10   H     H_    0.192279 0.352323 0.398357 0.035855
H11   H     H_    0.397437 0.324194 0.408267 0.071295
H12   H     H_    0.223562 0.218805 0.389287 0.090693
H13   H     H_    0.308667 0.222676 0.305314 0.123106
H14   H     H_    0.103049 0.246255 0.315957 0.134260
H15   H     H_    0.518422 0.669625 0.296086 -0.125480
H16   H     H_    0.517423 0.690717 0.179375 0.065265
H17   H     H_    0.620621 0.658610 0.608380 0.009989
H18   H     H_    0.404895 0.666355 0.590170 0.083041
H19   H     H_    0.644123 0.776266 0.683356 0.126239
H20   H     H_    0.544691 0.781930 0.596451 0.063099
H21   H     H_    0.425437 0.782562 0.672257 0.121055
H22   H     H_    0.471535 0.774350 0.227366 0.108242
H23   H     H_    0.892741 0.840905 0.331351 0.073291
H24   H     H_    0.128776 0.325038 0.686719 -0.063793
H25   H     H_    0.990261 0.200535 0.680303 0.077176
H26   H     H_    0.205214 0.215844 0.701554 0.075203
H27   H     H_    0.698757 0.192155 0.649706 0.037617
H28   H     H_    0.528659 0.155078 0.589315 -0.020189
H29   H     H_    0.587323 0.094625 0.696425 0.036764
H30   H     H_    0.963300 0.727222 0.370686 0.076794
H31   H     H_    0.380721 0.117480 0.679419 0.075611
H32   H     H_    0.864376 0.179990 0.408707 0.043810
H33   H     H_    0.192713 0.156332 0.591659 0.039738
H34   H     H_    0.634578 0.833498 0.390717 0.068803
H35   H     H_    0.943201 0.819804 0.583724 0.059901
H36   H     H_    0.157691 0.353334 0.524608 0.053968
H37   H     H_    0.649315 0.643672 0.474729 0.065726
H38   H     H_    0.296017 0.085894 0.512586 0.096302
H39   H     H_    0.465327 0.018173 0.581279 0.060426
H40   H     H_    0.379940 0.894912 0.583128 0.073164
H41   H     H_    0.773280 0.719160 0.313793 -0.055790
H42   H     H_    0.127363 0.847862 0.520663 0.127887
H43   H     H_    0.523622 0.904278 0.471612 0.093710
H44   H     H_    0.356196 0.965207 0.399562 0.080436
H45   H     H_    0.678913 0.143232 0.463396 0.114837
H46   H     H_    0.486688 0.562738 0.831193 0.060970
H47   H     H_    0.450067 0.620275 0.945982 0.058204
H48   H     H_    0.554921 0.621271 0.069072 0.057261
H49   H     H_    0.284201 0.466595 0.186932 0.088847
H50   H     H_    0.185064 0.421866 0.946913 0.060397
H51   H     H_    0.079982 0.810503 0.298670 0.149237
H52   H     H_    0.289754 0.422472 0.069532 0.051687
H53   H     H_    0.016158 0.468227 0.862861 0.061802
H54   H     H_    0.731142 0.575020 0.146131 0.067827
H55   H     H_    0.154720 0.477087 0.651383 0.062061
H56   H     H_    0.663890 0.525245 0.354379 0.072296
H57   H     H_    0.895382 0.800072 0.239138 0.104490
H58   H     H_    0.630826 0.361937 0.336336 0.030927
O1    O     O_2   0.116570 0.673370 0.549300 -0.481352
O2    O     O_3   0.329004 0.354180 0.311415 -0.652428
O3    O     O_3   0.969923 0.674777 0.266765 -0.601924
O4    O     O_2   0.693730 0.326590 0.450680 -0.488624
O5    O     O_3   0.940960 0.415230 0.456980 -0.462796
O6    O     O_3   0.457750 0.369120 0.580200 -0.441196
O7    O     O_3   0.866564 0.328095 0.337109 -0.640124
O8    O     O_3   0.373690 0.535540 0.586160 -0.487858
O9    O     O_3   0.872560 0.404620 0.618320 -0.465838
O10   O     O_2   0.728641 0.434597 0.739975 -0.470914
O11   O     O_3   0.907464 0.324780 0.731868 -0.595252
O12   O     O_3   0.869340 0.584760 0.542960 -0.487266
O13   O     O_3   0.436600 0.464450 0.413780 -0.499652
O14   O     O_2   0.628980 0.533090 0.672420 -0.457844
O15   O     O_3   0.482950 0.654447 0.693884 -0.644854
O16   O     O_2   0.527992 0.244877 0.515722 -0.517675
O17   O     O_3   0.501204 0.253317 0.656110 -0.591394
O18   O     O_3   0.352540 0.630870 0.419750 -0.469659
O19   O     O_2   0.282192 0.759418 0.464099 -0.507732
O20   O     O_3   0.954140 0.685565 0.662123 -0.637127
O21   O     O_3   0.322836 0.731427 0.326313 -0.596563
O22   O     O_2   0.181320 0.466870 0.327560 -0.431130
O23   O     O_3   0.937730 0.595370 0.381630 -0.482998
O24   O     O_2   0.044198 0.544509 0.255104 -0.479217
P1    P     P_3+3 0.945400 0.662120 0.569160 0.975315
P2    P     P_3+3 0.355390 0.445380 0.336430 0.970539
P3    P     P_3+3 0.915430 0.592245 0.288514 0.967881
P4    P     P_3+3 0.864900 0.337880 0.430780 0.975713
P5    P     P_3+3 0.892617 0.411105 0.712125 1.001623
P6    P     P_3+3 0.392664 0.718274 0.412177 0.945115
P7    P     P_3+3 0.454275 0.562531 0.674658 0.942304
P8    P     P_3+3 0.423933 0.277996 0.575446 0.952388
C61   C     C_3   0.266517 0.716562 0.160711 -0.183254
C62   C     C_3   0.293306 0.753580 0.096760 -0.449137
H59   H     H_    0.389147 0.728536 0.065135 0.138031
H60   H     H_    0.178379 0.749842 0.061628 0.129938
H61   H     H_    0.330210 0.810119 0.115264 0.132344
H62   H     H_    0.170544 0.743035 0.190966 0.166301
H63   H     H_    0.223421 0.660836 0.140866 0.126822
N1    N     N_2   0.162081 0.340273 0.799419 -0.458647
H64   H     H_    0.115662 0.330421 0.846036 0.186239
C63   C     C_3   0.337845 0.345732 0.800702 -0.274320
H65   H     H_    0.386565 0.293690 0.802093 0.146862
H66   H     H_    0.389247 0.381472 0.849587 0.119677
H67   H     H_    0.377035 0.367152 0.753247 0.146091
C64   C     C_3   0.081418 0.189941 0.788756 -0.203495
C65   C     C_3   0.915576 0.188897 0.818117 -0.419716
H68   H     H_    0.921789 0.164096 0.867181 0.111721
H69   H     H_    0.874637 0.243098 0.831875 0.158733
H70   H     H_    0.828519 0.156594 0.777410 0.137327
H71   H     H_    0.112109 0.134314 0.773045 0.109802
H72   H     H_    0.175183 0.214124 0.831559 0.125841
N2    N     N_2   0.508626 0.178527 0.768753 -0.411318
H73   H     H_    0.599281 0.217943 0.782543 0.227396
C66   C     C_3   0.485741 0.136142 0.824124 -0.274749
H74   H     H_    0.466809 0.170987 0.874943 0.105441
H75   H     H_    0.594835 0.105792 0.832672 0.109118
H76   H     H_    0.377443 0.098877 0.809197 0.116370
N3    N     N_2   0.410412 0.101499 0.382716 -0.428238
H77   H     H_    0.463210 0.148338 0.373441 0.198179
C67   C     C_3   0.292512 0.067171 0.325789 -0.261552
H78   H     H_    0.230162 0.106579 0.298741 0.104867
H79   H     H_    0.196630 0.036831 0.348121 0.118629
H80   H     H_    0.353862 0.032112 0.285017 0.105780
N4    N     N_2   0.728630 0.367781 0.240293 -0.442407
H81   H     H_    0.619610 0.372163 0.211439 0.151934
C68   C     C_3   0.860434 0.350247 0.195455 -0.173467
H82   H     H_    0.861892 0.385247 0.154213 0.086052
H83   H     H_    0.843321 0.294763 0.168005 0.075388
H84   H     H_    0.979852 0.358659 0.227574 0.162684

loop_
_geom_bond_atom_site_label_1
_geom_bond_atom_site_label_2
_ccdc_geom_bond_type
C21   H37   S    
C53   C54   A    
C64   H72   S    
C4    H20   S    
C53   C57   A    
C39   C40   A    
O22   P2    D    
C38   H56   S    
C15   P6    S    
Ba1   O8    S    
C41   C42   A    
Ba1   O12   S    
N4    H81   S    
C5    C6    S    
C66   H75   S    
C67   H78   S    
O18   P6    S    
C37   H45   S    
O4    P4    D    
C2    H1    S    
C24   C25   A    
C31   C37   A    
C11   H33   S    
Ba1   O23   S    
O12   P1    S    
C26   C27   A    
C33   C35   A    
C35   C36   A    
C22   C24   A    
Ba1   Ba2   S    
C24   H39   S    
C3    C4    S    
C41   C50   S    
N4    C68   S    
C5    H24   S    
C2    O21   S    
Ba2   P4    S    
C44   C50   A    
C1    C61   S    
Ba2   O9    S    
C47   C55   S    
C54   C55   A    
C34   C45   S    
C34   N4    S    
C61   H62   S    
C54   H46   S    
C68   H84   S    
Ba1   O22   S    
O6    P8    S    
C39   P2    S    
C29   C30   A    
C14   C15   A    
Ba2   O12   S    
O17   P8    S    
C36   N3    S    
C16   H35   S    
C52   P5    S    
C7    C8    S    
C45   H4    S    
C5    O11   S    
O7    P4    S    
C18   C32   S    
C8    N2    S    
N2    C66   S    
C46   H47   S    
C64   H71   S    
C57   H55   S    
C4    H19   S    
C43   P3    S    
C60   H14   S    
Ba1   P2    S    
C7    O17   S    
O24   P3    D    
Ba1   O13   S    
C23   H57   S    
C23   H23   S    
C13   P8    S    
O16   P8    D    
O21   P6    S    
C48   C49   A    
C65   H70   S    
C63   H66   S    
C52   C57   A    
C67   H79   S    
C38   C43   A    
C44   C46   A    
C9    C18   A    
C14   H34   S    
C49   H52   S    
C20   C29   S    
C28   C32   A    
C49   C50   A    
Ba2   O13   S    
C30   C33   A    
C62   H61   S    
C65   H69   S    
C7    H27   S    
C45   H2    S    
C51   C55   A    
C66   H76   S    
C16   C17   A    
C5    N1    S    
C1    H22   S    
C8    H31   S    
C59   H11   S    
C51   C52   A    
C10   C19   A    
C4    H21   S    
C59   O2    S    
C6    H26   S    
N1    C63   S    
C61   H63   S    
C17   C21   A    
C40   H49   S    
O9    P5    S    
C27   C28   A    
C33   H43   S    
C23   H51   S    
C63   H67   S    
C26   H42   S    
O8    P7    S    
Ba1   O1    S    
C66   H74   S    
C15   C21   A    
C58   H8    S    
O10   P5    D    
C48   H50   S    
C31   C32   A    
C17   P1    S    
C3    H18   S    
C12   H30   S    
C62   H59   S    
C6    C64   S    
Ba2   O6    S    
C59   H10   S    
C56   H6    S    
C46   C47   A    
O3    P3    S    
C8    H29   S    
O23   P3    S    
C11   C13   A    
C64   C65   S    
O1    P1    D    
C60   H13   S    
O11   P5    S    
C34   O7    S    
C3    H17   S    
Ba1   P1    S    
C1    C2    S    
C65   H68   S    
C42   C43   A    
C9    H32   S    
C63   H65   S    
C67   H80   S    
C56   O20   S    
C3    O15   S    
C38   C39   A    
C14   C20   A    
C12   O3    S    
O19   P6    D    
C11   C18   A    
C22   H38   S    
C62   H60   S    
Ba1   O5    S    
O5    P4    S    
C7    H28   S    
C9    C10   A    
Ba2   O14   S    
C53   P7    S    
Ba2   O4    S    
C25   H40   S    
C58   H9    S    
C6    H25   S    
N1    H64   S    
C10   P4    S    
C16   C20   A    
C2    H15   S    
C27   C29   A    
C44   H48   S    
C30   C31   A    
C19   H36   S    
C1    H16   S    
C12   H41   S    
C36   C37   A    
O20   P1    S    
C58   H7    S    
O15   P7    S    
O14   P7    D    
O2    P2    S    
C12   C23   S    
C59   C60   S    
C34   H58   S    
C22   C28   A    
C68   H83   S    
C13   C19   A    
N3    H77   S    
Ba2   O5    S    
C56   H5    S    
C35   H44   S    
C42   H54   S    
C47   C48   A    
C40   C41   A    
C25   C26   A    
C60   H12   S    
C68   H82   S    
O13   P2    S    
C61   C62   S    
N2    H73   S    
C56   C58   S    
C45   H3    S    
Ba1   O18   S    
C51   H53   S    
N3    C67   S    
Ba2   O8    S    
