data_mof_unit_68111.cif
_audit_creation_date              2013-03-05T15:58:25-0500
_audit_creation_method            fapswitch 2.2
_symmetry_space_group_name_H-M    P1
_symmetry_Int_Tables_number       1
_space_group_crystal_system       triclinic
_cell_length_a                    7.586012
_cell_length_b                    15.059919
_cell_length_c                    15.963467
_cell_angle_alpha                 89.959606
_cell_angle_beta                  89.717212
_cell_angle_gamma                 90.010975
_cell_volume                      1823.71921645

loop_
_atom_site_label
_atom_site_type_symbol
_atom_site_description
_atom_site_fract_x
_atom_site_fract_y
_atom_site_fract_z
_atom_type_partial_charge
O1    O     O_R   0.388780 0.834790 0.412340 -0.541148
O2    O     O_R   0.111220 0.165210 0.912340 -0.558002
O3    O     O_R   0.888780 0.665210 0.587660 -0.550889
O4    O     O_R   0.611220 0.334790 0.087660 -0.540731
O5    O     O_R   0.059040 0.845930 0.587040 -0.548119
O6    O     O_R   0.440960 0.154070 0.087040 -0.563037
O7    O     O_R   0.559040 0.654070 0.412960 -0.562219
O8    O     O_R   0.940960 0.345930 0.912960 -0.557892
C1    C     C_R   0.225429 0.866614 0.614925 0.969679
C2    C     C_R   0.274451 0.133730 0.115086 0.915753
C3    C     C_R   0.725489 0.633819 0.384813 0.909778
C4    C     C_R   0.774393 0.366517 0.885117 0.966502
O9    O     O_R   0.059070 0.845930 0.412970 -0.538821
O10   O     O_R   0.440930 0.154070 0.912970 -0.497430
O11   O     O_R   0.559070 0.654070 0.587030 -0.508260
O12   O     O_R   0.940930 0.345930 0.087030 -0.539077
O13   O     O_R   0.888760 0.665210 0.412340 -0.567713
O14   O     O_R   0.611240 0.334790 0.912340 -0.556624
O15   O     O_R   0.388760 0.834790 0.587660 -0.555796
O16   O     O_R   0.111240 0.165210 0.087660 -0.567619
C5    C     C_R   0.229331 0.870160 0.388258 0.943351
C6    C     C_R   0.272650 0.133874 0.884452 0.930013
C7    C     C_R   0.727917 0.632323 0.614181 0.934817
C8    C     C_R   0.770657 0.370145 0.111766 0.942749
O17   O     O_3   0.222280 0.690700 0.500000 -0.260411
O18   O     O_3   0.277720 0.309300 0.000000 -0.253916
O19   O     O_3   0.722280 0.809300 0.500000 -0.250639
O20   O     O_3   0.777720 0.190700 0.000000 -0.261727
V1    V     V_3+5 0.947430 0.761000 0.500000 1.342053
V2    V     V_3+5 0.552570 0.239000 0.000000 1.354303
V3    V     V_3+5 0.447430 0.739000 0.500000 1.352030
V4    V     V_3+5 0.052570 0.261000 0.000000 1.339292
C9    C     C_3   0.935935 0.553933 0.722427 -0.344583
C10   C     C_3   0.555107 0.457980 0.212318 -0.347561
C11   C     C_3   0.444700 0.957897 0.287566 -0.346348
C12   C     C_3   0.066044 0.057824 0.774884 -0.352189
C13   C     C_3   0.938768 0.498177 0.806234 -0.298032
C14   C     C_3   0.550571 0.509346 0.298775 -0.234501
C15   C     C_3   0.449126 0.009193 0.201043 -0.235081
C16   C     C_3   0.062013 0.000157 0.692194 -0.280964
C17   C     C_3   0.695690 0.457711 0.649921 -0.280479
C18   C     C_3   0.811974 0.546011 0.147619 -0.267931
C19   C     C_3   0.187838 0.045995 0.352158 -0.262565
C20   C     C_3   0.303491 0.959914 0.848640 -0.273386
C21   C     C_3   0.628897 0.581275 0.763997 -0.261077
C22   C     C_3   0.852580 0.418655 0.261143 -0.377229
C23   C     C_3   0.147074 0.918551 0.238924 -0.378402
C24   C     C_3   0.375798 0.082285 0.733487 -0.333520
C25   C     C_3   0.742049 0.557464 0.683175 -0.169923
C26   C     C_3   0.753498 0.447064 0.179035 -0.156127
C27   C     C_3   0.246353 0.947031 0.320912 -0.156738
C28   C     C_3   0.259624 0.059936 0.814714 -0.137687
C29   C     C_3   0.773387 0.434152 0.810419 -0.090978
C30   C     C_3   0.725060 0.567290 0.309159 -0.050237
C31   C     C_3   0.274685 0.067145 0.190670 -0.051460
C32   C     C_3   0.225596 0.934970 0.689337 -0.055562
C33   C     C_3   0.745980 0.386639 0.723087 -0.346203
C34   C     C_3   0.774343 0.614752 0.223947 -0.341519
C35   C     C_3   0.225649 0.114711 0.275773 -0.343230
C36   C     C_3   0.245131 0.888413 0.777517 -0.328253
C37   C     C_3   0.610917 0.497587 0.819942 -0.428067
C38   C     C_3   0.875551 0.497808 0.321761 -0.486312
C39   C     C_3   0.123858 0.997702 0.178269 -0.485420
C40   C     C_3   0.390123 0.996729 0.679615 -0.493931
H1    H     H_    0.590966 0.519960 0.884362 0.223296
H2    H     H_    0.874847 0.471309 0.385451 0.215675
H3    H     H_    0.123425 0.971045 0.114673 0.216128
H4    H     H_    0.408268 0.016550 0.614584 0.207196
C41   C     C_2   0.080385 0.530976 0.661295 1.181491
O21   O     O_2   0.181307 0.588927 0.637575 -0.570567
O22   O     O_R   0.098031 0.445105 0.630886 -0.787235
H5    H     H_    0.147436 0.444154 0.571942 0.361641
C42   C     C_2   0.434335 0.495256 0.146504 1.120468
O23   O     O_2   0.368568 0.445064 0.095801 -0.518634
O24   O     O_R   0.410909 0.586180 0.137155 -0.768231
H6    H     H_    0.381269 0.602233 0.077311 0.336918
C43   C     C_2   0.565707 0.995158 0.353273 1.120032
O25   O     O_2   0.631789 0.944931 0.403911 -0.518467
O26   O     O_R   0.589009 0.086079 0.362623 -0.768026
H7    H     H_    0.618770 0.102054 0.422456 0.330524
C44   C     C_2   0.920320 0.038423 0.836757 1.164714
O27   O     O_2   0.818854 0.097515 0.856875 -0.557857
O28   O     O_R   0.903958 0.955287 0.873020 -0.777944
H8    H     H_    0.854971 0.957750 0.932012 0.370612
H9    H     H_    0.491888 0.461081 0.802923 0.235462
H10   H     H_    0.003919 0.530105 0.313226 0.202339
H11   H     H_    0.995687 0.030085 0.187000 0.202277
H12   H     H_    0.508147 0.959350 0.697146 0.236184
C45   C     C_2   0.503113 0.446317 0.626830 1.047412
O29   O     O_2   0.438476 0.496896 0.575856 -0.595534
O30   O     O_R   0.417664 0.365732 0.644107 -0.750888
H13   H     H_    0.344098 0.343079 0.595929 0.354085
C46   C     C_2   0.000995 0.556388 0.120430 0.995711
O31   O     O_2   0.066496 0.500967 0.074664 -0.564959
O32   O     O_R   0.075125 0.641498 0.123090 -0.700862
H14   H     H_    0.126367 0.660151 0.067079 0.354873
C47   C     C_2   0.998807 0.056325 0.379398 0.995090
O33   O     O_2   0.933603 0.001082 0.425562 -0.563555
O34   O     O_R   0.924493 0.141363 0.376359 -0.701751
H15   H     H_    0.873537 0.160245 0.432335 0.353605
C48   C     C_2   0.497636 0.948116 0.868381 1.035135
O35   O     O_2   0.565686 0.998803 0.918065 -0.601563
O36   O     O_R   0.583392 0.868316 0.848607 -0.741970
H16   H     H_    0.671843 0.848721 0.892036 0.370461
H17   H     H_    0.631044 0.344727 0.736152 0.198372
H18   H     H_    0.901469 0.643271 0.241262 0.211717
H19   H     H_    0.098649 0.143366 0.258435 0.211869
H20   H     H_    0.353320 0.842250 0.766915 0.198640
H21   H     H_    0.968250 0.622070 0.741960 0.128367
H22   H     H_    0.502977 0.390871 0.225976 0.172028
H23   H     H_    0.496682 0.890773 0.273996 0.171936
H24   H     H_    0.035793 0.125763 0.753430 0.157564
H25   H     H_    0.914415 0.546989 0.857530 0.154605
H26   H     H_    0.566040 0.456339 0.346835 0.151190
H27   H     H_    0.433468 0.956205 0.153052 0.149367
H28   H     H_    0.085907 0.047456 0.639517 0.167640
C49   C     C_2   0.117913 0.463944 0.832438 1.150951
O37   O     O_2   0.206855 0.417817 0.786264 -0.609115
O38   O     O_R   0.182089 0.486585 0.911627 -0.720091
H29   H     H_    0.302165 0.460310 0.923451 0.356342
C50   C     C_2   0.371998 0.543369 0.328408 1.069829
O39   O     O_2   0.291784 0.600941 0.290789 -0.570596
O40   O     O_R   0.300550 0.508243 0.402506 -0.758266
H30   H     H_    0.189654 0.539647 0.421761 0.345091
C51   C     C_2   0.627714 0.043178 0.171330 1.070316
O41   O     O_2   0.708224 0.100578 0.208984 -0.571016
O42   O     O_R   0.698752 0.008301 0.097091 -0.760995
H31   H     H_    0.810101 0.039495 0.078054 0.341046
C52   C     C_2   0.882833 0.964136 0.668933 1.105430
O43   O     O_2   0.797649 0.918782 0.717425 -0.622688
O44   O     O_R   0.817651 0.981005 0.588742 -0.733404
H32   H     H_    0.698010 0.953368 0.578905 0.347316
C53   C     C_2   0.776256 0.437491 0.563406 1.000406
O45   O     O_2   0.859591 0.494082 0.525729 -0.723000
O46   O     O_R   0.731831 0.358888 0.521294 -0.734745
H33   H     H_    0.791412 0.352709 0.464705 0.329319
C54   C     C_2   0.729782 0.569922 0.062448 0.933630
O47   O     O_2   0.666974 0.511431 0.019411 -0.720443
O48   O     O_R   0.750729 0.654141 0.026648 -0.719052
H34   H     H_    0.697265 0.658913 0.968718 0.328801
C55   C     C_2   0.270122 0.069993 0.437182 0.930998
O49   O     O_2   0.333662 0.011579 0.480058 -0.725934
O50   O     O_R   0.248616 0.154086 0.473058 -0.725445
H35   H     H_    0.302606 0.158881 0.530868 0.317414
C56   C     C_2   0.230311 0.940286 0.936498 1.043361
O51   O     O_2   0.150307 0.996895 0.975540 -0.726171
O52   O     O_R   0.276570 0.860980 0.977239 -0.735997
H36   H     H_    0.223732 0.855254 0.035356 0.329280
C57   C     C_2   0.882484 0.315459 0.701354 1.174413
O53   O     O_2   0.869845 0.272463 0.636994 -0.565658
O54   O     O_R   0.012817 0.291608 0.757737 -0.771185
H37   H     H_    0.115036 0.260275 0.729358 0.326071
C58   C     C_2   0.666288 0.697111 0.203580 1.168971
O55   O     O_2   0.720978 0.750962 0.152476 -0.540445
O56   O     O_R   0.510795 0.715647 0.246289 -0.743130
H38   H     H_    0.437422 0.761741 0.216481 0.326613
C59   C     C_2   0.334136 0.196987 0.295988 1.168890
O57   O     O_2   0.279938 0.250831 0.347131 -0.544339
O58   O     O_R   0.489485 0.215451 0.253093 -0.743187
H39   H     H_    0.563179 0.261483 0.282763 0.326900
C60   C     C_2   0.095799 0.823039 0.798461 1.088989
O59   O     O_2   0.071576 0.796104 0.869671 -0.591513
O60   O     O_R   0.995531 0.785497 0.734992 -0.789047
H40   H     H_    0.883147 0.757594 0.757294 0.332288
C61   C     C_2   0.462501 0.634847 0.758693 1.088123
O61   O     O_2   0.465169 0.707564 0.725400 -0.640308
O62   O     O_R   0.317308 0.611042 0.806741 -0.822439
H41   H     H_    0.222919 0.658150 0.807627 0.327479
C62   C     C_2   0.009184 0.359737 0.251626 1.166403
O63   O     O_2   0.985358 0.280050 0.251503 -0.607380
O64   O     O_R   0.176637 0.392023 0.238146 -0.775142
H42   H     H_    0.172032 0.457763 0.229649 0.257686
C63   C     C_2   0.990627 0.859502 0.248584 1.169178
O65   O     O_2   0.014739 0.779841 0.249154 -0.607632
O66   O     O_R   0.823022 0.891659 0.261763 -0.775463
H43   H     H_    0.827486 0.957399 0.270156 0.257320
C64   C     C_2   0.547371 0.134331 0.736765 1.090242
O67   O     O_2   0.559338 0.199637 0.780784 -0.595925
O68   O     O_R   0.678503 0.122929 0.676520 -0.777370
H44   H     H_    0.629127 0.110131 0.619117 0.313594
H45   H     H_    0.706203 0.629509 0.801851 0.113427
H46   H     H_    0.763734 0.372426 0.295625 0.146256
H47   H     H_    0.235852 0.872370 0.204434 0.145823
H48   H     H_    0.300061 0.130512 0.694964 0.117587

loop_
_geom_bond_atom_site_label_1
_geom_bond_atom_site_label_2
_geom_bond_distance
_ccdc_geom_bond_type
O17   V3    1.856302 S    
C17   C45   1.518168 S    
O64   H42   0.999833 S    
O1    C5    1.378102 A    
C46   O31   1.214376 D    
C15   C51   1.521645 S    
C31   C35   1.579137 S    
O19   V1    1.856558 S    
C18   C46   1.504194 S    
C42   O24   1.388850 S    
C42   O23   1.216601 D    
O3    C7    1.381329 A    
O32   H14   1.012750 S    
C16   C52   1.511539 S    
O15   V3    2.057741 S    
C18   C34   1.623667 S    
C17   C53   1.538174 S    
C47   O33   1.214614 D    
C21   H45   1.113860 S    
O40   H30   1.011767 S    
C63   O65   1.213623 D    
O7    C3    1.372591 A    
C38   H10   1.096292 S    
C61   O61   1.217048 D    
C22   C38   1.546253 S    
O28   H8    1.011395 S    
C40   H4    1.088057 S    
O9    V1    2.066109 S    
C57   O54   1.387499 S    
C23   C39   1.545824 S    
O4    C8    1.378069 A    
C24   C40   1.553146 S    
C13   H25   1.115555 S    
C9    C25   1.602458 S    
O50   H35   1.014113 S    
O1    V3    2.059313 S    
O13   V1    2.060609 S    
O2    V4    2.057711 S    
C62   O63   1.213578 D    
C21   C37   1.549764 S    
O3    V1    2.056207 S    
C46   O32   1.400341 S    
O52   H36   1.012432 S    
C60   O60   1.390327 S    
C29   C37   1.566407 S    
C1    O15   1.396251 A    
C59   O57   1.221020 D    
C15   C31   1.594580 S    
O58   H39   1.010132 S    
C2    O16   1.398094 A    
C64   O68   1.390972 S    
C33   C57   1.529440 S    
C12   H24   1.103262 S    
O54   H37   1.012996 S    
C32   C40   1.563437 S    
O14   V2    2.056239 S    
C21   C25   1.587404 S    
C45   O30   1.402341 S    
C4    C29   1.567754 S    
C36   H20   1.088373 S    
C19   C35   1.623183 S    
C13   C29   1.583272 S    
C20   C28   1.635195 S    
O11   C7    1.393271 A    
C41   O22   1.387900 S    
C48   O36   1.402111 S    
C18   C54   1.541031 S    
O10   C6    1.391103 A    
C62   O64   1.375972 S    
C61   O62   1.386035 S    
O10   V2    2.072933 S    
C17   C25   1.632502 S    
C24   C64   1.520359 S    
C47   O34   1.400260 S    
C60   O59   1.219744 D    
O56   H38   1.010163 S    
O5    V1    2.072944 S    
C35   H19   1.092543 S    
C43   O26   1.388841 S    
C8    C26   1.585062 S    
O48   H34   1.014129 S    
C39   H3    1.091993 S    
C10   C26   1.602078 S    
O7    V3    2.067537 S    
C33   H17   1.095418 S    
C38   H2    1.091954 S    
O8    V4    2.071936 S    
C48   O35   1.217787 D    
O46   H33   1.012465 S    
O26   H7    1.011725 S    
C23   H47   1.112416 S    
O62   H41   1.008129 S    
C24   H48   1.113018 S    
C29   C33   1.582089 S    
O18   V4    1.856302 S    
C23   C27   1.573066 S    
C30   C38   1.562413 S    
C16   C32   1.582954 S    
C43   O25   1.216633 D    
C11   C43   1.505940 S    
C44   O27   1.218926 D    
C14   C50   1.521738 S    
C32   C36   1.579794 S    
C31   C39   1.563356 S    
C34   H18   1.092492 S    
C55   O50   1.399505 S    
C59   O58   1.388041 S    
C11   C15   1.582292 S    
O24   H6    1.011660 S    
O5    C1    1.376227 A    
C34   C58   1.522650 S    
C53   O45   1.217817 D    
C54   O48   1.399467 S    
C22   H46   1.112463 S    
O34   H15   1.012799 S    
C14   C30   1.594687 S    
C12   C16   1.581017 S    
C12   C44   1.507204 S    
O8    C4    1.376878 A    
C30   C34   1.579408 S    
C36   C60   1.536153 S    
O9    C5    1.396995 A    
C1    C32   1.572434 S    
O38   H29   1.011769 S    
C51   O42   1.401943 S    
C2    C31   1.568335 S    
C3    C30   1.569753 S    
C50   O39   1.218911 D    
C23   C63   1.490209 S    
C63   O66   1.375904 S    
C37   H9    1.092626 S    
C18   C26   1.632571 S    
O6    V2    2.066123 S    
C15   H27   1.113352 S    
C11   C27   1.601887 S    
C51   O41   1.218916 D    
C10   H22   1.106358 S    
C19   C55   1.539949 S    
C58   O56   1.388028 S    
O42   H31   1.011768 S    
C56   O51   1.216881 D    
C5    C27   1.584130 S    
C11   H23   1.106323 S    
C6    C28   1.578550 S    
C52   O43   1.215524 D    
O16   V4    2.059346 S    
C3    O13   1.398606 A    
C39   H11   1.096159 S    
C10   C14   1.582862 S    
C19   C47   1.504542 S    
C12   C28   1.603433 S    
C44   O28   1.384301 S    
C20   C48   1.518083 S    
O11   V3    2.071923 S    
C9    C41   1.504227 S    
O68   H44   1.010319 S    
O12   V4    2.067521 S    
C54   O47   1.216088 D    
C22   C26   1.573232 S    
C49   O37   1.215370 D    
C22   C62   1.490151 S    
O2    C6    1.384088 A    
C49   O38   1.399244 S    
C58   O55   1.221043 D    
C17   C33   1.630386 S    
O22   H5    1.011236 S    
O66   H43   0.999746 S    
C57   O53   1.218983 D    
C35   C59   1.522990 S    
C19   C27   1.632859 S    
C16   H28   1.115787 S    
C20   C36   1.628217 S    
C14   H26   1.113416 S    
C56   O52   1.404945 S    
O20   V2    1.856559 S    
C13   C49   1.514339 S    
C41   O21   1.219673 D    
C9    C13   1.579264 S    
C50   O40   1.401943 S    
O60   H40   1.013324 S    
C7    C25   1.579538 S    
O6    C2    1.372546 A    
C10   C42   1.505722 S    
C20   C56   1.534368 S    
C37   H1    1.092220 S    
C24   C28   1.599772 S    
C9    H21   1.100628 S    
O12   C8    1.397402 A    
C64   O67   1.212788 D    
C4    O14   1.393977 A    
O36   H16   1.011104 S    
C53   O46   1.403550 S    
C45   O29   1.219010 D    
C55   O49   1.215416 D    
C21   C61   1.500927 S    
C40   H12   1.095104 S    
O4    V2    2.060574 S    
O30   H13   1.011853 S    
O44   H32   1.011422 S    
C52   O44   1.397711 S    
