data_mof_unit_30377.cif
_audit_creation_date              2012-12-10T17:46:25-0500
_audit_creation_method            fapswitch 2.2
_symmetry_space_group_name_H-M    P1
_symmetry_Int_Tables_number       1
_space_group_crystal_system       triclinic
_cell_length_a                    20.550786
_cell_length_b                    21.048288
_cell_length_c                    14.709115
_cell_angle_alpha                 89.998961
_cell_angle_beta                  128.532345
_cell_angle_gamma                 90.001139
_cell_volume                      4977.15306508

loop_
_atom_site_label
_atom_site_type_symbol
_atom_type_description
_atom_site_fract_x
_atom_site_fract_y
_atom_site_fract_z
_atom_type_partial_charge
C1    C     C_R   0.604622 0.913669 0.633496 0.896443
C2    C     C_R   0.616430 0.272639 0.996845 -0.125997
C3    C     C_R   0.760234 0.811553 0.019476 0.075803
C4    C     C_R   0.176928 0.768002 0.898073 0.047844
C5    C     C_R   0.739797 0.311539 0.980544 0.075884
C6    C     C_R   0.823088 0.768000 0.101925 0.047846
C7    C     C_R   0.260214 0.311547 0.019470 0.075864
C8    C     C_R   0.296719 0.833656 0.964099 -0.137704
C9    C     C_R   0.610931 0.255466 0.901033 -0.132577
C10   C     C_R   0.703319 0.833673 0.035931 -0.137802
C11   C     C_R   0.389073 0.255468 0.098967 -0.132515
C12   C     C_R   0.796730 0.333646 0.964114 -0.137592
C13   C     C_R   0.699262 0.805782 0.117566 -0.113685
C14   C     C_R   0.110921 0.755477 0.901019 -0.132566
C15   C     C_R   0.203284 0.333654 0.035905 -0.137615
C16   C     C_R   0.889074 0.755453 0.098944 -0.132570
C17   C     C_R   0.383568 0.272636 0.003148 -0.125930
C18   C     C_R   0.800792 0.305751 0.882489 -0.113722
C19   C     C_R   0.116413 0.772658 0.996823 -0.125976
C20   C     C_R   0.199218 0.305753 0.117525 -0.113740
C21   C     C_R   0.883558 0.772613 0.003112 -0.126015
C22   C     C_R   0.319297 0.997543 0.662151 -0.129202
C23   C     C_R   0.680703 0.997529 0.337852 -0.129184
C24   C     C_R   0.819294 0.497517 0.662142 -0.129195
C25   C     C_R   0.396406 0.087268 0.368013 0.862583
C26   C     C_R   0.180699 0.497531 0.337843 -0.129200
C27   C     C_R   0.350567 0.998042 0.601316 0.180195
C28   C     C_R   0.649432 0.998027 0.398685 0.180133
C29   C     C_R   0.850568 0.498024 0.601313 0.180079
C30   C     C_R   0.149431 0.498030 0.398680 0.180101
C31   C     C_R   0.487970 0.998538 0.776427 0.109933
C32   C     C_R   0.512031 0.998543 0.223573 0.109884
C33   C     C_R   0.987968 0.498546 0.776427 0.109882
C34   C     C_R   0.012028 0.498537 0.223573 0.109887
C35   C     C_R   0.460451 0.003779 0.844361 -0.024264
C36   C     C_R   0.395377 0.913669 0.366503 0.896480
C37   C     C_R   0.539553 0.003780 0.155641 -0.024256
C38   C     C_R   0.960443 0.503773 0.844356 -0.024255
C39   C     C_R   0.039544 0.503774 0.155635 -0.024257
C40   C     C_R   0.373481 0.000545 0.784556 -0.063972
C41   C     C_R   0.626522 0.000540 0.215447 -0.063922
C42   C     C_R   0.873474 0.500526 0.784548 -0.063924
C43   C     C_R   0.126514 0.500539 0.215438 -0.063920
C44   C     C_R   0.516376 0.008820 0.969031 -0.137073
C45   C     C_R   0.483629 0.008822 0.030972 -0.137080
C46   C     C_R   0.016364 0.508817 0.969024 -0.137088
C47   C     C_R   0.603594 0.087269 0.631986 0.862530
C48   C     C_R   0.983617 0.508811 0.030964 -0.137073
C49   C     C_R   0.396745 0.019053 0.966238 0.313339
C50   C     C_R   0.603262 0.019047 0.033766 0.313295
C51   C     C_R   0.896729 0.519029 0.966226 0.313320
C52   C     C_R   0.103246 0.519054 0.033756 0.313343
C53   C     C_R   0.342363 0.003581 0.847322 0.335917
C54   C     C_R   0.657643 0.003575 0.152683 0.335879
C55   C     C_R   0.842352 0.503554 0.847310 0.335921
C56   C     C_R   0.157630 0.503579 0.152669 0.335931
C57   C     C_R   0.657943 0.143133 0.698798 -0.171738
C58   C     C_R   0.104622 0.413670 0.633498 0.896440
C59   C     C_R   0.326766 0.870220 0.279062 -0.168310
C60   C     C_R   0.342057 0.143130 0.301196 -0.171761
C61   C     C_R   0.673227 0.870217 0.720932 -0.168302
C62   C     C_R   0.157939 0.643138 0.698792 -0.171756
C63   C     C_R   0.826771 0.370216 0.279067 -0.168301
C64   C     C_R   0.842070 0.643141 0.301212 -0.171755
C65   C     C_R   0.173230 0.370220 0.720938 -0.168298
C66   C     C_R   0.768061 0.217961 0.756091 -0.206445
C67   C     C_R   0.199290 0.810792 0.194806 -0.201881
C68   C     C_R   0.231937 0.217952 0.243901 -0.206433
C69   C     C_R   0.896408 0.587270 0.368016 0.862554
C70   C     C_R   0.800655 0.810740 0.805120 -0.201844
C71   C     C_R   0.268043 0.717976 0.756064 -0.206465
C72   C     C_R   0.699312 0.310770 0.194831 -0.201795
C73   C     C_R   0.731981 0.717989 0.243956 -0.206447
C74   C     C_R   0.300677 0.310763 0.805157 -0.201809
C75   C     C_R   0.726640 0.160847 0.703208 0.436123
C76   C     C_R   0.271223 0.839718 0.291892 0.432561
C77   C     C_R   0.273355 0.160836 0.296776 0.435989
C78   C     C_R   0.728725 0.839679 0.708053 0.432510
C79   C     C_R   0.226626 0.660861 0.703183 0.436132
C80   C     C_R   0.895378 0.413668 0.366504 0.896441
C81   C     C_R   0.771242 0.339701 0.291912 0.432533
C82   C     C_R   0.773385 0.660867 0.296822 0.436115
C83   C     C_R   0.228745 0.339695 0.708080 0.432520
C84   C     C_R   0.637991 0.181502 0.756731 -0.237216
C85   C     C_R   0.313885 0.862540 0.173870 -0.241569
C86   C     C_R   0.362012 0.181502 0.243271 -0.237207
C87   C     C_R   0.686145 0.862566 0.826155 -0.241552
C88   C     C_R   0.137993 0.681501 0.756737 -0.237210
C89   C     C_R   0.813881 0.362544 0.173869 -0.241519
C90   C     C_R   0.862022 0.681504 0.243272 -0.237229
C91   C     C_R   0.103594 0.587270 0.631985 0.862528
C92   C     C_R   0.186132 0.362559 0.826149 -0.241550
C93   C     C_R   0.685727 0.235568 0.821194 0.089232
C94   C     C_R   0.246401 0.827825 0.080114 0.091168
C95   C     C_R   0.314279 0.235569 0.178812 0.089231
C96   C     C_R   0.753611 0.827826 0.919883 0.091185
C97   C     C_R   0.185722 0.735572 0.821188 0.089234
C98   C     C_R   0.746406 0.327819 0.080123 0.091178
C99   C     C_R   0.814299 0.735577 0.178823 0.089218
C100  C     C_R   0.253602 0.327827 0.919888 0.091157
C101  C     C_R   0.750287 0.253950 0.817715 0.077693
C102  C     C_R   0.300778 0.805763 0.882468 -0.113725
C103  C     C_R   0.186632 0.804532 0.090080 0.052665
C104  C     C_R   0.249718 0.253949 0.182290 0.077677
C105  C     C_R   0.813345 0.804500 0.909872 0.052688
C106  C     C_R   0.250274 0.753961 0.817697 0.077697
C107  C     C_R   0.686647 0.304517 0.090099 0.052685
C108  C     C_R   0.749755 0.753973 0.182326 0.077686
C109  C     C_R   0.313352 0.304516 0.909898 0.052690
C110  C     C_R   0.676934 0.267996 0.898080 0.047835
C111  C     C_R   0.239791 0.811545 0.980535 0.075848
C112  C     C_R   0.323074 0.268001 0.101928 0.047854
Cu1   Cu    Cu3+1 0.526640 0.000000 0.436960 1.045836
Cu2   Cu    Cu3+1 0.473360 1.000000 0.563040 1.045969
Cu3   Cu    Cu3+1 0.026640 0.500000 0.436960 1.045839
Cu4   Cu    Cu3+1 0.973360 0.500000 0.563040 1.045820
H1    H     H_    0.347941 0.821955 0.876154 0.140176
H2    H     H_    0.586775 0.166762 0.754235 0.213444
H3    H     H_    0.641389 0.883355 0.832476 0.167833
H4    H     H_    0.413231 0.166766 0.245771 0.213444
H5    H     H_    0.858667 0.383305 0.167580 0.167814
H6    H     H_    0.086789 0.666754 0.754263 0.213468
H7    H     H_    0.141361 0.383335 0.832454 0.167823
H8    H     H_    0.913227 0.666756 0.245752 0.213464
H9    H     H_    0.318978 0.732284 0.756655 0.192231
H10   H     H_    0.654723 0.289979 0.202646 0.186557
H11   H     H_    0.681049 0.732300 0.243369 0.192266
H12   H     H_    0.567468 0.258055 0.000415 0.164076
H13   H     H_    0.345257 0.289963 0.797331 0.186562
H14   H     H_    0.819003 0.232263 0.756695 0.192258
H15   H     H_    0.154691 0.790010 0.202612 0.186572
H16   H     H_    0.180992 0.232250 0.243294 0.192274
H17   H     H_    0.845221 0.789929 0.797278 0.186572
H18   H     H_    0.340270 0.871585 0.014327 0.140654
H19   H     H_    0.555268 0.231122 0.831276 0.189459
H20   H     H_    0.659770 0.871603 0.985706 0.140671
H21   H     H_    0.444735 0.231123 0.168723 0.189453
H22   H     H_    0.840284 0.371572 0.014347 0.140627
H23   H     H_    0.652106 0.821979 0.123889 0.140202
H24   H     H_    0.055257 0.731134 0.831258 0.189457
H25   H     H_    0.159731 0.371581 0.985675 0.140633
H26   H     H_    0.944735 0.731103 0.168692 0.189475
H27   H     H_    0.447328 0.992460 0.183053 0.169092
H28   H     H_    0.552671 0.992449 0.816947 0.169062
H29   H     H_    0.947327 0.492450 0.183059 0.169098
H30   H     H_    0.052673 0.492473 0.816951 0.169076
H31   H     H_    0.691495 0.996531 0.491909 0.207474
H32   H     H_    0.308499 0.996557 0.508090 0.207918
H33   H     H_    0.191497 0.496539 0.491904 0.207495
H34   H     H_    0.432525 0.258047 0.999569 0.164076
H35   H     H_    0.808507 0.496533 0.508089 0.207446
H36   H     H_    0.252502 0.997467 0.611348 0.230173
H37   H     H_    0.747499 0.997443 0.388658 0.230109
H38   H     H_    0.752499 0.497428 0.611335 0.230114
H39   H     H_    0.247494 0.497449 0.388643 0.230109
H40   H     H_    0.269168 0.153878 0.925038 0.379423
H41   H     H_    0.730791 0.153908 0.074913 0.379399
H42   H     H_    0.769177 0.653874 0.925052 0.379405
H43   H     H_    0.230773 0.653926 0.074972 0.379413
H44   H     H_    0.397141 0.835366 0.608346 0.367639
H45   H     H_    0.847961 0.321939 0.876184 0.140168
H46   H     H_    0.814179 0.014107 0.696961 0.384122
H47   H     H_    0.602675 0.835474 0.391618 0.367604
H48   H     H_    0.185544 0.014154 0.302371 0.384264
H49   H     H_    0.897207 0.335533 0.608339 0.367590
H50   H     H_    0.314195 0.514141 0.696942 0.384145
H51   H     H_    0.102734 0.335516 0.391651 0.367590
H52   H     H_    0.685851 0.514131 0.303145 0.384141
H53   H     H_    0.163073 0.958548 0.832364 0.386759
H54   H     H_    0.836919 0.958489 0.167656 0.386735
H55   H     H_    0.663029 0.458579 0.832321 0.386796
H56   H     H_    0.067445 0.758081 0.000385 0.164072
H57   H     H_    0.336940 0.458631 0.167617 0.386798
H58   H     H_    0.152049 0.321940 0.123830 0.140178
H59   H     H_    0.932503 0.758013 0.999517 0.164097
H60   H     H_    0.358687 0.883284 0.167596 0.167815
N1    N     N_R   0.433280 0.000000 0.657760 -0.213527
N2    N     N_R   0.566720 1.000000 0.342240 -0.213505
N3    N     N_R   0.933280 0.500000 0.657760 -0.213497
N4    N     N_R   0.066720 0.500000 0.342240 -0.213505
O1    O     O_R   0.600040 0.935040 0.546740 -0.526141
O2    O     O_R   0.444990 0.064930 0.346780 -0.567513
O3    O     O_R   0.444990 0.935070 0.346780 -0.602445
O4    O     O_R   0.555010 0.064930 0.653220 -0.567521
O5    O     O_R   0.055010 0.435070 0.653220 -0.602411
O6    O     O_R   0.944990 0.564930 0.346780 -0.567492
O7    O     O_R   0.944990 0.435070 0.346780 -0.602422
O8    O     O_R   0.055010 0.564930 0.653220 -0.567510
O9    O     O_2   0.320627 0.052371 0.057957 -0.271586
O10   O     O_2   0.435986 0.118840 0.105191 -0.337517
O11   O     O_3   0.294868 0.127770 0.898929 -0.455830
O12   O     O_R   0.399960 0.064960 0.453260 -0.531421
O13   O     O_2   0.679371 0.052359 0.942028 -0.271523
O14   O     O_2   0.564027 0.118836 0.894819 -0.337567
O15   O     O_3   0.705156 0.127755 0.101072 -0.455761
O16   O     O_2   0.820605 0.552329 0.057943 -0.271539
O17   O     O_2   0.935945 0.618817 0.105162 -0.337560
O18   O     O_3   0.794822 0.627729 0.898903 -0.455784
O19   O     O_2   0.179357 0.552417 0.942044 -0.271570
O20   O     O_2   0.063982 0.618857 0.894822 -0.337511
O21   O     O_3   0.205098 0.627789 0.101087 -0.455823
O22   O     O_2   0.251644 0.886422 0.441843 -0.333225
O23   O     O_R   0.399960 0.935040 0.453260 -0.525950
O24   O     O_2   0.249710 0.771046 0.424909 -0.219874
O25   O     O_3   0.392436 0.827240 0.538110 -0.504243
O26   O     O_2   0.718459 0.117471 0.526406 -0.260883
O27   O     O_2   0.857510 0.130868 0.711756 -0.257561
O28   O     O_3   0.769703 0.035613 0.693258 -0.558114
O29   O     O_2   0.748235 0.886337 0.558004 -0.333457
O30   O     O_2   0.750135 0.770965 0.574969 -0.219687
O31   O     O_3   0.607434 0.827188 0.461856 -0.504201
O32   O     O_2   0.281467 0.117488 0.473540 -0.260651
O33   O     O_2   0.142449 0.130809 0.288108 -0.257784
O34   O     O_R   0.600040 0.064960 0.546740 -0.531463
O35   O     O_3   0.230375 0.035581 0.306825 -0.558330
O36   O     O_2   0.751668 0.386389 0.441875 -0.333493
O37   O     O_2   0.749766 0.271014 0.424953 -0.219715
O38   O     O_3   0.892476 0.327230 0.538126 -0.504171
O39   O     O_2   0.218415 0.617487 0.526355 -0.260886
O40   O     O_2   0.357479 0.630907 0.711674 -0.257583
O41   O     O_3   0.269714 0.535636 0.693238 -0.558095
O42   O     O_2   0.248282 0.386370 0.558067 -0.333465
O43   O     O_2   0.250196 0.270997 0.575025 -0.219707
O44   O     O_3   0.107484 0.327205 0.461876 -0.504178
O45   O     O_R   0.100040 0.435040 0.546740 -0.526136
O46   O     O_2   0.781569 0.617484 0.473626 -0.260903
O47   O     O_2   0.642515 0.630911 0.288291 -0.257503
O48   O     O_3   0.730279 0.535640 0.306741 -0.558054
O49   O     O_2   0.183254 0.042681 0.704601 -0.185856
O50   O     O_2   0.208910 0.929099 0.703836 -0.307001
O51   O     O_3   0.221371 0.973334 0.877902 -0.487788
O52   O     O_2   0.816753 0.042677 0.295434 -0.185783
O53   O     O_2   0.791091 0.929091 0.296161 -0.307095
O54   O     O_3   0.778652 0.973351 0.122123 -0.487697
O55   O     O_2   0.683239 0.542640 0.704568 -0.185909
O56   O     O_R   0.899960 0.564960 0.453260 -0.531469
O57   O     O_2   0.708912 0.429059 0.703829 -0.306971
O58   O     O_3   0.721354 0.473300 0.877876 -0.487772
O59   O     O_2   0.316735 0.542687 0.295389 -0.185914
O60   O     O_2   0.291088 0.429100 0.296139 -0.306965
O61   O     O_3   0.278617 0.473355 0.122074 -0.487810
O62   O     O_R   0.899960 0.435040 0.453260 -0.526135
O63   O     O_R   0.100040 0.564960 0.546740 -0.531443
O64   O     O_R   0.555010 0.935070 0.653220 -0.602372
S1    S     S_3+6 0.362479 0.079940 0.011941 0.030198
S2    S     S_3+6 0.269520 0.611255 0.655809 0.029835
S3    S     S_3+6 0.209984 0.331065 0.573641 0.034706
S4    S     S_3+6 0.730475 0.611258 0.344174 0.029877
S5    S     S_3+6 0.235834 0.987158 0.779083 0.050772
S6    S     S_3+6 0.764174 0.987158 0.220932 0.050800
S7    S     S_3+6 0.735824 0.487122 0.779064 0.050772
S8    S     S_3+6 0.264158 0.487165 0.220901 0.050760
S9    S     S_3+6 0.637531 0.079931 0.988059 0.030230
S10   S     S_3+6 0.862448 0.579908 0.011920 0.030213
S11   S     S_3+6 0.137498 0.579962 0.988064 0.030200
S12   S     S_3+6 0.289946 0.831106 0.426308 0.034681
S13   S     S_3+6 0.769541 0.111232 0.655855 0.029843
S14   S     S_3+6 0.709940 0.831040 0.573599 0.034697
S15   S     S_3+6 0.230447 0.111210 0.344108 0.029783
S16   S     S_3+6 0.789981 0.331083 0.426337 0.034690

loop_
_geom_bond_atom_site_label_1
_geom_bond_atom_site_label_2
_ccdc_geom_bond_type
C65   C92   A    
Cu2   O64   S    
C91   O8    A    
Cu4   O8    S    
O49   S5    D    
C16   C21   A    
C46   C52   A    
O58   S7    S    
C33   N3    A    
C24   C42   A    
C94   C111  A    
C34   N4    A    
C17   H34   S    
C25   O12   A    
C64   C90   A    
C74   C83   A    
C96   C105  A    
C3    C6    A    
O19   S11   D    
O54   S6    S    
C74   C109  A    
C71   C79   A    
O29   S14   D    
C67   C103  A    
C95   C104  A    
C73   H11   S    
C99   C108  A    
H54   O54   S    
C50   C54   A    
O37   S16   D    
C31   N1    A    
C13   H23   S    
C69   O56   A    
C10   H20   S    
C38   C42   A    
C95   C112  A    
C62   C88   A    
O24   S12   D    
C18   H45   S    
Cu2   O4    S    
C83   S3    S    
C65   C83   A    
C70   C78   A    
O41   S2    S    
C1    C61   S    
Cu3   Cu4   S    
O27   S13   D    
C47   O34   A    
O16   S10   D    
C2    C107  A    
C68   C77   A    
C85   H60   S    
C7    C112  A    
C74   H13   S    
C85   C94   A    
O35   S15   S    
C31   H28   S    
C68   H16   S    
C24   C29   A    
C32   H27   S    
C61   C87   A    
H42   O18   S    
H44   O25   S    
C15   H25   S    
C19   C103  A    
C77   S15   S    
C48   C51   A    
C20   H58   S    
C75   S13   S    
C27   H32   S    
C81   S16   S    
C11   C112  A    
O53   S6    D    
C70   H17   S    
C3    C96   A    
C36   O23   A    
O55   S7    D    
O50   S5    D    
C51   C55   A    
Cu3   N4    S    
C28   N2    A    
C93   C110  A    
Cu4   O56   S    
C36   C59   S    
C7    C15   A    
Cu1   N2    S    
O47   S4    D    
C100  C109  A    
C59   C76   A    
C4    C97   A    
O33   S15   D    
C58   O5    A    
C4    C14   A    
C66   C101  A    
C32   N2    A    
C26   H39   S    
O61   S8    S    
Cu1   O34   S    
C13   C108  A    
H50   O41   S    
C24   H38   S    
C26   C43   A    
C22   H36   S    
C63   C80   S    
H48   O35   S    
C78   S14   S    
C15   C20   A    
C41   C54   A    
Cu4   O62   S    
C60   C77   A    
O39   S2    D    
Cu2   O12   S    
C7    C100  A    
C8    H18   S    
C34   C39   A    
C79   S2    S    
C68   C104  A    
C62   C79   A    
C19   H56   S    
C5    C12   A    
C88   H6    S    
C33   H30   S    
C8    C111  A    
C93   C101  A    
Cu3   O6    S    
H47   O31   S    
O17   S10   D    
C73   C108  A    
C39   C43   A    
C21   H59   S    
O21   S11   S    
O9    S1    D    
C1    O1    A    
C10   C13   A    
C98   C107  A    
H53   O51   S    
C72   H10   S    
C18   C101  A    
O13   S9    D    
C16   H26   S    
C59   C85   A    
C87   H3    S    
C1    O64   A    
C42   C55   A    
C29   H35   S    
Cu3   O7    S    
O42   S3    D    
C58   C65   S    
Cu1   O2    S    
C72   C107  A    
C45   C49   A    
C61   C78   A    
Cu2   N1    S    
C22   C40   A    
C62   C91   S    
C63   C89   A    
C54   S6    S    
C57   C84   A    
C71   H9    S    
C36   O3    A    
C53   S5    S    
C32   C37   A    
O44   S3    S    
O46   S4    D    
C35   C44   A    
O25   S12   S    
C64   C82   A    
C58   O45   A    
H49   O38   S    
C52   S11   S    
Cu3   O63   S    
C97   C106  A    
C9    H19   S    
C102  H1    S    
C25   C60   S    
O26   S13   D    
C91   O63   A    
C94   C103  A    
O60   S8    D    
C22   C27   A    
C23   H37   S    
C29   N3    A    
O11   S1    S    
C55   S7    S    
C92   H7    S    
Cu1   O1    S    
C23   C28   A    
O36   S16   D    
C37   C45   A    
O51   S5    S    
C90   C99   A    
C25   O2    A    
C92   C100  A    
C27   N1    A    
Cu1   Cu2   S    
C44   C50   A    
C9    C110  A    
O40   S2    D    
C11   C17   A    
C28   H31   S    
C60   C86   A    
O28   S13   S    
C63   C81   A    
H46   O28   S    
O59   S8    D    
H41   O15   S    
C90   H8    S    
C14   C19   A    
C4    C111  A    
C67   H15   S    
C44   C45   A    
C72   C81   A    
C14   H24   S    
C47   O4    A    
C30   H33   S    
C70   C105  A    
C17   C109  A    
H52   O48   S    
C40   C53   A    
C87   C96   A    
Cu3   O45   S    
C20   C104  A    
H55   O58   S    
O30   S14   D    
C64   C69   S    
Cu4   O5    S    
O32   S15   D    
C12   H22   S    
C33   C38   A    
C23   C41   A    
O14   S9    D    
C82   S4    S    
C89   C98   A    
C46   C48   A    
O43   S3    D    
C6    C99   A    
C57   C75   A    
O15   S9    S    
C35   C40   A    
C11   H21   S    
C88   C97   A    
O38   S16   S    
C50   S9    S    
O10   S1    D    
C2    C9    A    
O18   S10   S    
O48   S4    S    
Cu1   O3    S    
C89   H5    S    
C49   C53   A    
C66   C75   A    
C56   S8    S    
C34   H29   S    
C80   O7    A    
C80   O62   A    
C73   C82   A    
C102  C106  A    
C31   C35   A    
C84   C93   A    
C37   C41   A    
C76   S12   S    
C49   S1    S    
H51   O44   S    
C38   C46   A    
H43   O21   S    
C86   C95   A    
O20   S11   D    
C6    C16   A    
H40   O11   S    
H57   O61   S    
C43   C56   A    
O52   S6    D    
C5    C98   A    
O31   S14   S    
C84   H2    S    
O22   S12   D    
C5    C110  A    
C71   C106  A    
C12   C18   A    
C47   C57   S    
C3    C10   A    
C30   N4    A    
Cu2   O23   S    
O57   S7    D    
C86   H4    S    
C67   C76   A    
Cu4   N3    S    
C51   S10   S    
C8    C102  A    
C69   O6    A    
C21   C105  A    
C52   C56   A    
C39   C48   A    
C66   H14   S    
C26   C30   A    
C2    H12   S    
