data_mof_unit_12585.cif
_audit_creation_date              2012-12-11T14:46:09-0500
_audit_creation_method            fapswitch 2.2
_symmetry_space_group_name_H-M    P1
_symmetry_Int_Tables_number       1
_space_group_crystal_system       triclinic
_cell_length_a                    10.937001
_cell_length_b                    10.903935
_cell_length_c                    18.798526
_cell_angle_alpha                 90.199304
_cell_angle_beta                  89.597726
_cell_angle_gamma                 119.96782
_cell_volume                      1942.07486018

loop_
_atom_site_label
_atom_site_type_symbol
_atom_type_description
_atom_site_fract_x
_atom_site_fract_y
_atom_site_fract_z
_atom_type_partial_charge
C1    C     C_R   0.867436 0.636559 0.604738 0.539016
C2    C     C_R   0.937527 0.142049 0.709372 -0.001372
C3    C     C_R   0.955484 0.153948 0.784321 0.004355
C4    C     C_R   0.267608 0.630380 0.604672 0.540538
C5    C     C_R   0.743013 0.191309 0.721847 0.022707
C6    C     C_R   0.777327 0.225430 0.793657 0.010356
C7    C     C_R   0.615928 0.181781 0.697440 -0.077989
C8    C     C_R   0.543274 0.231488 0.738619 -0.134796
C9    C     C_R   0.593610 0.288867 0.805331 -0.113524
C10   C     C_R   0.710540 0.286969 0.832740 -0.070133
C11   C     C_R   0.836790 0.169472 0.677334 -0.034526
C12   C     C_R   0.277051 0.550500 0.794815 -0.159745
C13   C     C_R   0.710861 0.611675 0.705641 -0.146192
C14   C     C_R   0.693250 0.618160 0.778455 -0.158576
C15   C     C_R   0.806621 0.652672 0.824771 0.067844
C16   C     C_R   0.859692 0.225394 0.603379 0.527581
C17   C     C_R   0.936046 0.675832 0.798508 0.081199
C18   C     C_R   0.953872 0.671679 0.725684 -0.103959
C19   C     C_R   0.842852 0.643733 0.679417 0.028963
C20   C     C_R   0.417516 0.616219 0.300465 -0.128487
C21   C     C_R   0.455236 0.633713 0.229232 -0.132542
C22   C     C_R   0.429747 0.723336 0.186692 0.028212
C23   C     C_R   0.259011 0.535374 0.722518 -0.136326
C24   C     C_R   0.374135 0.802886 0.217183 -0.138321
C25   C     C_R   0.334879 0.784469 0.288630 -0.141326
C26   C     C_R   0.350769 0.686201 0.329764 0.025802
C27   C     C_R   0.715117 0.119458 0.292722 -0.136651
C28   C     C_R   0.865408 0.638533 0.397590 0.548401
C29   C     C_R   0.706733 0.107805 0.220090 -0.130938
C30   C     C_R   0.825789 0.135676 0.179167 0.034437
C31   C     C_R   0.953599 0.172640 0.212375 -0.148374
C32   C     C_R   0.963612 0.189803 0.285864 -0.139216
C33   C     C_R   0.844911 0.167691 0.325816 0.027557
C34   C     C_R   0.303626 0.654888 0.679046 0.026638
C35   C     C_R   0.887282 0.787455 0.296095 -0.137579
C36   C     C_R   0.879476 0.799011 0.223647 -0.124602
C37   C     C_R   0.805098 0.677270 0.181371 0.031648
C38   C     C_R   0.731228 0.543826 0.212714 -0.157039
C39   C     C_R   0.739468 0.531936 0.285810 -0.137120
C40   C     C_R   0.275297 0.636392 0.397292 0.549353
C41   C     C_R   0.822226 0.653753 0.327176 0.028559
C42   C     C_R   0.812604 0.109645 0.896774 0.536296
C43   C     C_R   0.396162 0.701589 0.896411 0.562706
C44   C     C_R   0.795880 0.690884 0.897122 0.582713
C45   C     C_R   0.864263 0.181937 0.826965 -0.044929
C46   C     C_R   0.803811 0.101305 0.104216 0.537702
C47   C     C_R   0.459822 0.728876 0.110768 0.560999
C48   C     C_R   0.795407 0.697952 0.106240 0.542265
C49   C     C_R   0.862093 0.227236 0.396428 0.546418
C50   C     C_R   0.361388 0.789765 0.709002 -0.154792
C51   C     C_R   0.383197 0.805608 0.781978 -0.149417
C52   C     C_R   0.343383 0.685652 0.824769 0.012218
C53   C     C_R   0.065408 0.138763 0.814325 -0.082163
C54   C     C_R   0.145369 0.098571 0.772610 -0.125914
C55   C     C_R   0.119472 0.075229 0.700135 -0.120977
C56   C     C_R   0.017413 0.097673 0.668487 -0.086690
Cr1   Cr    Cr6+3 0.791660 0.390250 0.499930 1.010689
Cr2   Cr    Cr6+3 0.098520 0.708290 0.500540 1.004697
Cr3   Cr    Cr6+3 0.109770 0.401430 0.499480 1.007427
Cr4   Cr    Cr6+3 0.874790 0.925890 0.000070 1.015908
Cr5   Cr    Cr6+3 0.574120 0.948670 0.999300 1.012628
Cr6   Cr    Cr6+3 0.551420 0.625320 0.000920 1.001529
H1    H     H_    0.390907 0.881656 0.676021 0.111122
H2    H     H_    0.354636 0.873808 0.185302 0.128856
H3    H     H_    0.435679 0.911295 0.804355 0.149039
H4    H     H_    0.283513 0.839610 0.310148 0.132020
H5    H     H_    0.621778 0.100180 0.322350 0.130183
H6    H     H_    0.605333 0.075195 0.196184 0.134132
H7    H     H_    0.045044 0.190011 0.181643 0.123027
H8    H     H_    0.065312 0.227472 0.310685 0.134362
H9    H     H_    0.950356 0.882288 0.327153 0.126741
H10   H     H_    0.932767 0.903994 0.200602 0.141986
H11   H     H_    0.670108 0.449877 0.180792 0.119972
H12   H     H_    0.448709 0.226776 0.718319 0.105899
H13   H     H_    0.688522 0.427023 0.309063 0.139932
H14   H     H_    0.244659 0.456779 0.826940 0.133026
H15   H     H_    0.207854 0.429102 0.700851 0.155423
H16   H     H_    0.227394 0.084968 0.796744 0.105556
H17   H     H_    0.179629 0.040932 0.668185 0.113524
H18   H     H_    0.093738 0.162022 0.869694 0.131158
H19   H     H_    0.998682 0.075902 0.612202 0.127583
H20   H     H_    0.744719 0.327176 0.886038 0.128241
H21   H     H_    0.136863 0.800316 0.830984 0.236846
H22   H     H_    0.072593 0.623378 0.839743 0.231174
H23   H     H_    0.568636 0.132051 0.647464 0.131125
H24   H     H_    0.539078 0.330122 0.836907 0.116161
H25   H     H_    0.623918 0.586168 0.670008 0.121384
H26   H     H_    0.593019 0.601980 0.798319 0.141720
H27   H     H_    0.054471 0.690070 0.705191 0.136606
H28   H     H_    0.432246 0.540883 0.331316 0.130588
H29   H     H_    0.498686 0.572440 0.206457 0.132112
N1    N     N_3   0.048863 0.704375 0.845966 -0.615450
O1    O     O_R   0.766500 0.250040 0.579790 -0.524195
O2    O     O_R   0.413330 0.603360 0.920440 -0.526232
O3    O     O_R   0.676110 0.626250 0.926750 -0.524783
O4    O     O_R   0.798570 0.516780 0.574780 -0.493790
O5    O     O_R   0.895350 0.809870 0.080950 -0.518728
O6    O     O_R   0.872490 0.049760 0.073800 -0.512950
O7    O     O_R   0.691680 0.088070 0.079070 -0.535363
O8    O     O_R   0.451720 0.825250 0.074050 -0.504362
O9    O     O_R   0.413580 0.606370 0.080960 -0.510228
O10   O     O_R   0.676340 0.629040 0.075550 -0.525059
O11   O     O_3   0.666780 0.833290 0.000090 -0.269574
O12   O     O_R   0.218690 0.701900 0.425960 -0.503048
O13   O     O_R   0.984000 0.732950 0.581090 -0.530339
O14   O     O_R   0.218600 0.700890 0.574760 -0.511077
O15   O     O_R   0.249390 0.515350 0.579940 -0.524833
O16   O     O_R   0.982790 0.280900 0.573700 -0.506282
O17   O     O_R   0.766600 0.251130 0.419260 -0.528046
O18   O     O_R   0.798660 0.517790 0.425980 -0.508197
O19   O     O_R   0.984100 0.734040 0.420570 -0.522608
O20   O     O_R   0.249490 0.516440 0.419420 -0.523178
O21   O     O_R   0.982880 0.281910 0.424890 -0.506166
O22   O     O_3   0.999980 0.499990 0.499980 -0.238883
O23   O     O_R   0.895110 0.806860 0.920430 -0.476446
O24   O     O_R   0.872260 0.046970 0.925000 -0.504162
O25   O     O_R   0.691430 0.085060 0.918550 -0.515081
O26   O     O_R   0.451490 0.822460 0.925250 -0.493584

loop_
_geom_bond_atom_site_label_1
_geom_bond_atom_site_label_2
_ccdc_geom_bond_type
C49   O21   A    
C55   C56   A    
C47   O9    A    
C6    C45   A    
C27   C29   A    
C35   C36   A    
C46   O7    A    
C56   H19   S    
C39   C41   A    
C7    H23   S    
C53   C54   A    
C27   C33   A    
H21   N1    S    
C12   C23   A    
C16   O1    A    
C29   C30   A    
C20   C26   A    
C21   C22   A    
C36   C37   A    
Cr5   O11   S    
C15   C44   S    
C5    C11   A    
Cr4   O6    S    
C1    O4    A    
C30   C31   A    
C43   C52   S    
C33   C49   S    
C28   C41   S    
C43   O2    A    
C18   C19   A    
C51   H3    S    
Cr3   O20   S    
Cr1   O17   S    
Cr1   O18   S    
C44   O23   A    
C8    C9    A    
Cr1   O4    S    
C39   H13   S    
Cr4   O11   S    
C9    C10   A    
Cr6   O9    S    
C22   C47   S    
C46   O6    A    
C35   H9    S    
C24   H2    S    
Cr1   O1    S    
C13   C14   A    
C50   H1    S    
Cr5   O7    S    
C17   N1    S    
C2    C11   A    
C12   C52   A    
C50   C51   A    
C28   O19   A    
C38   C39   A    
C4    O15   A    
C4    C34   S    
C1    C19   S    
C34   C50   A    
C13   C19   A    
Cr5   O25   S    
C51   C52   A    
C7    C8    A    
C53   H18   S    
C24   C25   A    
C40   O20   A    
Cr4   O5    S    
C5    C7    A    
C32   H8    S    
C28   O18   A    
C25   C26   A    
C4    O14   A    
C3    C45   A    
Cr3   O15   S    
C47   O8    A    
Cr2   O19   S    
Cr2   O14   S    
C42   C45   S    
C37   C38   A    
C48   O5    A    
C9    H24   S    
C40   O12   A    
C29   H6    S    
C55   H17   S    
C11   C16   S    
C31   C32   A    
Cr3   O21   S    
C23   C34   A    
C48   O10   A    
C13   H25   S    
C8    H12   S    
C17   C18   A    
C23   H15   S    
C37   C48   S    
C42   O24   A    
Cr6   O2    S    
C22   C24   A    
Cr4   O24   S    
Cr5   O8    S    
Cr2   O12   S    
C49   O17   A    
Cr6   O11   S    
C21   H29   S    
C15   C17   A    
C54   C55   A    
Cr5   O26   S    
C18   H27   S    
C30   C46   S    
C25   H4    S    
C6    C10   A    
C42   O25   A    
Cr1   O22   S    
Cr3   O16   S    
Cr2   O13   S    
C32   C33   A    
C12   H14   S    
C2    C3    A    
C14   H26   S    
C44   O3    A    
C2    C56   A    
C3    C53   A    
C26   C40   S    
C5    C6    A    
C20   H28   S    
Cr3   O22   S    
C10   H20   S    
C35   C41   A    
C27   H5    S    
C16   O16   A    
C43   O26   A    
C31   H7    S    
C20   C21   A    
Cr2   O22   S    
C14   C15   A    
Cr4   O23   S    
H22   N1    S    
C54   H16   S    
Cr6   O3    S    
C36   H10   S    
C1    O13   A    
Cr6   O10   S    
C38   H11   S    
