data_mof_unit_21827.cif
_audit_creation_date              2012-10-26T19:40:10-0400
_audit_creation_method            fapswitch 2.2
_symmetry_space_group_name_H-M    P1
_symmetry_Int_Tables_number       1
_space_group_crystal_system       triclinic
_cell_length_a                    14.956244
_cell_length_b                    8.706893
_cell_length_c                    7.437691
_cell_angle_alpha                 102.371087
_cell_angle_beta                  93.808284
_cell_angle_gamma                 92.477893
_cell_volume                      942.333563911

loop_
_atom_site_label
_atom_site_type_symbol
_atom_type_description
_atom_site_fract_x
_atom_site_fract_y
_atom_site_fract_z
_atom_type_partial_charge
C1    C     C_R   0.494336 0.200500 0.455047 0.555164
C2    C     C_R   0.181218 0.359546 0.428618 -0.102556
C3    C     C_R   0.767012 0.503022 0.490193 0.005752
C4    C     C_R   0.232988 0.496978 0.509807 0.005754
C5    C     C_R   0.806631 0.366522 0.407999 -0.105066
C6    C     C_R   0.193369 0.633477 0.592002 -0.105063
C7    C     C_R   0.899748 0.363941 0.413974 -0.011493
C8    C     C_R   0.100252 0.636058 0.586026 -0.011493
C9    C     C_R   0.953114 0.502251 0.495724 0.039368
C10   C     C_R   0.046886 0.497748 0.504276 0.039368
C11   C     C_R   0.912492 0.644608 0.568887 0.007709
C12   C     C_R   0.505661 0.799500 0.544954 0.555166
C13   C     C_R   0.087508 0.355391 0.431113 0.007708
C14   C     C_R   0.939688 0.223380 0.344738 -0.093795
C15   C     C_R   0.060312 0.776619 0.655263 -0.093795
C16   C     C_2   0.070247 0.057966 0.302101 0.575330
C17   C     C_2   0.929754 0.942033 0.697901 0.575331
C18   C     C_2   0.398779 0.959968 0.311426 0.576100
C19   C     C_2   0.601209 0.040039 0.688586 0.576112
C20   C     C_R   0.033110 0.215564 0.357207 0.075535
C21   C     C_R   0.966890 0.784435 0.642794 0.075535
C22   C     C_2   0.477684 0.035188 0.439030 -0.006541
C23   C     C_2   0.522308 0.964812 0.560975 -0.006532
C24   C     C_R   0.329104 0.499113 0.502997 0.554510
C25   C     C_R   0.670896 0.500887 0.497003 0.554501
C26   C     C_R   0.818782 0.640453 0.571381 -0.102555
Cu1   Cu    Cu3+1 0.510010 0.517380 0.684380 1.053301
Cu2   Cu    Cu3+1 0.489990 0.482620 0.315620 1.053315
H1    H     H_    0.784847 0.741813 0.638568 0.169269
H2    H     H_    0.839152 0.094364 0.644218 0.362417
H3    H     H_    0.330956 0.934395 0.061997 0.340486
H4    H     H_    0.669003 0.065672 0.938059 0.340482
H5    H     H_    0.215153 0.258187 0.361431 0.169272
H6    H     H_    0.764832 0.260816 0.346764 0.142933
H7    H     H_    0.235168 0.739183 0.653237 0.142937
H8    H     H_    0.897500 0.117414 0.287149 0.176693
H9    H     H_    0.102500 0.882584 0.712852 0.176690
H10   H     H_    0.430527 0.377793 0.948975 0.252047
H11   H     H_    0.569473 0.622206 0.051025 0.252040
H12   H     H_    0.160850 0.905637 0.355782 0.362412
N1    N     N_2   0.474890 0.456420 0.038520 -0.242690
N2    N     N_2   0.525110 0.543580 0.961480 -0.242698
O1    O     O_R   0.506510 0.286130 0.619770 -0.502554
O2    O     O_R   0.143910 0.017578 0.404509 -0.710347
O3    O     O_2   0.966561 0.039864 0.827580 -0.480739
O4    O     O_R   0.856092 0.982423 0.595491 -0.710337
O5    O     O_2   0.342758 0.875912 0.363235 -0.525871
O6    O     O_R   0.387217 0.990442 0.134471 -0.653877
O7    O     O_2   0.657246 0.124051 0.636759 -0.525879
O8    O     O_R   0.612743 0.009626 0.865574 -0.653867
O9    O     O_R   0.493490 0.713870 0.380230 -0.502543
O10   O     O_R   0.489600 0.256770 0.308360 -0.456678
O11   O     O_R   0.510400 0.743230 0.691640 -0.456701
O12   O     O_R   0.378710 0.514640 0.655720 -0.513953
O13   O     O_R   0.621290 0.485360 0.344280 -0.513956
O14   O     O_R   0.361800 0.485290 0.344300 -0.480453
O15   O     O_R   0.638200 0.514710 0.655700 -0.480467
O16   O     O_2   0.033439 0.960133 0.172424 -0.480739

loop_
_geom_bond_atom_site_label_1
_geom_bond_atom_site_label_2
_ccdc_geom_bond_type
C19   C23   S    
Cu1   O11   S    
C11   C26   A    
Cu1   O1    S    
H11   N2    S    
C9    C11   A    
C9    C10   A    
C19   O7    D    
C2    C4    A    
C12   O11   A    
C19   O8    S    
C3    C25   S    
C16   C20   S    
C5    H6    S    
Cu2   O14   S    
Cu1   O12   S    
C1    C22   S    
C16   O16   D    
C18   O5    D    
Cu1   O15   S    
Cu2   O10   S    
Cu1   N2    S    
H4    O8    S    
C15   C21   A    
C25   O15   A    
H10   N1    S    
C6    C8    A    
C2    H5    S    
C4    C6    A    
C1    O10   A    
Cu2   O13   S    
H2    O4    S    
C8    C15   A    
C7    C9    A    
H3    O6    S    
C7    C14   A    
C14   H8    S    
C4    C24   S    
Cu2   O9    S    
C17   C21   S    
C11   C21   A    
C24   O14   A    
C24   O12   A    
C14   C20   A    
Cu2   N1    S    
H12   O2    S    
C12   O9    A    
C17   O4    S    
C26   H1    S    
C8    C10   A    
N1    N2    D    
Cu1   Cu2   S    
C5    C7    A    
C2    C13   A    
C16   O2    S    
C22   C23   D    
C15   H9    S    
C12   C23   S    
C13   C20   A    
C18   C22   S    
C1    O1    A    
C3    C26   A    
C6    H7    S    
C25   O13   A    
C17   O3    D    
C3    C5    A    
C10   C13   A    
C18   O6    S    
