data_mof_unit_5142.cif
_audit_creation_date              2012-12-10T16:54:55-0500
_audit_creation_method            fapswitch 2.2
_symmetry_space_group_name_H-M    P1
_symmetry_Int_Tables_number       1
_space_group_crystal_system       triclinic
_cell_length_a                    7.772533
_cell_length_b                    8.575352
_cell_length_c                    15.718495
_cell_angle_alpha                 90.815771
_cell_angle_beta                  85.859929
_cell_angle_gamma                 93.633199
_cell_volume                      1042.78923398

loop_
_atom_site_label
_atom_site_type_symbol
_atom_type_description
_atom_site_fract_x
_atom_site_fract_y
_atom_site_fract_z
_atom_type_partial_charge
C1    C     C_R   0.545767 0.794723 0.497788 0.965818
C2    C     C_3   0.365476 0.619802 0.052787 0.135417
C3    C     C_3   0.496107 0.505436 0.082769 0.256377
C4    C     C_3   0.444545 0.338849 0.050026 -0.436553
C5    C     C_3   0.448700 0.337272 0.951751 -0.392163
C6    C     C_1   0.493522 0.503962 0.174341 -0.047695
C7    C     C_1   0.506431 0.501012 0.825735 -0.102606
C8    C     C_1   0.506207 0.500189 0.750369 -0.176495
C9    C     C_2   0.569855 0.958206 0.496502 -0.368897
C10   C     C_2   0.430138 0.041789 0.503388 -0.369101
C11   C     C_R   0.502017 0.499961 0.661599 0.900790
C12   C     C_R   0.454230 0.205276 0.502170 0.961078
C13   C     C_R   0.497990 0.500139 0.338407 0.910305
C14   C     C_3   0.371597 0.618843 0.954160 -0.415472
C15   C     C_3   0.684383 0.554004 0.946209 -0.395044
C16   C     C_3   0.681001 0.553567 0.044455 -0.365564
C17   C     C_1   0.494026 0.502164 0.249666 -0.130879
C18   C     C_3   0.503043 0.502646 0.917292 0.298605
H1    H     H_    0.240528 0.584534 0.933225 0.150247
H2    H     H_    0.232698 0.579751 0.078012 0.125488
H3    H     H_    0.534984 0.253929 0.071163 0.216438
H4    H     H_    0.701817 0.009250 0.489926 0.181532
H5    H     H_    0.298177 0.990745 0.509956 0.181462
H6    H     H_    0.013410 0.381955 0.436574 0.196146
H7    H     H_    0.986590 0.618049 0.563424 0.191714
H8    H     H_    0.408325 0.737733 0.928789 0.206982
H9    H     H_    0.781503 0.473391 0.919165 0.170590
H10   H     H_    0.725000 0.673339 0.922417 0.184156
H11   H     H_    0.724818 0.671281 0.068097 0.216515
H12   H     H_    0.773964 0.470150 0.064688 0.166763
H13   H     H_    0.318611 0.298161 0.931243 0.177872
H14   H     H_    0.541328 0.251880 0.925531 0.189110
H15   H     H_    0.312505 0.300241 0.076927 0.187768
N1    N     N_2   0.950340 0.457950 0.477370 -0.170120
N2    N     N_2   0.049660 0.542050 0.522630 -0.172034
O1    O     O_R   0.389240 0.738570 0.505550 -0.611984
O2    O     O_R   0.678400 0.711630 0.491050 -0.628898
O3    O     O_R   0.355360 0.513470 0.630110 -0.614195
O4    O     O_R   0.644510 0.486530 0.615610 -0.623777
O5    O     O_R   0.321600 0.288370 0.508950 -0.631345
O6    O     O_R   0.610760 0.261430 0.494450 -0.613249
O7    O     O_R   0.355490 0.513470 0.384390 -0.616295
O8    O     O_R   0.644640 0.486530 0.369890 -0.610247
Zn1   Zn    Zn3+2 0.306930 0.517990 0.509680 0.953888
Zn2   Zn    Zn3+2 0.693070 0.482010 0.490320 0.954743
Br1   Br    Br    0.405975 0.832881 0.096457 -0.587194

loop_
_geom_bond_atom_site_label_1
_geom_bond_atom_site_label_2
_ccdc_geom_bond_type
C12   O5    A    
C11   O3    A    
O3    Zn1   S    
C12   O6    A    
C4    H3    S    
C7    C18   S    
C13   C17   S    
C10   H5    S    
C15   C18   S    
C9    C10   D    
C14   C18   S    
C15   H9    S    
C1    O2    A    
O4    Zn2   S    
C5    H14   S    
C3    C6    S    
C13   O8    A    
C2    C3    S    
C2    H2    S    
C7    C8    T    
N1    Zn2   S    
C14   H8    S    
C11   O4    A    
N2    Zn1   S    
O8    Zn2   S    
C15   H10   S    
O7    Zn1   S    
H7    N2    S    
C8    C11   S    
C10   C12   S    
C13   O7    A    
C2    C14   S    
H6    N1    S    
C9    H4    S    
O1    Zn1   S    
O2    Zn2   S    
C3    C4    S    
O5    Zn1   S    
C1    C9    S    
N1    N2    D    
C6    C17   T    
O6    Zn2   S    
C4    H15   S    
C5    C18   S    
C16   H11   S    
C16   H12   S    
C14   H1    S    
C2    Br1   S    
C3    C16   S    
C15   C16   S    
C1    O1    A    
C4    C5    S    
C5    H13   S    
