data_mof_unit_41000.cif
_audit_creation_date              2013-03-05T16:49:18-0500
_audit_creation_method            fapswitch 2.2
_symmetry_space_group_name_H-M    P1
_symmetry_Int_Tables_number       1
_space_group_crystal_system       triclinic
_cell_length_a                    8.099535
_cell_length_b                    8.928216
_cell_length_c                    16.740826
_cell_angle_alpha                 89.5891
_cell_angle_beta                  92.867053
_cell_angle_gamma                 89.948139
_cell_volume                      1209.05536349

loop_
_atom_site_label
_atom_site_type_symbol
_atom_site_description
_atom_site_fract_x
_atom_site_fract_y
_atom_site_fract_z
_atom_type_partial_charge
O1    O     O_R   0.636850 0.285340 0.500000 -0.604624
O2    O     O_R   0.363150 0.714660 0.500000 -0.612931
O3    O     O_R   0.363100 0.285350 0.500000 -0.606618
O4    O     O_R   0.636900 0.714650 0.500000 -0.621305
C1    C     C_R   0.500061 0.217962 0.500459 0.986036
C2    C     C_R   0.499964 0.782029 0.499858 0.923602
O5    O     O_R   0.652140 0.498630 0.616140 -0.569883
O6    O     O_R   0.347860 0.501370 0.383860 -0.597279
O7    O     O_R   0.378390 0.498650 0.616130 -0.604803
O8    O     O_R   0.621610 0.501350 0.383870 -0.612413
C3    C     C_R   0.518535 0.498843 0.653934 0.972968
C4    C     C_R   0.481312 0.498078 0.346264 1.012867
Zn1   Zn    Zn3+2 0.682780 0.499990 0.500010 1.073364
Zn2   Zn    Zn3+2 0.317220 0.500010 0.499990 1.070650
N1    N     N_1   0.073640 0.500030 0.499990 -0.002421
N2    N     N_1   0.926360 0.499970 0.500010 -0.000329
C5    C     C_R   0.519666 0.521723 0.739761 -0.289761
C6    C     C_R   0.477707 0.491354 0.259754 -0.304697
C7    C     C_R   0.393735 0.454821 0.783327 0.135063
C8    C     C_R   0.590873 0.397230 0.222540 0.125018
C9    C     C_R   0.367765 0.504020 0.860882 0.215895
C10   C     C_R   0.609134 0.410487 0.140044 0.194830
C11   C     C_R   0.473333 0.613675 0.895512 0.126458
C12   C     C_R   0.515835 0.517853 0.096013 0.131377
C13   C     C_R   0.598121 0.678292 0.852626 -0.251983
C14   C     C_R   0.398576 0.606309 0.133240 -0.227124
C15   C     C_R   0.620135 0.635422 0.773961 0.474593
C16   C     C_R   0.376032 0.590853 0.214652 0.436930
N3    N     N_2   0.475355 0.635233 0.978239 -0.100950
N4    N     N_2   0.526756 0.518941 0.012475 -0.060762
C17   C     C_1   0.500084 0.065183 0.500355 -0.104158
C18   C     C_1   0.499958 0.934803 0.500103 -0.154060
H1    H     H_    0.681476 0.758599 0.881297 0.210225
H2    H     H_    0.322724 0.686355 0.099126 0.216729
N5    N     N_R   0.688440 0.289849 0.268661 0.256630
O9    O     O_R   0.848161 0.285531 0.263607 -0.348886
O10   O     O_R   0.617544 0.195489 0.315565 -0.378154
N6    N     N_R   0.290281 0.339575 0.748079 0.259060
O11   O     O_R   0.130074 0.351361 0.747645 -0.300767
O12   O     O_R   0.355994 0.225703 0.713326 -0.398137
N7    N     N_R   0.719356 0.312581 0.100293 0.251293
O13   O     O_R   0.818471 0.365872 0.048280 -0.299457
O14   O     O_R   0.716870 0.168906 0.113818 -0.287435
N8    N     N_R   0.241850 0.436791 0.907054 0.256634
O15   O     O_R   0.226932 0.291815 0.910612 -0.277308
O16   O     O_R   0.150694 0.519729 0.950913 -0.327405
O17   O     O_3   0.742681 0.701151 0.730854 -0.563816
C19   C     C_3   0.694486 0.848748 0.709871 -0.185411
H3    H     H_    0.698886 0.922526 0.763154 0.188599
H4    H     H_    0.569174 0.852155 0.679254 0.127884
H5    H     H_    0.782818 0.894260 0.667367 0.201936
O18   O     O_3   0.268114 0.684867 0.251750 -0.589221
C20   C     C_3   0.105121 0.634714 0.234624 -0.128430
H6    H     H_    0.089528 0.515552 0.252967 0.189516
H7    H     H_    0.068181 0.649832 0.170149 0.178693
H8    H     H_    0.019808 0.702887 0.269378 0.193677

loop_
_geom_bond_atom_site_label_1
_geom_bond_atom_site_label_2
_geom_bond_distance
_ccdc_geom_bond_type
C1    C17   1.364065 S    
O5    C3    1.280563 A    
O7    Zn2   1.982200 S    
N3    N4    1.243640 D    
C7    N6    1.438687 S    
C13   C15   1.393967 A    
C9    N8    1.439152 S    
C16   O18   1.383752 S    
N7    O13   1.301426 A    
N7    O14   1.301341 A    
C14   C16   1.390004 A    
C17   C18   1.164097 T    
O6    C4    1.278125 A    
C19   H4    1.114220 S    
C20   H6    1.114263 S    
N8    O15   1.301332 A    
N6    O12   1.301500 A    
O7    C3    1.271671 A    
O2    C2    1.261420 A    
O3    Zn2   1.951892 S    
O8    C4    1.271703 A    
O1    C1    1.261521 A    
C11   N3    1.398887 S    
C19   H3    1.111800 S    
C7    C9    1.399361 A    
C12   C14   1.406777 A    
C6    C8    1.413396 A    
C20   H7    1.112785 S    
C9    C11   1.409174 A    
N6    O11   1.301421 A    
O2    Zn2   1.952546 S    
C10   C12   1.402174 A    
C20   H8    1.109495 S    
C10   N7    1.438848 S    
O1    Zn1   1.952543 S    
C8    C10   1.400478 A    
C12   N4    1.405672 S    
C4    C6    1.448762 S    
N1    N2    1.192917 T    
C5    C15   1.408442 A    
O5    Zn1   1.972117 S    
C11   C13   1.391959 A    
C6    C16   1.401533 A    
O18   C20   1.410883 S    
N5    O10   1.300976 A    
O4    C2    1.261169 A    
C2    C18   1.364038 S    
Zn1   N2    1.972885 S    
C15   O17   1.384548 S    
O4    Zn1   1.951892 S    
Zn2   N1    1.972885 S    
C3    C5    1.452294 S    
O6    Zn2   1.972117 S    
N5    O9    1.301203 A    
N8    O16   1.301374 A    
C5    C7    1.413630 A    
C8    N5    1.437613 S    
C14   H2    1.082874 S    
C19   H5    1.109324 S    
O17   C19   1.411036 S    
C13   H1    1.083360 S    
O3    C1    1.261151 A    
O8    Zn1   1.982200 S    
