data_mof_unit_65225.cif
_audit_creation_date              2012-12-10T16:51:49-0500
_audit_creation_method            fapswitch 2.2
_symmetry_space_group_name_H-M    P1
_symmetry_Int_Tables_number       1
_space_group_crystal_system       triclinic
_cell_length_a                    15.464174
_cell_length_b                    15.498767
_cell_length_c                    9.703059
_cell_angle_alpha                 89.960952
_cell_angle_beta                  90.371966
_cell_angle_gamma                 90.002333
_cell_volume                      2325.53722652

loop_
_atom_site_label
_atom_site_type_symbol
_atom_type_description
_atom_site_fract_x
_atom_site_fract_y
_atom_site_fract_z
_atom_type_partial_charge
C1    C     C_R   0.382105 0.883185 0.499558 0.876369
C2    C     C_R   0.382134 0.116840 0.499512 0.875738
C3    C     C_R   0.882099 0.383194 0.499558 0.881576
C4    C     C_R   0.883109 0.617812 0.499524 0.875746
C5    C     C_R   0.618061 0.116507 0.500382 0.873478
C6    C     C_R   0.616498 0.881935 0.500416 0.868416
C7    C     C_R   0.118067 0.616503 0.500383 0.867482
C8    C     C_R   0.118082 0.383507 0.500425 0.869277
C9    C     C_2   0.715984 0.784242 0.387168 -0.205985
C10   C     C_2   0.715217 0.216617 0.387121 -0.204480
C11   C     C_2   0.215594 0.283839 0.387136 -0.206154
C12   C     C_2   0.215299 0.716538 0.387120 -0.208169
C13   C     C_2   0.679064 0.812657 0.503077 -0.387584
C14   C     C_2   0.687267 0.179183 0.503026 -0.391655
C15   C     C_2   0.187344 0.320878 0.503114 -0.388321
C16   C     C_2   0.187288 0.679161 0.503032 -0.389674
C17   C     C_2   0.286067 0.220694 0.385332 0.642248
C18   C     C_2   0.285732 0.779728 0.385321 0.644840
C19   C     C_2   0.779106 0.713787 0.385315 0.645092
C20   C     C_2   0.785643 0.279815 0.385305 0.644359
C21   C     C_2   0.312914 0.179790 0.500153 -0.408484
C22   C     C_2   0.312877 0.820236 0.500259 -0.410314
C23   C     C_2   0.820065 0.686918 0.500250 -0.405007
C24   C     C_2   0.812858 0.320257 0.500262 -0.408966
C25   C     C_2   0.429927 0.000098 0.922820 0.761383
C26   C     C_2   0.929926 0.499242 0.922816 0.762399
C27   C     C_2   0.431225 0.013666 0.076701 -0.016375
C28   C     C_2   0.931034 0.512698 0.076716 -0.024020
Cu1   Cu    Cu3+1 0.500020 0.000000 0.638630 1.115466
Cu2   Cu    Cu3+1 0.000020 0.500000 0.638630 1.114449
Cu3   Cu    Cu3+1 0.499980 0.000000 0.361370 1.044908
Cu4   Cu    Cu3+1 0.999980 0.500000 0.361370 1.043053
H1    H     H_    0.698230 0.812110 0.288178 0.209909
H2    H     H_    0.687012 0.199219 0.288125 0.221464
H3    H     H_    0.187615 0.301538 0.288079 0.210225
H4    H     H_    0.187138 0.699101 0.288110 0.220170
H5    H     H_    0.692177 0.784117 0.602844 0.169415
H6    H     H_    0.716116 0.192003 0.602821 0.176013
H7    H     H_    0.216025 0.307800 0.602975 0.169338
H8    H     H_    0.216104 0.692012 0.602842 0.176616
H9    H     H_    0.282764 0.190253 0.599046 0.133609
H10   H     H_    0.282970 0.809460 0.599276 0.140289
H11   H     H_    0.809605 0.716967 0.599351 0.128366
H12   H     H_    0.783000 0.309435 0.599305 0.141473
H13   H     H_    0.371147 0.031693 0.126006 0.196973
H14   H     H_    0.870693 0.529744 0.126059 0.211356
H15   H     H_    0.551070 0.970907 0.108149 0.258711
H16   H     H_    0.051507 0.471709 0.108155 0.260265
N1    N     N_2   0.498660 0.000000 0.846910 0.030424
N2    N     N_2   0.998660 0.500000 0.846910 0.029036
N3    N     N_2   0.498630 0.000000 0.153040 -0.291465
N4    N     N_2   0.998630 0.500000 0.153040 -0.294891
O1    O     O_R   0.410990 0.910970 0.617040 -0.558166
O2    O     O_R   0.410990 0.089030 0.617040 -0.559390
O3    O     O_R   0.910990 0.410970 0.617040 -0.556856
O4    O     O_R   0.910990 0.589030 0.617040 -0.560049
O5    O     O_R   0.410950 0.910970 0.382900 -0.523722
O6    O     O_R   0.410950 0.089030 0.382900 -0.528471
O7    O     O_R   0.910950 0.410970 0.382900 -0.520862
O8    O     O_R   0.910950 0.589030 0.382900 -0.529203
O9    O     O_R   0.589050 0.089030 0.617100 -0.524725
O10   O     O_R   0.589050 0.910970 0.617100 -0.560483
O11   O     O_R   0.089050 0.589030 0.617100 -0.525763
O12   O     O_R   0.089050 0.410970 0.617100 -0.560865
O13   O     O_R   0.589010 0.089030 0.382960 -0.572740
O14   O     O_R   0.589010 0.910970 0.382960 -0.589121
O15   O     O_R   0.089010 0.589030 0.382960 -0.575784
O16   O     O_R   0.089010 0.410970 0.382960 -0.588808
F1    F     F_    0.322462 0.203777 0.260892 -0.634563
F2    F     F_    0.321765 0.797123 0.260734 -0.622805
F3    F     F_    0.795999 0.677481 0.260685 -0.639234
F4    F     F_    0.821600 0.297280 0.260687 -0.622897
F5    F     F_    0.351647 0.989239 0.861075 -0.660478
F6    F     F_    0.851780 0.487503 0.861060 -0.654918
F7    F     F_    0.570625 0.033243 0.902639 -0.588905
F8    F     F_    0.070205 0.534135 0.902626 -0.589584

loop_
_geom_bond_atom_site_label_1
_geom_bond_atom_site_label_2
_ccdc_geom_bond_type
C18   F2    S    
Cu3   O14   S    
C17   F1    S    
Cu2   O12   S    
C19   F3    S    
Cu1   N1    S    
C28   H14   S    
Cu3   O6    S    
C1    O5    A    
C26   N2    D    
Cu1   O2    S    
C23   H11   S    
C9    C13   D    
Cu4   N4    S    
C1    O1    A    
C11   C15   D    
C9    C19   S    
C12   C16   D    
C10   C20   S    
N1    F7    S    
C12   H4    S    
C13   H5    S    
Cu4   O16   S    
C27   H13   S    
Cu2   N2    S    
C1    C22   S    
Cu2   O11   S    
C4    O4    A    
C9    H1    S    
C3    C24   S    
C3    O3    A    
C27   N3    D    
Cu1   O9    S    
C20   C24   D    
C5    O13   A    
C10   C14   D    
C4    C23   S    
H15   N3    S    
Cu2   O4    S    
C17   C21   D    
C19   C23   D    
N2    F8    S    
C14   H6    S    
H16   N4    S    
C7    O11   A    
C4    O8    A    
C2    C21   S    
C5    O9    A    
C10   H2    S    
C15   H7    S    
C5    C14   S    
C8    O12   A    
Cu4   O15   S    
C21   H9    S    
C7    C16   S    
C16   H8    S    
C8    O16   A    
C8    C15   S    
C2    O2    A    
C24   H12   S    
Cu4   O8    S    
Cu3   O13   S    
Cu1   O10   S    
C11   C17   S    
C18   C22   D    
Cu3   N3    S    
C2    O6    A    
C25   C27   S    
Cu2   O3    S    
C26   C28   S    
C6    O10   A    
C11   H3    S    
Cu1   Cu3   S    
C6    C13   S    
Cu2   Cu4   S    
C28   N4    D    
Cu3   O5    S    
C22   H10   S    
Cu1   O1    S    
C26   F6    S    
C25   F5    S    
C25   N1    D    
C7    O15   A    
C6    O14   A    
C12   C18   S    
C20   F4    S    
Cu4   O7    S    
C3    O7    A    
