data_mof_unit_60170.cif
_audit_creation_date              2013-03-05T16:36:52-0500
_audit_creation_method            fapswitch 2.2
_symmetry_space_group_name_H-M    P1
_symmetry_Int_Tables_number       1
_space_group_crystal_system       triclinic
_cell_length_a                    36.260651
_cell_length_b                    25.703659
_cell_length_c                    25.681676
_cell_angle_alpha                 90.000023
_cell_angle_beta                  90.014503
_cell_angle_gamma                 90.000065
_cell_volume                      23936.1278861

loop_
_atom_site_label
_atom_site_type_symbol
_atom_site_description
_atom_site_fract_x
_atom_site_fract_y
_atom_site_fract_z
_atom_type_partial_charge
Zn1   Zn    Zn3+2 0.719300 0.249980 0.438970 1.011631
Zn2   Zn    Zn3+2 0.280700 0.249980 0.438970 1.010160
Zn3   Zn    Zn3+2 0.280700 0.249980 0.561030 1.011604
Zn4   Zn    Zn3+2 0.719300 0.249980 0.561030 1.010133
Zn5   Zn    Zn3+2 0.219300 0.749980 0.938970 1.011703
Zn6   Zn    Zn3+2 0.780700 0.749980 0.938970 1.010119
Zn7   Zn    Zn3+2 0.780700 0.749980 0.061030 1.011696
Zn8   Zn    Zn3+2 0.219300 0.749980 0.061030 1.010097
Zn9   Zn    Zn3+2 0.780720 0.311020 0.500000 0.988000
Zn10  Zn    Zn3+2 0.219280 0.311020 0.500000 0.988004
Zn11  Zn    Zn3+2 0.280720 0.811020 0.000000 0.987993
Zn12  Zn    Zn3+2 0.719280 0.811020 0.000000 0.987974
Zn13  Zn    Zn3+2 0.780730 0.188950 0.500000 0.990009
Zn14  Zn    Zn3+2 0.219270 0.188950 0.500000 0.989999
Zn15  Zn    Zn3+2 0.280730 0.688950 0.000000 0.989893
Zn16  Zn    Zn3+2 0.719270 0.688950 0.000000 0.989904
O1    O     O_3   0.750020 0.249980 0.500000 -0.493852
O2    O     O_3   0.249980 0.249980 0.500000 -0.493853
O3    O     O_3   0.250020 0.749980 0.000000 -0.493844
O4    O     O_3   0.749980 0.749980 0.000000 -0.493840
O5    O     O_R   0.728520 0.310110 0.602800 -0.628846
O6    O     O_R   0.271480 0.310110 0.602800 -0.628189
O7    O     O_R   0.271480 0.310110 0.397200 -0.628861
O8    O     O_R   0.728520 0.310110 0.397200 -0.628248
O9    O     O_R   0.228520 0.810110 0.102800 -0.628948
O10   O     O_R   0.771480 0.810110 0.102800 -0.628262
O11   O     O_R   0.771480 0.810110 0.897200 -0.629001
O12   O     O_R   0.228520 0.810110 0.897200 -0.628295
O13   O     O_R   0.728520 0.189860 0.397190 -0.628206
O14   O     O_R   0.271480 0.189860 0.397190 -0.627535
O15   O     O_R   0.271480 0.189860 0.602810 -0.628262
O16   O     O_R   0.728520 0.189860 0.602810 -0.627615
O17   O     O_R   0.228520 0.689860 0.897190 -0.628268
O18   O     O_R   0.771480 0.689860 0.897190 -0.627636
O19   O     O_R   0.771480 0.689860 0.102810 -0.628293
O20   O     O_R   0.228520 0.689860 0.102810 -0.627670
O21   O     O_R   0.771490 0.352810 0.439870 -0.635266
O22   O     O_R   0.228510 0.352810 0.439870 -0.635039
O23   O     O_R   0.228510 0.352810 0.560130 -0.635350
O24   O     O_R   0.771490 0.352810 0.560130 -0.635115
O25   O     O_R   0.271490 0.852810 0.939870 -0.635090
O26   O     O_R   0.728510 0.852810 0.939870 -0.634922
O27   O     O_R   0.728510 0.852810 0.060130 -0.635190
O28   O     O_R   0.271490 0.852810 0.060130 -0.634960
O29   O     O_R   0.771530 0.147160 0.560090 -0.634175
O30   O     O_R   0.228470 0.147160 0.560090 -0.634061
O31   O     O_R   0.228470 0.147160 0.439910 -0.634256
O32   O     O_R   0.771530 0.147160 0.439910 -0.634145
O33   O     O_R   0.271530 0.647160 0.060090 -0.634165
O34   O     O_R   0.728470 0.647160 0.060090 -0.634062
O35   O     O_R   0.728470 0.647160 0.939910 -0.634238
O36   O     O_R   0.271530 0.647160 0.939910 -0.634120
O37   O     O_R   0.832000 0.292700 0.500000 -0.636218
O38   O     O_R   0.168000 0.292700 0.500000 -0.636217
O39   O     O_R   0.332000 0.792700 0.000000 -0.636374
O40   O     O_R   0.668000 0.792700 0.000000 -0.636355
O41   O     O_R   0.668030 0.249990 0.542720 -0.622941
O42   O     O_R   0.331970 0.249990 0.542720 -0.618978
O43   O     O_R   0.331970 0.249990 0.457280 -0.622956
O44   O     O_R   0.668030 0.249990 0.457280 -0.618950
O45   O     O_R   0.168030 0.749990 0.042720 -0.622880
O46   O     O_R   0.831970 0.749990 0.042720 -0.618928
O47   O     O_R   0.831970 0.749990 0.957280 -0.622867
O48   O     O_R   0.168030 0.749990 0.957280 -0.618919
O49   O     O_R   0.832010 0.207260 0.500000 -0.633962
O50   O     O_R   0.167990 0.207260 0.500000 -0.633966
O51   O     O_R   0.332010 0.707260 0.000000 -0.633984
O52   O     O_R   0.667990 0.707260 0.000000 -0.633985
C1    C     C_R   0.749986 0.349042 0.599073 0.829094
C2    C     C_R   0.250014 0.349038 0.599080 0.829256
C3    C     C_R   0.250014 0.349042 0.400927 0.829134
C4    C     C_R   0.749986 0.349038 0.400920 0.829279
C5    C     C_R   0.249989 0.849039 0.099076 0.828938
C6    C     C_R   0.750014 0.849038 0.099081 0.829271
C7    C     C_R   0.750011 0.849040 0.900925 0.829021
C8    C     C_R   0.249986 0.849038 0.900919 0.829318
C9    C     C_R   0.750016 0.150923 0.400958 0.824352
C10   C     C_R   0.249981 0.150921 0.400963 0.824586
C11   C     C_R   0.249984 0.150923 0.599042 0.824362
C12   C     C_R   0.750019 0.150922 0.599037 0.824630
C13   C     C_R   0.250016 0.650923 0.900958 0.824373
C14   C     C_R   0.749979 0.650924 0.900961 0.824618
C15   C     C_R   0.749983 0.650923 0.099042 0.824402
C16   C     C_R   0.250021 0.650924 0.099039 0.824624
C17   C     C_R   0.849542 0.249984 0.500000 0.830540
C18   C     C_R   0.150458 0.249984 0.500000 0.830541
C19   C     C_R   0.349541 0.749984 1.000000 0.830292
C20   C     C_R   0.650458 0.749984 0.000000 0.830321
C21   C     C_R   0.650349 0.249998 0.499984 0.820290
C22   C     C_R   0.349650 0.249998 0.500015 0.820284
C23   C     C_R   0.150349 0.749999 0.999985 0.820537
C24   C     C_R   0.849651 0.749999 0.000016 0.820540
C25   C     C_3   0.522078 0.222246 0.549830 0.050071
C26   C     C_3   0.478786 0.218070 0.548628 0.053532
C27   C     C_3   0.477921 0.221861 0.450374 0.050084
C28   C     C_3   0.521213 0.217691 0.451609 0.053542
C29   C     C_3   0.022079 0.722126 0.049769 0.049869
C30   C     C_3   0.978787 0.717954 0.048558 0.053395
C31   C     C_3   0.977921 0.721993 0.950314 0.049901
C32   C     C_3   0.021213 0.717823 0.951536 0.053411
H1    H     H_    0.471773 0.176454 0.541450 0.068983
H2    H     H_    0.532878 0.181604 0.549621 0.095520
H3    H     H_    0.528224 0.176131 0.459111 0.068963
H4    H     H_    0.467119 0.181223 0.450900 0.095455
H5    H     H_    0.971773 0.676356 0.041276 0.069288
H6    H     H_    0.032879 0.681485 0.049454 0.095796
H7    H     H_    0.028226 0.676245 0.958931 0.069262
H8    H     H_    0.967121 0.681352 0.950738 0.095769
C33   C     C_1   0.389243 0.249907 0.500121 -0.070122
C34   C     C_1   0.610757 0.249903 0.499876 -0.070109
C35   C     C_1   0.889243 0.749909 0.000124 -0.069861
C36   C     C_1   0.110757 0.749909 0.999878 -0.069850
C37   C     C_3   0.536696 0.249521 0.499109 -0.014678
C38   C     C_3   0.463304 0.249531 0.500881 -0.014670
C39   C     C_3   0.036696 0.749532 0.999118 -0.014979
C40   C     C_3   0.963304 0.749534 0.000891 -0.014969
C41   C     C_3   0.478798 0.305946 0.503343 -0.342184
C42   C     C_3   0.521203 0.305916 0.496206 -0.342177
C43   C     C_3   0.978798 0.805944 0.003497 -0.341888
C44   C     C_3   0.021203 0.805934 0.996360 -0.341852
C45   C     C_1   0.422516 0.249782 0.500444 0.062397
C46   C     C_1   0.577483 0.249774 0.499548 0.062403
C47   C     C_1   0.922516 0.749785 0.000452 0.062606
C48   C     C_1   0.077483 0.749783 0.999554 0.062608
H9    H     H_    0.534321 0.331400 0.525787 0.217416
H10   H     H_    0.472083 0.324364 0.541212 0.247169
H11   H     H_    0.465681 0.331198 0.473563 0.217438
H12   H     H_    0.527919 0.324037 0.458194 0.247187
H13   H     H_    0.034320 0.831341 0.026008 0.217662
H14   H     H_    0.972082 0.824265 0.041413 0.247303
H15   H     H_    0.965680 0.831271 0.973782 0.217643
H16   H     H_    0.027918 0.824154 0.958395 0.247307
H17   H     H_    0.701958 0.066741 0.249790 0.167674
H18   H     H_    0.298882 0.065498 0.251085 0.167887
H19   H     H_    0.297930 0.066901 0.750369 0.167666
H20   H     H_    0.702937 0.068105 0.751524 0.167873
H21   H     H_    0.203080 0.568298 0.748233 0.167601
H22   H     H_    0.791503 0.574561 0.742011 0.167522
H23   H     H_    0.796466 0.568897 0.252367 0.167612
H24   H     H_    0.208674 0.574737 0.258165 0.167481
C49   C     C_R   0.224497 0.499636 0.711403 -0.209997
C50   C     C_R   0.772595 0.503008 0.708053 -0.209849
C51   C     C_R   0.775259 0.499958 0.288920 -0.209875
C52   C     C_R   0.227500 0.503102 0.292041 -0.209759
C53   C     C_R   0.723894 0.998798 0.212241 -0.209871
C54   C     C_R   0.276561 0.998134 0.212934 -0.209892
C55   C     C_R   0.276046 0.998884 0.787845 -0.209748
C56   C     C_R   0.724416 0.999536 0.788470 -0.209774
H25   H     H_    0.203719 0.500223 0.681067 0.171135
H26   H     H_    0.790954 0.506397 0.674933 0.171239
H27   H     H_    0.795835 0.500813 0.319523 0.171218
H28   H     H_    0.209220 0.506571 0.325241 0.171277
H29   H     H_    0.702613 0.998689 0.182602 0.171174
H30   H     H_    0.298221 0.997472 0.183871 0.171176
H31   H     H_    0.297277 0.998847 0.817555 0.171248
H32   H     H_    0.703571 0.000040 0.818700 0.171300
C57   C     C_R   0.251421 0.460487 0.712323 0.026478
C58   C     C_R   0.748809 0.460233 0.712577 0.026634
C59   C     C_R   0.748597 0.460464 0.287653 0.026441
C60   C     C_R   0.251182 0.460225 0.287415 0.026614
C61   C     C_R   0.751469 0.960551 0.212259 0.026444
C62   C     C_R   0.248498 0.960606 0.212202 0.026505
C63   C     C_R   0.248535 0.960545 0.787734 0.026403
C64   C     C_R   0.751424 0.960500 0.787691 0.026457
C65   C     C_R   0.278454 0.460285 0.752358 0.465206
C66   C     C_R   0.724923 0.456386 0.756233 0.465348
C67   C     C_R   0.721828 0.459913 0.247270 0.465200
C68   C     C_R   0.274966 0.456276 0.243656 0.465348
C69   C     C_R   0.779155 0.961254 0.251388 0.465160
C70   C     C_R   0.220319 0.962028 0.250583 0.465073
C71   C     C_R   0.220914 0.961155 0.748513 0.465146
C72   C     C_R   0.778545 0.960407 0.747794 0.465094
C73   C     C_R   0.778306 0.000377 0.289367 -0.159699
C74   C     C_R   0.221180 0.001124 0.288590 -0.159765
C75   C     C_R   0.221761 0.000281 0.710537 -0.159613
C76   C     C_R   0.777718 0.999552 0.709836 -0.159649
C77   C     C_R   0.277627 0.499438 0.790307 -0.159666
C78   C     C_R   0.725645 0.495652 0.794070 -0.159665
C79   C     C_R   0.722647 0.499077 0.209332 -0.159588
C80   C     C_R   0.274247 0.495545 0.205822 -0.159569
H33   H     H_    0.799373 0.001070 0.319317 0.174046
H34   H     H_    0.199737 0.002363 0.317971 0.173993
H35   H     H_    0.200743 0.000903 0.680517 0.174104
H36   H     H_    0.798356 0.999639 0.679302 0.174114
H37   H     H_    0.298197 0.499442 0.820945 0.174085
H38   H     H_    0.707465 0.492888 0.827459 0.174094
H39   H     H_    0.702277 0.498817 0.178429 0.174142
H40   H     H_    0.292348 0.492702 0.172355 0.174136
C81   C     C_R   0.750656 0.038362 0.289002 0.055247
C82   C     C_R   0.249319 0.038386 0.288979 0.055193
C83   C     C_R   0.249346 0.038359 0.710994 0.055213
C84   C     C_R   0.750638 0.038329 0.710964 0.055121
C85   C     C_R   0.250630 0.538327 0.789037 0.055262
C86   C     C_R   0.749491 0.538183 0.789183 0.055258
C87   C     C_R   0.749381 0.538314 0.210950 0.055220
C88   C     C_R   0.250504 0.538178 0.210813 0.055247
C89   C     C_R   0.723478 0.037501 0.250396 -0.166058
C90   C     C_R   0.276982 0.036821 0.251105 -0.165848
C91   C     C_R   0.276461 0.037589 0.749692 -0.166093
C92   C     C_R   0.724014 0.038249 0.750324 -0.165874
C93   C     C_R   0.224091 0.538354 0.749543 -0.166155
C94   C     C_R   0.772944 0.541782 0.746138 -0.165997
C95   C     C_R   0.775660 0.538682 0.250785 -0.166141
C96   C     C_R   0.227152 0.541878 0.253959 -0.166050
C97   C     C_1   0.250632 0.421346 0.672066 -0.064502
C98   C     C_1   0.749500 0.421217 0.672194 -0.064424
C99   C     C_1   0.749379 0.421334 0.327922 -0.064435
C100  C     C_1   0.250496 0.421212 0.327802 -0.064360
C101  C     C_1   0.750658 0.921379 0.172033 -0.064440
C102  C     C_1   0.249328 0.921413 0.171997 -0.064602
C103  C     C_1   0.249344 0.921376 0.827964 -0.064365
C104  C     C_1   0.750628 0.921358 0.827948 -0.064527
C105  C     C_1   0.750247 0.078211 0.328369 -0.026607
C106  C     C_1   0.249734 0.078217 0.328364 -0.026385
C107  C     C_1   0.249754 0.078209 0.671629 -0.026578
C108  C     C_1   0.750243 0.078190 0.671608 -0.026342
C109  C     C_1   0.250233 0.578194 0.828386 -0.026650
C110  C     C_1   0.749822 0.578119 0.828464 -0.026453
C111  C     C_1   0.749772 0.578188 0.171608 -0.026594
C112  C     C_1   0.250175 0.578116 0.171534 -0.026432
C113  C     C_1   0.750065 0.111470 0.361462 -0.121594
C114  C     C_1   0.249922 0.111469 0.361466 -0.121267
C115  C     C_1   0.249936 0.111469 0.638538 -0.121569
C116  C     C_1   0.750067 0.111458 0.638524 -0.121234
C117  C     C_1   0.250059 0.611464 0.861468 -0.121644
C118  C     C_1   0.749959 0.611430 0.861505 -0.121376
C119  C     C_1   0.749944 0.611461 0.138529 -0.121592
C120  C     C_1   0.250039 0.611429 0.138494 -0.121359
C121  C     C_1   0.250187 0.388458 0.638603 -0.119623
C122  C     C_1   0.749874 0.388409 0.638650 -0.119987
C123  C     C_1   0.749817 0.388453 0.361392 -0.119573
C124  C     C_1   0.250124 0.388407 0.361348 -0.119913
C125  C     C_1   0.750199 0.888471 0.138590 -0.119542
C126  C     C_1   0.249800 0.888488 0.138570 -0.120031
C127  C     C_1   0.249802 0.888470 0.861409 -0.119455
C128  C     C_1   0.750181 0.888466 0.861408 -0.119980
H41   H     H_    0.966024 0.333618 0.506774 0.149860
H42   H     H_    0.033979 0.333618 0.506774 0.149847
H43   H     H_    0.466023 0.833689 0.005831 0.149728
H44   H     H_    0.533979 0.833689 0.005831 0.149736
C129  C     C_R   0.019249 0.297059 0.503812 -0.169383
C130  C     C_R   0.980752 0.297059 0.503812 -0.169374
C131  C     C_R   0.519249 0.797099 0.003281 -0.169707
C132  C     C_R   0.480752 0.797099 0.003281 -0.169730
C133  C     C_R   0.038494 0.249997 0.499999 0.155579
C134  C     C_R   0.961506 0.249997 0.499998 0.155572
C135  C     C_R   0.538494 0.749997 0.999999 0.155692
C136  C     C_R   0.461506 0.749998 0.999999 0.155692
C137  C     C_R   0.019248 0.202935 0.496186 -0.166410
C138  C     C_R   0.980750 0.202935 0.496185 -0.166418
C139  C     C_R   0.519248 0.702896 0.996717 -0.166711
C140  C     C_R   0.480751 0.702896 0.996716 -0.166709
H45   H     H_    0.033976 0.166376 0.493224 0.152486
H46   H     H_    0.966021 0.166376 0.493223 0.152487
H47   H     H_    0.533976 0.666306 0.994167 0.152398
H48   H     H_    0.466021 0.666306 0.994167 0.152399
C141  C     C_1   0.077982 0.249996 0.500000 -0.064785
C142  C     C_1   0.922018 0.249996 0.499999 -0.064784
C143  C     C_1   0.577982 0.749996 1.000000 -0.065123
C144  C     C_1   0.422018 0.749996 0.999999 -0.065142
C145  C     C_1   0.888893 0.249992 0.499999 -0.124615
C146  C     C_1   0.111107 0.249992 0.500000 -0.124622
C147  C     C_1   0.388893 0.749992 0.999999 -0.124888
C148  C     C_1   0.611107 0.749992 0.000000 -0.124867
N1    N     N_R   0.537964 0.230343 0.400843 0.273328
O53   O     O_R   0.532299 0.199320 0.361607 -0.314383
O54   O     O_R   0.559674 0.270147 0.394424 -0.354647
N2    N     N_R   0.463817 0.246512 0.402571 0.268623
O55   O     O_R   0.440898 0.221155 0.372971 -0.337823
O56   O     O_R   0.474807 0.292470 0.388046 -0.333754
N3    N     N_R   0.462036 0.231119 0.599294 0.273359
O57   O     O_R   0.467698 0.200400 0.638769 -0.314202
O58   O     O_R   0.440330 0.270976 0.605404 -0.354674
N4    N     N_R   0.536183 0.247267 0.597440 0.268609
O59   O     O_R   0.559099 0.222138 0.627238 -0.337614
O60   O     O_R   0.525196 0.293339 0.611605 -0.333816
N5    N     N_R   0.037962 0.730608 0.900802 0.273344
O61   O     O_R   0.032298 0.699686 0.861486 -0.314014
O62   O     O_R   0.059670 0.770431 0.894485 -0.354435
N6    N     N_R   0.963814 0.746763 0.902574 0.268629
O63   O     O_R   0.940897 0.721478 0.872910 -0.337305
O64   O     O_R   0.974801 0.792760 0.888166 -0.333259
N7    N     N_R   0.962038 0.730876 0.099257 0.273360
O65   O     O_R   0.967703 0.700061 0.138657 -0.313888
O66   O     O_R   0.940328 0.770713 0.105466 -0.354446
N8    N     N_R   0.036186 0.747024 0.097442 0.268633
O67   O     O_R   0.059103 0.721819 0.127173 -0.337229
O68   O     O_R   0.025199 0.793060 0.111727 -0.333198
O69   O     O_3   0.305947 0.423233 0.756216 -0.743280
H49   H     H_    0.303750 0.397825 0.727475 0.349993
O70   O     O_3   0.700635 0.415630 0.763772 -0.744334
H50   H     H_    0.702588 0.390507 0.734749 0.349383
O71   O     O_3   0.694604 0.422507 0.243058 -0.743344
H51   H     H_    0.696780 0.397127 0.271825 0.349948
O72   O     O_3   0.299148 0.415415 0.236012 -0.744314
H52   H     H_    0.297202 0.390300 0.265043 0.349367
O73   O     O_3   0.807312 0.925122 0.254325 -0.743192
H53   H     H_    0.805064 0.899644 0.225655 0.350013
O74   O     O_3   0.191663 0.926631 0.252755 -0.743533
H54   H     H_    0.193953 0.901101 0.224140 0.349645
O75   O     O_3   0.192823 0.924929 0.745482 -0.743179
H55   H     H_    0.195066 0.899459 0.774160 0.349997
O76   O     O_3   0.806123 0.923469 0.744079 -0.743674
H56   H     H_    0.803917 0.898055 0.772811 0.349606

loop_
_geom_bond_atom_site_label_1
_geom_bond_atom_site_label_2
_geom_bond_distance
_ccdc_geom_bond_type
C67   O71   1.382244 S    
C137  H45   1.083540 S    
C4    C123  1.434189 S    
O70   H50   0.988738 S    
C79   C87   1.399481 A    
O75   H55   0.988746 S    
C58   C66   1.420383 A    
O26   C7    1.272010 A    
C77   C85   1.399480 A    
H41   C130  1.083538 S    
C129  C133  1.399946 A    
C36   C48   1.206539 T    
H19   C91   1.083500 S    
O30   C11   1.272094 A    
C87   C95   1.397955 A    
N3    O57   1.301271 A    
C43   H14   1.108765 S    
C85   C93   1.397953 A    
N4    O59   1.301147 A    
Zn12  O26   1.910700 S    
C106  C114  1.205485 T    
C52   C96   1.396450 A    
C37   C46   1.479032 S    
C52   C60   1.402238 A    
C55   H31   1.083755 S    
C41   H10   1.108768 S    
C80   C88   1.399477 A    
C51   H27   1.083754 S    
C32   C39   1.572372 S    
C50   C58   1.402236 A    
O11   C7    1.271405 A    
O34   C15   1.272092 A    
C57   C97   1.442877 S    
Zn1   O44   1.917747 S    
C31   C40   1.571488 S    
Zn2   O43   1.917516 S    
C56   C92   1.396450 A    
C62   C102  1.442895 S    
C68   C80   1.401264 A    
Zn5   O48   1.917747 S    
Zn6   O47   1.917516 S    
C108  C116  1.205483 T    
Zn7   O46   1.917747 S    
O16   C12   1.272347 A    
C78   C86   1.399482 A    
O76   H56   0.988742 S    
C54   H30   1.083761 S    
Zn16  O4    1.923753 S    
Zn12  O4    1.923752 S    
Zn1   O13   1.910811 S    
Zn3   O15   1.910811 S    
C5    C126  1.434213 S    
Zn4   O16   1.910717 S    
C100  C124  1.205591 T    
C49   C57   1.402239 A    
N2    O56   1.301360 A    
C102  C126  1.205591 T    
Zn13  O29   1.909678 S    
C75   H35   1.084054 S    
C70   C74   1.401271 A    
C81   C89   1.397954 A    
C76   H36   1.084052 S    
H17   C89   1.083501 S    
C24   C35   1.435661 S    
C59   C99   1.442875 S    
Zn10  O22   1.910700 S    
O25   C8    1.271859 A    
N8    O68   1.301360 A    
H22   C94   1.083497 S    
C33   C45   1.206539 T    
C53   C61   1.402237 A    
Zn10  O2    1.923752 S    
C59   C67   1.420378 A    
O29   C12   1.272243 A    
C60   C68   1.420384 A    
H20   C92   1.083501 S    
C78   H38   1.084043 S    
O37   C17   1.268896 A    
O48   C23   1.270502 A    
C18   C146  1.426904 S    
C136  C140  1.399944 A    
O32   C9    1.272094 A    
C51   C95   1.396442 A    
C40   C47   1.479032 S    
C32   N5    1.474738 S    
C65   C77   1.401260 A    
C97   C121  1.205577 T    
Zn16  O35   1.909679 S    
C29   N8    1.473043 S    
C74   H34   1.084049 S    
C87   C111  1.439258 S    
C29   C30   1.573769 S    
Zn15  O33   1.909678 S    
C85   C109  1.439259 S    
C31   H8    1.115649 S    
C14   C118  1.434314 S    
C137  C138  1.395944 A    
Zn7   O10   1.910874 S    
O33   C16   1.272243 A    
C64   C104  1.442896 S    
H24   C96   1.083501 S    
O40   C20   1.268897 A    
C129  C130  1.395952 A    
C31   C32   1.573759 S    
C103  C127  1.205579 T    
Zn5   O17   1.910811 S    
C43   H15   1.110077 S    
C61   C69   1.420376 A    
C84   C92   1.397957 A    
N5    O61   1.301271 A    
C104  C128  1.205591 T    
Zn8   O3    1.923100 S    
C44   H13   1.110080 S    
C56   C64   1.402236 A    
C7    C128  1.434210 S    
N6    O63   1.301154 A    
C57   C65   1.420380 A    
O38   C18   1.268899 A    
C21   C34   1.435665 S    
O5    C1    1.271401 A    
C23   C36   1.435661 S    
C54   C90   1.396440 A    
O71   H51   0.988742 S    
C60   C100  1.442894 S    
Zn15  O51   1.918084 S    
O69   H49   0.988746 S    
Zn11  O28   1.910698 S    
N1    O54   1.301416 A    
C81   C105  1.439259 S    
C10   C114  1.434322 S    
C66   O70   1.382249 S    
C64   C72   1.420385 A    
C88   C96   1.397962 A    
C19   C147  1.426907 S    
C133  C141  1.431879 S    
C20   C148  1.426907 S    
Zn9   O1    1.923750 S    
C133  C137  1.399944 A    
C68   O72   1.382244 S    
O50   C18   1.268888 A    
C11   C115  1.434306 S    
C135  C139  1.399941 A    
C29   C39   1.571494 S    
Zn1   O1    1.922642 S    
Zn13  O1    1.923755 S    
Zn2   O14   1.910716 S    
N7    O65   1.301278 A    
C2    C121  1.434189 S    
C52   H28   1.083756 S    
C55   C63   1.402237 A    
C41   C42   1.548566 S    
C71   O75   1.382243 S    
H21   C93   1.083499 S    
C110  C118  1.205483 T    
O9    C5    1.271408 A    
O39   C19   1.268895 A    
O36   C13   1.272094 A    
C38   C41   1.556395 S    
O13   C9    1.272222 A    
Zn1   O8    1.910874 S    
Zn2   O7    1.910780 S    
C69   C73   1.401261 A    
Zn3   O6    1.910874 S    
O18   C14   1.272349 A    
C22   C33   1.435664 S    
O6    C2    1.271277 A    
C72   C76   1.401268 A    
C109  C117  1.205473 T    
C138  H46   1.083538 S    
C67   C79   1.401260 A    
C55   C91   1.396440 A    
C139  C140  1.395944 A    
Zn14  O30   1.909541 S    
Zn15  O3    1.923755 S    
C54   C62   1.402237 A    
H42   C129  1.083538 S    
Zn11  O3    1.923750 S    
C130  C134  1.399946 A    
O41   C21   1.270913 A    
C50   C94   1.396447 A    
Zn16  O34   1.909541 S    
C79   H39   1.084052 S    
C27   C38   1.571498 S    
C131  C132  1.395952 A    
C86   C94   1.397966 A    
C77   H37   1.084053 S    
C112  C120  1.205484 T    
N3    O58   1.301412 A    
Zn8   O20   1.910717 S    
C80   H40   1.084052 S    
C83   C107  1.439258 S    
C136  C144  1.431879 S    
C38   C45   1.479032 S    
C105  C113  1.205475 T    
C66   C78   1.401265 A    
C42   H9    1.110075 S    
C63   C71   1.420378 A    
C73   H33   1.084052 S    
Zn8   O9    1.910779 S    
C144  C147  1.201127 T    
C35   C47   1.206539 T    
C141  C146  1.201127 T    
C58   C98   1.442892 S    
O7    C3    1.271400 A    
C143  C148  1.201127 T    
O72   H52   0.988740 S    
O19   C15   1.272222 A    
C15   C119  1.434304 S    
C61   C101  1.442876 S    
H44   C131  1.083539 S    
Zn6   O18   1.910716 S    
Zn10  O23   1.910561 S    
O74   H54   0.988732 S    
C12   C116  1.434324 S    
C139  H47   1.083541 S    
C62   C70   1.420383 A    
C72   O76   1.382242 S    
C25   C37   1.571491 S    
Zn15  O36   1.909542 S    
C6    C125  1.434191 S    
O49   C17   1.268889 A    
C41   H11   1.110078 S    
C74   C82   1.399483 A    
C29   H6    1.115648 S    
C131  C135  1.399948 A    
C28   C37   1.572377 S    
Zn9   O37   1.918148 S    
O12   C8    1.271280 A    
Zn11  O39   1.918148 S    
C82   C90   1.397959 A    
C65   O69   1.382240 S    
C28   N1    1.474736 S    
C39   C48   1.479031 S    
C30   N7    1.474743 S    
N6    O64   1.301356 A    
C25   H2    1.115648 S    
C43   C44   1.548562 S    
C51   C59   1.402237 A    
Zn5   O3    1.922642 S    
Zn6   O4    1.923102 S    
C50   H26   1.083761 S    
H23   C95   1.083500 S    
C34   C46   1.206536 T    
Zn9   O24   1.910698 S    
O28   C5    1.272008 A    
C70   O74   1.382246 S    
Zn3   O42   1.917747 S    
C132  C136  1.399945 A    
N2    O55   1.301147 A    
Zn7   O4    1.922640 S    
O21   C4    1.271861 A    
C56   H32   1.083754 S    
C111  C119  1.205475 T    
C25   C26   1.573763 S    
C98   C122  1.205590 T    
O73   H53   0.988742 S    
Zn14  O2    1.923753 S    
C27   C28   1.573774 S    
C26   C38   1.572369 S    
C49   H25   1.083756 S    
C86   C110  1.439275 S    
Zn13  O49   1.918084 S    
O44   C21   1.270495 A    
C30   H5    1.114822 S    
C13   C117  1.434303 S    
C83   C91   1.397953 A    
Zn12  O27   1.910561 S    
C75   C83   1.399481 A    
N8    O67   1.301142 A    
C76   C84   1.399482 A    
Zn3   O2    1.922640 S    
C26   H1    1.114823 S    
O46   C24   1.270497 A    
O47   C24   1.270915 A    
C3    C124  1.434208 S    
H43   C132  1.083538 S    
Zn16  O52   1.918085 S    
N1    O53   1.301272 A    
N4    O60   1.301356 A    
Zn8   O45   1.917516 S    
C140  H48   1.083541 S    
C53   H29   1.083755 S    
O27   C6    1.271859 A    
C42   H12   1.108768 S    
C88   C112  1.439274 S    
O8    C4    1.271278 A    
O24   C1    1.272014 A    
C63   C103  1.442876 S    
C71   C75   1.401262 A    
O43   C22   1.270905 A    
Zn4   O41   1.917516 S    
C53   C89   1.396439 A    
C134  C142  1.431879 S    
Zn5   O12   1.910874 S    
O42   C22   1.270504 A    
C31   N6    1.473044 S    
C30   C40   1.572375 S    
Zn6   O11   1.910780 S    
Zn9   O21   1.910564 S    
Zn14  O50   1.918085 S    
C82   C106  1.439275 S    
O35   C14   1.272239 A    
Zn12  O40   1.918143 S    
C9    C113  1.434304 S    
N5    O62   1.301416 A    
O52   C20   1.268886 A    
C142  C145  1.201127 T    
Zn4   O1    1.923100 S    
C16   C120  1.434320 S    
C49   C93   1.396443 A    
C27   H4    1.115644 S    
C134  C138  1.399944 A    
H18   C90   1.083504 S    
O22   C3    1.272015 A    
C32   H7    1.114825 S    
C44   H16   1.108768 S    
Zn7   O19   1.910811 S    
C17   C145  1.426904 S    
Zn2   O2    1.923102 S    
C107  C115  1.205473 T    
Zn13  O32   1.909542 S    
C135  C143  1.431879 S    
O15   C11   1.272222 A    
Zn14  O31   1.909679 S    
O51   C19   1.268887 A    
O31   C10   1.272243 A    
C40   C43   1.556404 S    
C25   N4    1.473043 S    
C1    C122  1.434211 S    
Zn4   O5    1.910779 S    
C99   C123  1.205579 T    
C27   N2    1.473043 S    
O17   C13   1.272224 A    
O20   C16   1.272348 A    
C26   N3    1.474738 S    
C73   C81   1.399481 A    
O10   C6    1.271282 A    
O23   C2    1.271861 A    
Zn11  O25   1.910564 S    
C8    C127  1.434190 S    
Zn10  O38   1.918143 S    
C101  C125  1.205579 T    
C37   C42   1.556398 S    
O14   C10   1.272346 A    
C39   C44   1.556401 S    
C28   H3    1.114822 S    
C69   O73   1.382247 S    
C84   C108  1.439276 S    
O45   C23   1.270907 A    
N7    O66   1.301404 A    
