data_mof_unit_26887.cif
_audit_creation_date              2012-12-10T19:00:44-0500
_audit_creation_method            fapswitch 2.2
_symmetry_space_group_name_H-M    P1
_symmetry_Int_Tables_number       1
_space_group_crystal_system       triclinic
_cell_length_a                    15.044614
_cell_length_b                    10.831467
_cell_length_c                    9.552379
_cell_angle_alpha                 89.302103
_cell_angle_beta                  89.704518
_cell_angle_gamma                 89.62294
_cell_volume                      1556.44097176

loop_
_atom_site_label
_atom_site_type_symbol
_atom_type_description
_atom_site_fract_x
_atom_site_fract_y
_atom_site_fract_z
_atom_type_partial_charge
C1    C     C_R   0.497832 0.262300 0.500869 0.806884
C2    C     C_R   0.907275 0.568212 0.393159 -0.033949
C3    C     C_R   0.953148 0.382164 0.716427 -0.161124
C4    C     C_R   0.045808 0.383115 0.717858 -0.211401
C5    C     C_R   0.092996 0.443564 0.610641 0.104739
C6    C     C_R   0.046800 0.504292 0.501154 0.099446
C7    C     C_R   0.093808 0.564180 0.391906 0.116732
C8    C     C_R   0.047482 0.626127 0.285066 -0.236298
C9    C     C_R   0.954825 0.628924 0.286177 -0.125732
C10   C     C_R   0.185657 0.444072 0.610593 -0.245761
C11   C     C_R   0.232174 0.501808 0.500885 -0.057009
C12   C     C_R   0.328791 0.500355 0.500309 0.781694
C13   C     C_R   0.186432 0.561204 0.391651 -0.249554
C14   C     C_R   0.493971 0.061124 0.626895 -0.063467
C15   C     C_R   0.486220 0.129527 0.502730 -0.176169
C16   C     C_R   0.460199 0.068249 0.380696 -0.164927
C17   C     C_R   0.454331 0.939392 0.379265 0.416066
C18   C     C_R   0.481905 0.870607 0.499237 -0.191821
C19   C     C_R   0.494684 0.934211 0.623444 -0.088161
C20   C     C_3   0.564907 0.923944 0.733966 0.786930
C21   C     C_3   0.561942 0.064932 0.741544 0.121086
C22   C     C_R   0.545376 0.412779 0.074143 0.152863
C23   C     C_R   0.495124 0.737538 0.499195 0.852875
C24   C     C_R   0.447945 0.581644 0.073669 0.007637
C25   C     C_R   0.448007 0.581733 0.924772 0.009512
C26   C     C_R   0.545172 0.412807 0.927074 0.131431
C27   C     C_3   0.641975 0.384872 0.918336 -0.513654
C28   C     C_3   0.642979 0.385743 0.076821 0.460360
C29   C     C_R   0.671257 0.501660 0.499733 0.892798
C30   C     C_R   0.814369 0.569495 0.394802 0.627915
C31   C     C_R   0.768045 0.504223 0.499676 -0.187828
C32   C     C_R   0.814209 0.441842 0.606298 -0.333440
C33   C     C_R   0.906730 0.442831 0.608610 0.118597
C34   C     C_R   0.953558 0.505033 0.500881 -0.023157
Cu1   Cu    Cu3+1 0.500000 0.499980 0.640670 0.973651
Cu2   Cu    Cu3+1 0.500000 0.500020 0.359330 1.022657
H1    H     H_    0.624682 0.112475 0.711509 0.102325
H2    H     H_    0.406653 0.647184 0.128653 0.127732
H3    H     H_    0.407077 0.647806 0.868368 0.126340
H4    H     H_    0.655878 0.292357 0.874168 0.155756
H5    H     H_    0.680628 0.461756 0.870632 0.253551
H6    H     H_    0.659836 0.295252 0.126306 0.073555
H7    H     H_    0.778060 0.391187 0.686527 0.167093
H8    H     H_    0.917767 0.334361 0.799783 0.151271
H9    H     H_    0.080564 0.336083 0.802302 0.148474
H10   H     H_    0.221656 0.397680 0.694332 0.153092
H11   H     H_    0.223034 0.606788 0.307855 0.141189
H12   H     H_    0.082922 0.672742 0.200919 0.149967
H13   H     H_    0.920580 0.677713 0.202529 0.208060
H14   H     H_    0.444933 0.119834 0.285822 0.185975
N1    N     N_R   0.500570 0.500930 0.147930 -0.168099
N2    N     N_R   0.500570 0.500890 0.852020 -0.168777
O1    O     O_R   0.500000 0.319640 0.618810 -0.594549
O2    O     O_R   0.500010 0.319680 0.381230 -0.604172
O3    O     O_R   0.370250 0.499950 0.618800 -0.598860
O4    O     O_R   0.370260 0.499990 0.381220 -0.605723
O5    O     O_R   0.499990 0.680320 0.618770 -0.552706
O6    O     O_R   0.500000 0.680360 0.381190 -0.552917
O7    O     O_R   0.629740 0.500010 0.618780 -0.588794
O8    O     O_R   0.629750 0.500050 0.381200 -0.478210
F1    F     F_    0.769203 0.637746 0.297939 -0.595417
O9    O     O_3   0.423630 0.885443 0.259240 -0.703383
H15   H     H_    0.387508 0.813320 0.288151 0.304311
O10   O     O_3   0.537631 0.860745 0.856706 -0.653892
H16   H     H_    0.474127 0.880738 0.875002 0.332167
O11   O     O_3   0.645604 0.878175 0.681094 -0.726025
H17   H     H_    0.689904 0.888493 0.756574 0.338775
O12   O     O_3   0.525453 0.105340 0.868653 -0.717217
H18   H     H_    0.498146 0.187174 0.849694 0.340801
F2    F     F_    0.692108 0.483527 0.125067 -0.572112

loop_
_geom_bond_atom_site_label_1
_geom_bond_atom_site_label_2
_ccdc_geom_bond_type
C20   O10   S    
C23   O6    A    
C24   H2    S    
C11   C12   S    
C8    H12   S    
C24   C25   A    
C10   H10   S    
C6    C7    A    
C1    C15   S    
C26   N2    A    
C17   O9    S    
Cu1   O1    S    
C27   H5    S    
C19   C20   S    
C29   O8    A    
C2    C30   A    
C27   H4    S    
Cu1   O5    S    
C6    C34   A    
C32   C33   A    
C2    C34   A    
C24   N1    A    
C17   C18   A    
C25   N2    A    
C9    H13   S    
C7    C8    A    
C29   C31   S    
C22   C28   S    
O11   H17   S    
C25   H3    S    
C4    C5    A    
C11   C13   A    
C26   C27   S    
C12   O4    A    
Cu2   N1    S    
C1    O2    A    
Cu2   O4    S    
C5    C6    A    
C14   C21   S    
C28   H6    S    
C32   H7    S    
C16   H14   S    
C33   C34   A    
Cu2   O6    S    
C4    H9    S    
C5    C10   A    
C21   O12   S    
C30   C31   A    
C3    H8    S    
C12   O3    A    
Cu2   O2    S    
C10   C11   A    
C3    C33   A    
Cu1   O3    S    
C18   C23   S    
C29   O7    A    
C7    C13   A    
C21   H1    S    
C20   C21   S    
Cu1   O7    S    
C18   C19   A    
C22   C26   A    
C30   F1    S    
C20   O11   S    
C27   C28   S    
C23   O5    A    
C1    O1    A    
Cu1   N2    S    
C22   N1    A    
Cu1   Cu2   S    
O9    H15   S    
C14   C15   A    
C2    C9    A    
C13   H11   S    
C14   C19   A    
O12   H18   S    
C31   C32   A    
C28   F2    S    
C3    C4    A    
C15   C16   A    
C16   C17   A    
C8    C9    A    
Cu2   O8    S    
O10   H16   S    
