data_mof_unit_7472.cif
_audit_creation_date              2012-12-11T16:06:30-0500
_audit_creation_method            fapswitch 2.2
_symmetry_space_group_name_H-M    P1
_symmetry_Int_Tables_number       1
_space_group_crystal_system       triclinic
_cell_length_a                    7.198738
_cell_length_b                    14.473629
_cell_length_c                    15.790874
_cell_angle_alpha                 89.999596
_cell_angle_beta                  90.025789
_cell_angle_gamma                 89.999963
_cell_volume                      1645.28041502

loop_
_atom_site_label
_atom_site_type_symbol
_atom_type_description
_atom_site_fract_x
_atom_site_fract_y
_atom_site_fract_z
_atom_type_partial_charge
O1    O     O_R   0.388780 0.834790 0.412340 -0.538737
O2    O     O_R   0.111220 0.165210 0.912340 -0.537979
O3    O     O_R   0.888780 0.665210 0.587660 -0.537947
O4    O     O_R   0.611220 0.334790 0.087660 -0.538722
O5    O     O_R   0.059040 0.845930 0.587040 -0.539433
O6    O     O_R   0.440960 0.154070 0.087040 -0.544659
O7    O     O_R   0.559040 0.654070 0.412960 -0.544708
O8    O     O_R   0.940960 0.345930 0.912960 -0.539450
C1    C     C_R   0.228304 0.868625 0.614832 0.673328
C2    C     C_R   0.272346 0.132045 0.115322 0.689206
C3    C     C_R   0.727655 0.632035 0.384687 0.689209
C4    C     C_R   0.771696 0.368629 0.885172 0.673416
O9    O     O_R   0.059070 0.845930 0.412970 -0.543391
O10   O     O_R   0.440930 0.154070 0.912970 -0.543968
O11   O     O_R   0.559070 0.654070 0.587030 -0.543984
O12   O     O_R   0.940930 0.345930 0.087030 -0.543378
O13   O     O_R   0.888760 0.665210 0.412340 -0.542711
O14   O     O_R   0.611240 0.334790 0.912340 -0.516243
O15   O     O_R   0.388760 0.834790 0.587660 -0.516206
O16   O     O_R   0.111240 0.165210 0.087660 -0.542781
C5    C     C_R   0.228047 0.867959 0.384607 0.656041
C6    C     C_R   0.272351 0.132255 0.884498 0.679756
C7    C     C_R   0.727648 0.632261 0.615507 0.679757
C8    C     C_R   0.771954 0.367947 0.115404 0.656083
O17   O     O_3   0.222280 0.690700 0.500000 -0.378841
O18   O     O_3   0.277720 0.309300 0.000000 -0.359862
O19   O     O_3   0.722280 0.809300 0.500000 -0.359859
O20   O     O_3   0.777720 0.190700 0.000000 -0.378870
V1    V     V_3+5 0.947430 0.761000 0.500000 1.405488
V2    V     V_3+5 0.552570 0.239000 0.000000 1.403858
V3    V     V_3+5 0.447430 0.739000 0.500000 1.403853
V4    V     V_3+5 0.052570 0.261000 0.000000 1.405350
C9    C     C_3   0.840410 0.603536 0.765460 -0.340909
C10   C     C_3   0.554717 0.455587 0.214184 -0.318131
C11   C     C_3   0.445316 0.955815 0.286005 -0.318118
C12   C     C_3   0.159868 0.103578 0.734497 -0.340919
H1    H     H_    0.980955 0.628114 0.746672 0.150444
H2    H     H_    0.472584 0.480169 0.158834 0.153438
H3    H     H_    0.527142 0.980451 0.341429 0.153353
H4    H     H_    0.019343 0.128247 0.753217 0.150397
H5    H     H_    0.762643 0.664554 0.789547 0.119919
H6    H     H_    0.490517 0.389870 0.236237 0.130788
H7    H     H_    0.509848 0.890169 0.263978 0.130868
H8    H     H_    0.237845 0.164544 0.710439 0.119890
C13   C     C_3   0.860639 0.530853 0.837460 -0.330239
C14   C     C_3   0.541649 0.528091 0.285649 -0.338904
C15   C     C_3   0.458376 0.028359 0.214574 -0.338916
C16   C     C_3   0.139621 0.030898 0.662496 -0.330260
H9    H     H_    0.806478 0.559382 0.897941 0.118928
H10   H     H_    0.463950 0.498572 0.340124 0.140630
H11   H     H_    0.536530 0.998956 0.160180 0.140677
H12   H     H_    0.193974 0.059390 0.602036 0.118881
H13   H     H_    0.010795 0.516518 0.848004 0.181502
H14   H     H_    0.459154 0.588161 0.262672 0.139912
H15   H     H_    0.540416 0.088536 0.237655 0.139826
H16   H     H_    0.989454 0.016646 0.651888 0.181451
H17   H     H_    0.986779 0.492036 0.639328 0.161072
H18   H     H_    0.770826 0.559275 0.103863 0.134342
H19   H     H_    0.228414 0.059317 0.396104 0.134311
H20   H     H_    0.012937 0.992174 0.860560 0.161013
H21   H     H_    0.000150 0.384024 0.745185 0.165996
H22   H     H_    0.750743 0.665235 0.212024 0.140391
H23   H     H_    0.248207 0.165288 0.287936 0.140362
H24   H     H_    0.999578 0.884151 0.754717 0.166115
C17   C     C_3   0.843141 0.473734 0.659239 -0.311327
C18   C     C_3   0.845108 0.532393 0.160559 -0.327400
C19   C     C_3   0.154408 0.032334 0.339375 -0.327404
C20   C     C_3   0.156583 0.973786 0.840727 -0.311485
C21   C     C_3   0.540145 0.532645 0.716731 -0.368154
C22   C     C_3   0.866667 0.402966 0.266656 -0.375910
C23   C     C_3   0.133797 0.902868 0.233282 -0.375857
C24   C     C_3   0.459853 0.032513 0.783379 -0.368119
C25   C     C_3   0.737539 0.562160 0.687451 0.070742
C26   C     C_3   0.760243 0.438154 0.187359 0.085516
C27   C     C_3   0.239759 0.938174 0.312660 0.085521
C28   C     C_3   0.262461 0.062149 0.812559 0.070808
H25   H     H_    0.464133 0.500286 0.662926 0.124516
H26   H     H_    0.014719 0.390001 0.250158 0.121402
H27   H     H_    0.985717 0.889798 0.249655 0.121319
H28   H     H_    0.535649 0.000107 0.837224 0.124519
H29   H     H_    0.458806 0.594674 0.735792 0.144523
H30   H     H_    0.807747 0.335516 0.287204 0.130649
H31   H     H_    0.193017 0.835454 0.212814 0.130645
H32   H     H_    0.541397 0.094489 0.764359 0.144566
C29   C     C_3   0.758775 0.439709 0.813910 0.063231
C30   C     C_3   0.738283 0.561141 0.313363 0.070782
C31   C     C_3   0.261722 0.061162 0.186654 0.070805
C32   C     C_3   0.241229 0.939700 0.686099 0.063271
C33   C     C_3   0.852331 0.401697 0.732289 -0.413729
C34   C     C_3   0.831774 0.604168 0.233728 -0.401163
C35   C     C_3   0.167641 0.104091 0.266188 -0.401096
C36   C     C_3   0.147406 0.901746 0.767680 -0.413660
C37   C     C_3   0.551355 0.462590 0.790897 0.251380
C38   C     C_3   0.857364 0.475475 0.339900 0.227609
C39   C     C_3   0.143196 0.975348 0.160015 0.227518
C40   C     C_3   0.448650 0.962466 0.709206 0.251388
H33   H     H_    0.483530 0.397599 0.769200 0.100248
H34   H     H_    0.001730 0.499649 0.352142 0.116280
H35   H     H_    0.998800 0.999354 0.147580 0.116187
H36   H     H_    0.516282 0.897436 0.730931 0.100196
H37   H     H_    0.772636 0.442484 0.603446 0.161653
H38   H     H_    0.993338 0.523071 0.142503 0.145855
H39   H     H_    0.006169 0.022862 0.357345 0.145896
H40   H     H_    0.226873 0.942503 0.896560 0.161831
H41   H     H_    0.782086 0.336831 0.712109 0.121080
H42   H     H_    0.973707 0.629223 0.249693 0.137543
H43   H     H_    0.025629 0.128924 0.250080 0.137615
H44   H     H_    0.217465 0.836844 0.787898 0.121093
O21   O     O_3   0.449802 0.494007 0.861592 -0.645163
H45   H     H_    0.494025 0.556832 0.876410 0.281962
O22   O     O_3   0.793356 0.435748 0.415887 -0.667463
H46   H     H_    0.673979 0.404085 0.404159 0.284331
O23   O     O_3   0.207849 0.935651 0.084128 -0.667483
H47   H     H_    0.327305 0.904135 0.096028 0.284392
O24   O     O_3   0.550433 0.993834 0.638562 -0.645136
H48   H     H_    0.506374 0.056682 0.623723 0.281948

loop_
_geom_bond_atom_site_label_1
_geom_bond_atom_site_label_2
_ccdc_geom_bond_type
O17   V3    S    
C32   C40   S    
O1    C5    A    
C31   C35   S    
O19   V1    S    
C9    C13   S    
C18   H38   S    
C21   H25   S    
O22   H46   S    
C10   H6    S    
C17   H37   S    
C24   C28   S    
C11   C15   S    
C23   H27   S    
C19   H39   S    
C18   C34   S    
O7    C3    A    
C11   C27   S    
C4    C29   S    
O9    V1    S    
C22   H26   S    
C22   C38   S    
O10   V2    S    
C21   C37   S    
C1    C32   S    
O4    C8    A    
C39   H35   S    
C23   C39   S    
C38   H34   S    
C3    C30   S    
O24   H48   S    
C18   C26   S    
H22   C34   S    
C38   O22   S    
O1    V3    S    
O13   V1    S    
O2    V4    S    
C1    O15   A    
O3    V1    S    
C22   C26   S    
C30   C38   S    
H19   C19   S    
O3    C7    A    
H18   C18   S    
C32   C36   S    
C2    O16   A    
C31   C39   S    
O2    C6    A    
C16   C32   S    
C40   O24   S    
C21   C25   S    
C10   C14   S    
C6    C28   S    
C12   C28   S    
C23   H31   S    
O11   C7    A    
O15   V3    S    
O12   C8    A    
C29   C37   S    
C7    C25   S    
H21   C33   S    
O5    V1    S    
C2    C31   S    
O7    V3    S    
O8    V4    S    
C35   H43   S    
C12   H4    S    
C34   H42   S    
C30   C34   S    
C17   C25   S    
C29   C33   S    
O18   V4    S    
C15   H11   S    
C9    H1    S    
C15   C31   S    
C11   H3    S    
O5    C1    A    
C13   H9    S    
O8    C4    A    
C14   H14   S    
C19   C35   S    
O9    C5    A    
C20   C28   S    
C24   H32   S    
C10   C26   S    
O14   V2    S    
C9    C25   S    
O6    V2    S    
C12   H8    S    
C19   C27   S    
H24   C36   S    
C4    O14   A    
C37   H33   S    
C11   H7    S    
C15   H15   S    
O23   H47   S    
O16   V4    S    
C16   H16   S    
C5    C27   S    
C3    O13   A    
C10   H2    S    
C20   H40   S    
H17   C17   S    
O6    C2    A    
O11   V3    S    
C17   C33   S    
O12   V4    S    
C14   H10   S    
C13   C29   S    
C9    H5    S    
C33   H41   S    
O10   C6    A    
O20   V2    S    
C24   H28   S    
O21   H45   S    
C23   C27   S    
C8    C26   S    
C39   O23   S    
C40   H36   S    
C20   C36   S    
C12   C16   S    
C22   H30   S    
C21   H29   S    
C13   H13   S    
C24   C40   S    
C16   H12   S    
H20   C20   S    
H23   C35   S    
C36   H44   S    
O4    V2    S    
C37   O21   S    
C14   C30   S    
