data_mof_unit_21364.cif
_audit_creation_date              2012-12-11T17:44:06-0500
_audit_creation_method            fapswitch 2.2
_symmetry_space_group_name_H-M    P1
_symmetry_Int_Tables_number       1
_space_group_crystal_system       triclinic
_cell_length_a                    20.201583
_cell_length_b                    22.780512
_cell_length_c                    6.939447
_cell_angle_alpha                 89.999734
_cell_angle_beta                  86.849898
_cell_angle_gamma                 90.0
_cell_volume                      3188.72473591

loop_
_atom_site_label
_atom_site_type_symbol
_atom_type_description
_atom_site_fract_x
_atom_site_fract_y
_atom_site_fract_z
_atom_type_partial_charge
O1    O     O_R   0.751270 0.447300 0.600030 -0.545181
O2    O     O_R   0.248730 0.947300 0.399970 -0.545181
O3    O     O_R   0.613530 0.440160 0.952150 -0.522382
O4    O     O_R   0.386470 0.940160 0.047850 -0.522382
O5    O     O_R   0.613050 0.552700 0.122560 -0.530174
O6    O     O_R   0.386950 0.052700 0.877440 -0.530174
C1    C     C_R   0.591775 0.425203 0.786570 0.778401
C2    C     C_R   0.408224 0.925203 0.213431 0.778401
O7    O     O_R   0.750780 0.440350 0.929820 -0.542593
O8    O     O_R   0.249220 0.940350 0.070180 -0.542593
O9    O     O_R   0.751280 0.552900 0.100070 -0.550397
O10   O     O_R   0.248720 0.052900 0.899930 -0.550398
C3    C     C_R   0.774054 0.426366 0.757315 0.776009
C4    C     C_R   0.225946 0.926366 0.242685 0.776008
O11   O     O_R   0.613040 0.447100 0.622520 -0.525519
O12   O     O_R   0.386960 0.947100 0.377480 -0.525520
O13   O     O_3   0.682160 0.536920 0.777780 -0.382983
O14   O     O_3   0.317840 0.036920 0.222220 -0.382983
V1    V     V_3+5 0.682160 0.493150 0.052630 1.502599
V2    V     V_3+5 0.317840 0.993150 0.947370 1.502598
O15   O     O_R   0.750790 0.559840 0.429870 -0.549909
O16   O     O_R   0.249210 0.059840 0.570130 -0.549908
C5    C     C_R   0.773672 0.574315 0.257374 0.676256
C6    C     C_R   0.226328 0.074315 0.742626 0.676256
O17   O     O_R   0.613540 0.559650 0.452200 -0.539244
O18   O     O_R   0.386460 0.059650 0.547800 -0.539244
C7    C     C_R   0.591198 0.573983 0.287036 0.762109
C8    C     C_R   0.408802 0.073983 0.712964 0.762109
V3    V     V_3+5 0.682160 0.506850 0.552630 1.477382
V4    V     V_3+5 0.317840 0.006850 0.447370 1.477381
O19   O     O_3   0.682150 0.463080 0.277610 -0.359650
O20   O     O_3   0.317850 0.963080 0.722390 -0.359650
C9    C     C_R   0.578242 0.860373 0.232007 -0.106748
C10   C     C_R   0.421758 0.360373 0.767997 -0.106749
H1    H     H_    0.535849 0.946289 0.250439 0.135013
H2    H     H_    0.464150 0.446290 0.749565 0.135013
H3    H     H_    0.627354 0.878310 0.244244 0.152763
H4    H     H_    0.372645 0.378310 0.755761 0.152763
C11   C     C_R   0.461108 0.880336 0.216858 -0.103070
C12   C     C_R   0.538891 0.380336 0.783143 -0.103070
C13   C     C_R   0.469660 0.594318 0.337820 -0.029334
C14   C     C_R   0.530340 0.094319 0.662177 -0.029333
C15   C     C_R   0.417993 0.634834 0.365532 -0.149238
C16   C     C_R   0.582006 0.134834 0.634465 -0.149237
C17   C     C_R   0.428338 0.694501 0.335155 -0.126578
C18   C     C_R   0.571662 0.194501 0.664843 -0.126578
C19   C     C_R   0.490448 0.716544 0.266717 0.110794
C20   C     C_R   0.509552 0.216544 0.733282 0.110794
C21   C     C_R   0.544979 0.676741 0.256221 0.034302
C22   C     C_R   0.455021 0.176741 0.743778 0.034302
C23   C     C_R   0.500998 0.777928 0.227819 0.019378
C24   C     C_R   0.499002 0.277928 0.772182 0.019377
C25   C     C_R   0.567371 0.799413 0.220033 0.053506
C26   C     C_R   0.432629 0.299413 0.779969 0.053506
C27   C     C_R   0.621304 0.759503 0.207139 -0.023560
C28   C     C_R   0.378695 0.259503 0.792863 -0.023560
C29   C     C_R   0.609226 0.699151 0.220763 -0.223590
C30   C     C_R   0.390774 0.199151 0.779238 -0.223590
C31   C     C_R   0.448374 0.819238 0.200977 -0.060368
C32   C     C_R   0.551626 0.319238 0.799023 -0.060367
C33   C     C_R   0.525693 0.899783 0.237641 -0.149764
C34   C     C_R   0.474307 0.399783 0.762362 -0.149764
C35   C     C_R   0.534535 0.615392 0.288532 -0.155825
C36   C     C_R   0.465464 0.115392 0.711467 -0.155825
H5    H     H_    0.387208 0.723033 0.374492 0.131984
H6    H     H_    0.612791 0.223034 0.625505 0.131984
H7    H     H_    0.368614 0.620439 0.412510 0.164244
H8    H     H_    0.631385 0.120440 0.587485 0.164244
H9    H     H_    0.651293 0.669645 0.207886 0.125570
H10   H     H_    0.348707 0.169645 0.792115 0.125570
C37   C     C_R   0.170783 0.883070 0.261825 -0.107103
C38   C     C_R   0.829217 0.383071 0.738176 -0.107105
C39   C     C_R   0.156722 0.846047 0.108330 -0.227054
C40   C     C_R   0.843278 0.346047 0.891671 -0.227048
C41   C     C_R   0.105470 0.804372 0.126759 0.430876
C42   C     C_R   0.894530 0.304372 0.873242 0.430874
C43   C     C_R   0.063929 0.801614 0.299185 0.261072
C44   C     C_R   0.936071 0.301614 0.700815 0.261069
C45   C     C_R   0.077755 0.839489 0.454698 -0.128835
C46   C     C_R   0.922244 0.339490 0.545302 -0.128832
C47   C     C_R   0.131412 0.879031 0.434142 -0.252259
C48   C     C_R   0.868588 0.379031 0.565858 -0.252258
C49   C     C_R   0.908083 0.682663 0.385698 -0.124784
C50   C     C_R   0.091917 0.182663 0.614301 -0.124784
C51   C     C_R   0.856155 0.641885 0.403515 -0.177245
C52   C     C_R   0.143844 0.141885 0.596484 -0.177248
C53   C     C_R   0.933360 0.701141 0.201634 0.416299
C54   C     C_R   0.066640 0.201141 0.798365 0.416300
N1    N     N_2   0.010297 0.760547 0.324701 -0.255593
N2    N     N_2   0.989703 0.260547 0.675299 -0.255595
N3    N     N_2   0.986563 0.742267 0.173405 -0.236588
N4    N     N_2   0.013438 0.242268 0.826594 -0.236592
C55   C     C_R   0.828192 0.618396 0.238826 -0.017726
C56   C     C_R   0.171808 0.118397 0.761173 -0.017725
H11   H     H_    0.838170 0.628570 0.546741 0.126574
H12   H     H_    0.161828 0.128570 0.453258 0.126574
H13   H     H_    0.928302 0.699356 0.516051 0.161694
H14   H     H_    0.071696 0.199356 0.483948 0.161694
H15   H     H_    0.141970 0.907841 0.552837 0.175475
H16   H     H_    0.858030 0.407842 0.447163 0.175475
C57   C     C_R   0.853334 0.637146 0.055847 -0.171511
C58   C     C_R   0.146667 0.137147 0.944152 -0.171509
C59   C     C_R   0.905164 0.677937 0.038094 -0.175160
C60   C     C_R   0.094838 0.177938 0.961905 -0.175159
H17   H     H_    0.833122 0.620196 0.925690 0.127820
H18   H     H_    0.166879 0.120197 0.074309 0.127820
H19   H     H_    0.923727 0.691395 0.895523 0.135567
H20   H     H_    0.076274 0.191396 0.104476 0.135566
H21   H     H_    0.186176 0.848675 0.973336 0.153877
H22   H     H_    0.813824 0.348675 0.026665 0.153879
C61   C     C_2   0.035819 0.840264 0.639065 0.877257
O21   O     O_2   0.042764 0.879553 0.756527 -0.562816
O22   O     O_R   0.988479 0.796620 0.680473 -0.644551
H23   H     H_    0.963426 0.802725 0.809546 0.314435
C62   C     C_2   0.964181 0.340265 0.360934 0.877258
O23   O     O_2   0.957235 0.379554 0.243472 -0.562816
O24   O     O_R   0.011521 0.296621 0.319526 -0.644550
H24   H     H_    0.036573 0.302726 0.190453 0.314435
O25   O     O_3   0.093625 0.769065 0.970472 -0.532920
C63   C     C_3   0.140173 0.722887 0.960818 0.099895
H25   H     H_    0.136982 0.696436 0.096180 0.124795
H26   H     H_    0.191565 0.739975 0.935154 0.109087
C64   C     C_3   0.125032 0.682882 0.793383 -0.649254
H27   H     H_    0.128418 0.708007 0.655942 0.218965
H28   H     H_    0.161223 0.646175 0.783474 0.174643
H29   H     H_    0.074222 0.664562 0.815773 0.228713
O26   O     O_3   0.906376 0.269065 0.029530 -0.532921
C65   C     C_3   0.859831 0.222883 0.039169 0.099898
H30   H     H_    0.863031 0.196432 0.903809 0.124798
H31   H     H_    0.808437 0.239968 0.064814 0.109084
C66   C     C_3   0.874969 0.182880 0.206613 -0.649253
H32   H     H_    0.871574 0.208006 0.344054 0.218961
H33   H     H_    0.838782 0.146170 0.216509 0.174644
H34   H     H_    0.925783 0.164564 0.184243 0.228713
C67   C     C_2   0.691217 0.778743 0.170669 0.757368
O27   O     O_2   0.735608 0.753878 0.251738 -0.553423
O28   O     O_R   0.706747 0.823374 0.037379 -0.659470
H35   H     H_    0.756068 0.831770 0.023507 0.308468
C68   C     C_2   0.308783 0.278743 0.829335 0.757368
O29   O     O_2   0.264392 0.253878 0.748266 -0.553424
O30   O     O_R   0.293253 0.323373 0.962626 -0.659470
H36   H     H_    0.243932 0.331769 0.976499 0.308469
C69   C     C_2   0.383943 0.800042 0.127884 0.701195
O31   O     O_2   0.331841 0.821178 0.193621 -0.589401
O32   O     O_R   0.383192 0.757171 0.983764 -0.651353
H37   H     H_    0.336650 0.747445 0.946172 0.289682
C70   C     C_2   0.616057 0.300042 0.872114 0.701195
O33   O     O_2   0.668159 0.321178 0.806377 -0.589400
O34   O     O_R   0.616809 0.257170 0.016233 -0.651353
H38   H     H_    0.663351 0.247444 0.053824 0.289683
C71   C     C_2   0.453715 0.530705 0.366070 0.724757
O35   O     O_2   0.491476 0.492606 0.302046 -0.560457
O36   O     O_R   0.393910 0.514266 0.462445 -0.666143
H39   H     H_    0.387899 0.470111 0.469259 0.300928
C72   C     C_2   0.546285 0.030706 0.633927 0.724757
O37   O     O_2   0.508524 0.992607 0.697953 -0.560457
O38   O     O_R   0.606089 0.014267 0.537550 -0.666143
H40   H     H_    0.612100 0.970112 0.530737 0.300927

loop_
_geom_bond_atom_site_label_1
_geom_bond_atom_site_label_2
_ccdc_geom_bond_type
C49   C53   A    
O38   H40   S    
C21   C35   A    
C53   N3    S    
C72   O38   S    
C9    C25   A    
O13   V3    S    
C4    C37   S    
C70   O33   D    
C11   C31   A    
O4    C2    A    
C66   H34   S    
V1    O19   S    
C65   H30   S    
O32   H37   S    
C21   C29   A    
C64   H27   S    
C19   C21   A    
C44   N2    S    
O9    V1    S    
C40   C42   A    
C12   C32   A    
C22   C36   A    
C70   O34   S    
C42   C44   A    
C18   H6    S    
O3    C1    A    
C44   C46   A    
C64   H28   S    
O12   V4    S    
C69   O31   D    
C10   C34   A    
C12   C34   A    
C67   O28   S    
C17   C19   A    
O7    C3    A    
C24   C32   A    
O5    C7    A    
C51   C55   A    
O7    V1    S    
O6    C8    A    
C54   N4    S    
O8    V2    S    
C62   O24   S    
C1    C12   S    
O3    V1    S    
O14   V4    S    
C2    C11   S    
N1    N3    D    
C52   C56   A    
C63   C64   S    
C25   C27   A    
C31   C69   S    
C2    O12   A    
O17   V3    S    
C13   C15   A    
O30   H36   S    
C14   C16   A    
H2    C34   S    
C54   C60   A    
C24   C26   A    
O11   V3    S    
C18   C20   A    
C43   C45   A    
C57   H17   S    
C11   C33   A    
C26   C28   A    
C22   C30   A    
C67   O27   D    
C41   O25   S    
C38   C40   A    
O8    C4    A    
C55   C57   A    
C45   C47   A    
C28   C68   S    
C30   H10   S    
C64   H29   S    
C19   C23   A    
C1    O11   A    
C47   H15   S    
O15   V3    S    
C9    H3    S    
C5    C55   S    
C23   C25   A    
C15   H7    S    
C6    C56   S    
C15   C17   A    
N2    N4    D    
C46   C62   S    
C71   O35   D    
C43   N1    S    
O10   V2    S    
O1    V3    S    
C61   O22   S    
C68   O30   S    
O25   C63   S    
C58   C60   A    
C20   C22   A    
C41   C43   A    
C52   H12   S    
C53   C59   A    
C8    C36   S    
C46   C48   A    
C32   C70   S    
C10   C26   A    
O15   C5    A    
C17   H5    S    
O16   C6    A    
C16   H8    S    
O1    C3    A    
C39   C41   A    
C66   H32   S    
C65   C66   S    
C14   C36   A    
C60   H20   S    
C63   H25   S    
C63   H26   S    
C37   C39   A    
O22   H23   S    
V2    O20   S    
C69   O32   S    
O16   V4    S    
C61   O21   D    
C49   C51   A    
C10   H4    S    
C48   H16   S    
C50   C54   A    
C50   C52   A    
C66   H33   S    
C65   H31   S    
C40   H22   S    
C68   O29   D    
C39   H21   S    
O26   C65   S    
O5    V1    S    
C3    C38   S    
O17   C7    A    
O6    V2    S    
O28   H35   S    
O10   C6    A    
O18   C8    A    
C57   C59   A    
C45   C61   S    
O2    V4    S    
C50   H14   S    
C27   C29   A    
C13   C71   S    
V3    O19   S    
O34   H38   S    
V4    O20   S    
C51   H11   S    
H1    C33   S    
C27   C67   S    
O9    C5    A    
O13   V1    S    
C28   C30   A    
C14   C72   S    
O14   V2    S    
C71   O36   S    
O2    C4    A    
O4    V2    S    
C20   C24   A    
C23   C31   A    
C56   C58   A    
C9    C33   A    
C49   H13   S    
C58   H18   S    
C72   O37   D    
C42   O26   S    
C13   C35   A    
C7    C35   S    
C59   H19   S    
C29   H9    S    
O36   H39   S    
O24   H24   S    
C16   C18   A    
C38   C48   A    
C62   O23   D    
C37   C47   A    
O18   V4    S    
