data_mof_unit_5534.cif
_audit_creation_date              2012-10-26T19:33:57-0400
_audit_creation_method            fapswitch 2.2
_symmetry_space_group_name_H-M    P1
_symmetry_Int_Tables_number       1
_space_group_crystal_system       triclinic
_cell_length_a                    8.720747
_cell_length_b                    19.446476
_cell_length_c                    18.243946
_cell_angle_alpha                 90.569917
_cell_angle_beta                  99.098791
_cell_angle_gamma                 91.900495
_cell_volume                      3052.97763398

loop_
_atom_site_label
_atom_site_type_symbol
_atom_type_description
_atom_site_fract_x
_atom_site_fract_y
_atom_site_fract_z
_atom_type_partial_charge
C1    C     C_R   0.500084 0.367616 0.499761 0.554729
C2    C     C_R   0.617609 0.535941 0.290279 0.014645
C3    C     C_R   0.371823 0.462796 0.786362 -0.139068
C4    C     C_R   0.628177 0.537204 0.213638 -0.139068
C5    C     C_R   0.482189 0.499528 0.837971 -0.031861
C6    C     C_R   0.517811 0.500472 0.162028 -0.031862
C7    C     C_R   0.601499 0.534893 0.810625 -0.110821
C8    C     C_R   0.398501 0.465106 0.189375 -0.110822
C9    C     C_R   0.611548 0.535516 0.734603 0.402182
C10   C     C_R   0.388452 0.464484 0.265397 0.402184
C11   C     C_R   0.527049 0.560634 0.963526 -0.097884
C12   C     C_R   0.499916 0.632384 0.500239 0.554717
C13   C     C_R   0.472950 0.439366 0.036474 -0.097885
C14   C     C_R   0.544405 0.560490 0.041521 -0.095704
C15   C     C_R   0.455594 0.439510 0.958479 -0.095704
C16   C     C_R   0.203322 0.500053 0.480695 0.559185
C17   C     C_R   0.796677 0.499947 0.519305 0.559159
C18   C     C_R   0.517036 0.499908 0.079352 0.038509
C19   C     C_R   0.482964 0.500092 0.920648 0.038509
C20   C     C_2   0.036691 0.500256 0.470343 -0.156045
C21   C     C_2   0.963308 0.499744 0.529657 -0.156073
C22   C     C_R   0.504887 0.743858 0.434636 -0.131245
C23   C     C_R   0.400366 0.963124 0.539504 -0.111863
C24   C     C_R   0.495123 0.256142 0.565365 -0.131245
C25   C     C_R   0.505370 0.815416 0.434758 -0.119607
C26   C     C_R   0.494640 0.184584 0.565243 -0.119607
C27   C     C_R   0.501261 0.852238 0.500864 0.028286
C28   C     C_R   0.498740 0.147762 0.499136 0.028285
C29   C     C_R   0.496776 0.816417 0.566936 -0.117309
C30   C     C_R   0.503216 0.183583 0.433063 -0.117315
C31   C     C_R   0.496473 0.744776 0.566882 -0.103542
C32   C     C_R   0.503518 0.255223 0.433118 -0.103556
C33   C     C_R   0.500409 0.707916 0.500683 0.018183
C34   C     C_R   0.599636 0.036876 0.460496 -0.111863
C35   C     C_R   0.499591 0.292084 0.499317 0.018180
C36   C     C_R   0.399299 0.034693 0.538809 -0.111008
C37   C     C_R   0.600705 0.965308 0.461192 -0.111007
C38   C     C_R   0.498957 0.072094 0.499317 0.030582
C39   C     C_R   0.501045 0.927906 0.500683 0.030583
C40   C     C_R   0.382391 0.464059 0.709720 0.014646
Cu1   Cu    Cu3+1 0.499960 0.500000 0.573360 1.038999
Cu2   Cu    Cu3+1 0.500040 0.500000 0.426640 1.039007
H1    H     H_    0.974146 0.500944 0.413948 0.169824
H2    H     H_    0.492288 0.283227 0.617268 0.131187
H3    H     H_    0.506921 0.841976 0.382964 0.110642
H4    H     H_    0.493095 0.158024 0.617037 0.110643
H5    H     H_    0.495254 0.843873 0.618744 0.116350
H6    H     H_    0.504731 0.156127 0.381255 0.116350
H7    H     H_    0.493301 0.718362 0.618633 0.164734
H8    H     H_    0.506683 0.281638 0.381365 0.164733
H9    H     H_    0.320868 0.935245 0.569419 0.109502
H10   H     H_    0.679133 0.064755 0.430581 0.109502
H11   H     H_    0.319147 0.060798 0.568310 0.108439
H12   H     H_    0.025853 0.499055 0.586052 0.169817
H13   H     H_    0.680857 0.939202 0.431691 0.108438
H14   H     H_    0.295790 0.435540 0.671179 0.137197
H15   H     H_    0.704209 0.564461 0.328821 0.137194
H16   H     H_    0.277348 0.433795 0.804870 0.127088
H17   H     H_    0.722650 0.566206 0.195130 0.127087
H18   H     H_    0.870087 0.638345 0.630275 0.351141
H19   H     H_    0.129919 0.361613 0.369694 0.351150
H20   H     H_    0.692190 0.560058 0.850056 0.155968
H21   H     H_    0.307810 0.439942 0.149944 0.155970
H22   H     H_    0.548029 0.608599 0.936531 0.119586
H23   H     H_    0.451970 0.391401 0.063469 0.119585
H24   H     H_    0.575263 0.608262 0.072103 0.110497
H25   H     H_    0.424737 0.391738 0.927897 0.110497
H26   H     H_    0.507729 0.716773 0.382734 0.131185
N1    N     N_R   0.499980 0.500020 0.683620 -0.242580
N2    N     N_R   0.500020 0.499980 0.316380 -0.242579
O1    O     O_R   0.499930 0.400180 0.561970 -0.527241
O2    O     O_2   0.901625 0.522598 0.707990 -0.312847
O3    O     O_3   0.763279 0.624827 0.637891 -0.508487
O4    O     O_2   0.098376 0.477401 0.292011 -0.312823
O5    O     O_2   0.146456 0.375634 0.221969 -0.309654
O6    O     O_3   0.236722 0.375172 0.362109 -0.508505
O7    O     O_R   0.500070 0.599820 0.438030 -0.527245
O8    O     O_R   0.500010 0.400190 0.438070 -0.450952
O9    O     O_R   0.499990 0.599810 0.561930 -0.450958
O10   O     O_R   0.274810 0.500000 0.547650 -0.532363
O11   O     O_R   0.725190 0.500000 0.452350 -0.532357
O12   O     O_R   0.274880 0.500000 0.423750 -0.411734
O13   O     O_R   0.725120 0.500000 0.576250 -0.411755
O14   O     O_2   0.853544 0.624367 0.778030 -0.309617
S1    S     S_3+6 0.785953 0.577027 0.714563 0.024399
S2    S     S_3+6 0.214047 0.422974 0.285437 0.024389

loop_
_geom_bond_atom_site_label_1
_geom_bond_atom_site_label_2
_ccdc_geom_bond_type
O6    S2    S    
C27   C29   A    
C34   C37   A    
Cu1   Cu2   S    
C14   C18   A    
Cu2   O12   S    
Cu1   O10   S    
O2    S1    D    
C2    H15   S    
C13   H23   S    
C15   C19   A    
C11   C19   A    
C1    O1    A    
C13   C18   A    
C29   H5    S    
C30   H6    S    
C9    N1    A    
C21   H12   S    
C11   C14   A    
Cu1   O13   S    
C12   O9    A    
H18   O3    S    
Cu2   N2    S    
C36   H11   S    
C9    S1    S    
C22   H26   S    
C27   C39   S    
C40   H14   S    
C22   C25   A    
C31   C33   A    
Cu1   O1    S    
C1    O8    A    
Cu2   O11   S    
C31   H7    S    
H19   O6    S    
C6    C18   S    
C24   C35   A    
C40   N1    A    
C32   C35   A    
O14   S1    D    
C4    C6    A    
C11   H22   S    
C5    C7    A    
C6    C8    A    
C17   C21   S    
C17   O13   A    
C2    C4    A    
C7    H20   S    
O5    S2    D    
C23   H9    S    
C28   C38   S    
C16   C20   S    
C15   H25   S    
C12   O7    A    
C16   O12   A    
C14   H24   S    
O4    S2    D    
C32   H8    S    
C10   N2    A    
C8    C10   A    
C3    C40   A    
Cu2   O8    S    
C13   C15   A    
C24   H2    S    
C25   H3    S    
C20   H1    S    
C1    C35   S    
Cu1   N1    S    
O3    S1    S    
C7    C9    A    
C22   C33   A    
C10   S2    S    
C34   C38   A    
C26   C28   A    
C24   C26   A    
C3    C5    A    
Cu1   O9    S    
C5    C19   S    
C25   C27   A    
C34   H10   S    
C28   C30   A    
C29   C31   A    
C30   C32   A    
C23   C39   A    
C4    H17   S    
C36   C38   A    
C17   O11   A    
C26   H4    S    
C8    H21   S    
C37   H13   S    
C3    H16   S    
C20   C21   D    
Cu2   O7    S    
C37   C39   A    
C23   C36   A    
C16   O10   A    
C12   C33   S    
C2    N2    A    
