data_mof_unit_51268.cif
_audit_creation_date              2012-12-10T20:41:48-0500
_audit_creation_method            fapswitch 2.2
_symmetry_space_group_name_H-M    P1
_symmetry_Int_Tables_number       1
_space_group_crystal_system       triclinic
_cell_length_a                    14.836022
_cell_length_b                    15.476785
_cell_length_c                    9.911614
_cell_angle_alpha                 90.002502
_cell_angle_beta                  87.201322
_cell_angle_gamma                 90.002003
_cell_volume                      2273.13008662

loop_
_atom_site_label
_atom_site_type_symbol
_atom_type_description
_atom_site_fract_x
_atom_site_fract_y
_atom_site_fract_z
_atom_type_partial_charge
C1    C     C_R   0.385303 0.874778 0.500563 0.963939
C2    C     C_R   0.384448 0.124305 0.500736 0.962712
C3    C     C_R   0.884448 0.375693 0.500733 0.962691
C4    C     C_R   0.885307 0.625222 0.500566 0.963974
C5    C     C_3   0.245922 0.194927 0.740037 0.644517
C6    C     C_3   0.273383 0.777290 0.753548 0.642250
C7    C     C_3   0.773337 0.722650 0.753530 0.642108
C8    C     C_3   0.745975 0.305011 0.740075 0.644519
C9    C     C_R   0.426945 0.029136 0.077757 0.232502
C10   C     C_R   0.926930 0.470892 0.077758 0.232525
C11   C     C_R   0.577643 0.987816 0.065091 0.426903
C12   C     C_R   0.077678 0.512082 0.065100 0.426892
C13   C     C_R   0.577187 0.986835 0.921543 -0.159614
C14   C     C_R   0.077229 0.513044 0.921544 -0.159697
C15   C     C_R   0.426303 0.027925 0.935724 0.249188
C16   C     C_R   0.926292 0.472122 0.935724 0.249203
C17   C     C_3   0.334332 0.989008 0.946873 -0.351841
C18   C     C_3   0.834323 0.511026 0.946867 -0.351834
C19   C     C_3   0.333865 0.996867 0.098502 -0.429601
C20   C     C_3   0.833869 0.503199 0.098499 -0.429663
C21   C     C_R   0.623459 0.116386 0.498018 0.908161
C22   C     C_R   0.624228 0.884218 0.497783 0.916029
C23   C     C_R   0.124241 0.615765 0.497785 0.916072
C24   C     C_R   0.123449 0.383602 0.498016 0.908140
C25   C     C_R   0.294367 0.236091 0.620511 0.026355
C26   C     C_R   0.307558 0.750840 0.615815 0.029313
C27   C     C_R   0.807529 0.749137 0.615829 0.029412
C28   C     C_R   0.794404 0.263877 0.620513 0.026317
C29   C     C_R   0.332845 0.203411 0.499844 -0.222842
C30   C     C_R   0.336397 0.793471 0.497374 -0.216451
C31   C     C_R   0.836396 0.706523 0.497387 -0.216458
C32   C     C_R   0.832856 0.296576 0.499839 -0.222839
C33   C     C_R   0.320871 0.251004 0.378851 0.396264
C34   C     C_R   0.318146 0.751969 0.373360 0.388911
C35   C     C_R   0.818164 0.748033 0.373379 0.388876
C36   C     C_R   0.820876 0.248983 0.378841 0.396265
C37   C     C_R   0.748621 0.808463 0.372038 -0.161379
C38   C     C_R   0.753293 0.186530 0.377719 -0.175237
C39   C     C_R   0.253281 0.313450 0.377728 -0.175219
C40   C     C_R   0.248624 0.691514 0.372030 -0.161359
C41   C     C_R   0.705596 0.834420 0.494039 -0.141773
C42   C     C_R   0.702284 0.169029 0.496697 -0.145624
C43   C     C_R   0.202253 0.330933 0.496690 -0.145637
C44   C     C_R   0.205624 0.665540 0.494038 -0.141752
C45   C     C_R   0.746444 0.815114 0.613303 0.006577
C46   C     C_R   0.731374 0.199706 0.618535 0.011139
C47   C     C_R   0.231316 0.300237 0.618519 0.011097
C48   C     C_R   0.246496 0.684838 0.613291 0.006560
C49   C     C_3   0.708026 0.797701 0.752005 -0.422817
C50   C     C_3   0.677617 0.232620 0.738302 -0.416835
C51   C     C_3   0.177532 0.267278 0.738226 -0.416828
C52   C     C_3   0.208117 0.702201 0.752038 -0.422870
H1    H     H_    0.287414 0.047759 0.139875 0.252612
H2    H     H_    0.328997 0.934073 0.151610 0.263775
H3    H     H_    0.829053 0.566012 0.151587 0.263791
H4    H     H_    0.787397 0.452325 0.139904 0.252579
H5    H     H_    0.726442 0.831488 0.276312 0.247371
H6    H     H_    0.738196 0.155235 0.283681 0.235920
H7    H     H_    0.238201 0.344752 0.283699 0.235972
H8    H     H_    0.226426 0.668487 0.276309 0.247330
H9    H     H_    0.723768 0.850499 0.822963 0.224485
H10   H     H_    0.679511 0.187254 0.825125 0.230990
H11   H     H_    0.179359 0.312633 0.825071 0.231002
H12   H     H_    0.223915 0.649399 0.822945 0.224499
H13   H     H_    0.635678 0.778576 0.754548 0.241077
H14   H     H_    0.608576 0.253411 0.713472 0.223385
H15   H     H_    0.108519 0.246451 0.713304 0.223355
H16   H     H_    0.135760 0.721290 0.754670 0.241102
H17   H     H_    0.639280 0.976586 0.862203 0.179274
H18   H     H_    0.139347 0.523218 0.862207 0.179275
H19   H     H_    0.281185 0.028074 0.903611 0.298984
H20   H     H_    0.337250 0.921887 0.914395 0.275316
H21   H     H_    0.837210 0.578136 0.914371 0.275332
H22   H     H_    0.781179 0.471924 0.903614 0.298966
N1    N     N_R   0.499140 0.000000 0.142800 -0.139056
N2    N     N_R   0.999140 0.500000 0.142800 -0.139065
N3    N     N_R   0.499160 0.000000 0.857150 -0.136172
N4    N     N_R   0.999160 0.500000 0.857150 -0.136107
O1    O     O_R   0.408400 0.908380 0.614690 -0.575457
O2    O     O_R   0.408400 0.091620 0.614690 -0.580427
O3    O     O_R   0.908400 0.408380 0.614690 -0.580421
O4    O     O_R   0.908400 0.591620 0.614690 -0.575453
O5    O     O_R   0.408370 0.908370 0.385350 -0.593188
O6    O     O_R   0.408370 0.091630 0.385350 -0.583575
O7    O     O_R   0.908370 0.408370 0.385350 -0.583567
O8    O     O_R   0.908370 0.591630 0.385350 -0.593228
O9    O     O_R   0.591610 0.091610 0.614650 -0.630692
O10   O     O_R   0.591610 0.908390 0.614650 -0.635632
O11   O     O_R   0.091610 0.591610 0.614650 -0.635616
O12   O     O_R   0.091610 0.408390 0.614650 -0.630699
O13   O     O_R   0.591590 0.091600 0.385310 -0.585120
O14   O     O_R   0.591590 0.908400 0.385310 -0.576610
O15   O     O_R   0.091590 0.591600 0.385310 -0.576638
O16   O     O_R   0.091590 0.408400 0.385310 -0.585090
Zn1   Zn    Zn3+2 0.500010 0.000000 0.653130 1.022651
Zn2   Zn    Zn3+2 0.000010 0.500000 0.653130 1.022670
Zn3   Zn    Zn3+2 0.499980 0.000000 0.346870 1.072523
Zn4   Zn    Zn3+2 0.999980 0.500000 0.346870 1.072517
Cl1   Cl    Cl    0.384505 0.234834 0.225814 -0.499460
Cl2   Cl    Cl    0.379000 0.770131 0.218825 -0.498156
Cl3   Cl    Cl    0.879089 0.729928 0.218879 -0.498106
Cl4   Cl    Cl    0.884499 0.265163 0.225798 -0.499430
Cl5   Cl    Cl    0.310471 0.199457 0.886807 -0.548368
Cl6   Cl    Cl    0.357496 0.762046 0.874266 -0.512011
Cl7   Cl    Cl    0.857428 0.737953 0.874293 -0.511982
Cl8   Cl    Cl    0.810570 0.300510 0.886802 -0.548344
Cl9   Cl    Cl    0.196333 0.092966 0.702779 -0.532402
Cl10  Cl    Cl    0.213240 0.877303 0.755015 -0.532353
Cl11  Cl    Cl    0.713249 0.622594 0.754915 -0.532439
Cl12  Cl    Cl    0.696320 0.406945 0.702855 -0.532376
Cl13  Cl    Cl    0.681731 0.979496 0.139667 -0.570384
Cl14  Cl    Cl    0.181768 0.520355 0.139720 -0.570371

loop_
_geom_bond_atom_site_label_1
_geom_bond_atom_site_label_2
_ccdc_geom_bond_type
C21   O9    A    
C40   H8    S    
C3    O7    A    
C2    O6    A    
C20   H4    S    
C5    Cl5   S    
C6    C26   S    
C28   C46   A    
C33   C39   A    
C49   H13   S    
C2    C29   S    
C34   C40   A    
O6    Zn3   S    
C32   C36   A    
C35   C37   A    
O4    Zn2   S    
C38   C42   A    
C8    Cl12  S    
C5    Cl9   S    
C22   C41   S    
C4    O8    A    
O16   Zn4   S    
N2    Zn4   S    
C29   C33   A    
N1    Zn3   S    
C7    C27   S    
C36   Cl4   S    
C42   C46   A    
O7    Zn4   S    
C38   H6    S    
C10   N2    A    
C9    C19   S    
C10   C20   S    
O9    Zn1   S    
C3    O3    A    
C34   Cl2   S    
C23   O11   A    
C6    Cl6   S    
C25   C47   A    
C40   C44   A    
C18   C20   S    
C52   H16   S    
C26   C48   A    
C27   C45   A    
O10   Zn1   S    
C18   H22   S    
C14   H18   S    
C20   H3    S    
O14   Zn3   S    
C25   C29   A    
C13   N3    A    
C49   H9    S    
C30   C34   A    
C27   C31   A    
C28   C32   A    
C51   H11   S    
C7    C49   S    
C52   H12   S    
N4    Zn2   S    
O3    Zn2   S    
C39   C43   A    
C11   Cl13  S    
N3    Zn1   S    
C23   C44   S    
C23   O15   A    
C24   O12   A    
C33   Cl1   S    
O1    Zn1   S    
C24   O16   A    
C45   C49   S    
C39   H7    S    
C7    Cl7   S    
C51   H15   S    
O13   Zn3   S    
O2    Zn1   S    
C50   H14   S    
C17   H20   S    
C5    C25   S    
C19   H2    S    
C12   C14   A    
C17   H19   S    
C18   H21   S    
C22   O10   A    
C12   N2    A    
C50   H10   S    
C31   C35   A    
C8    C50   S    
C12   Cl14  S    
C21   O13   A    
C15   C17   S    
C41   C45   A    
C22   O14   A    
C35   Cl3   S    
C8    Cl8   S    
C47   C51   S    
O12   Zn2   S    
C1    O5    A    
C46   C50   S    
O11   Zn2   S    
C36   C38   A    
C9    C15   A    
C10   C16   A    
C11   C13   A    
C19   H1    S    
C15   N3    A    
C13   H17   S    
C1    O1    A    
C1    C30   S    
C17   C19   S    
C16   N4    A    
C14   N4    A    
C37   C41   A    
C3    C32   S    
O8    Zn4   S    
C4    C31   S    
C2    O2    A    
C21   C42   S    
C7    Cl11  S    
C48   C52   S    
C4    O4    A    
C8    C28   S    
C16   C18   S    
O5    Zn3   S    
C24   C43   S    
C6    Cl10  S    
C5    C51   S    
C11   N1    A    
C9    N1    A    
C6    C52   S    
C43   C47   A    
O15   Zn4   S    
C37   H5    S    
C44   C48   A    
C26   C30   A    
