data_mof_unit_57637.cif
_audit_creation_date              2013-03-05T15:55:19-0500
_audit_creation_method            fapswitch 2.2
_symmetry_space_group_name_H-M    P1
_symmetry_Int_Tables_number       1
_space_group_crystal_system       triclinic
_cell_length_a                    14.704086
_cell_length_b                    14.703013
_cell_length_c                    33.245872
_cell_angle_alpha                 96.177038
_cell_angle_beta                  96.305666
_cell_angle_gamma                 61.333424
_cell_volume                      6255.96988839

loop_
_atom_site_label
_atom_site_type_symbol
_atom_site_description
_atom_site_fract_x
_atom_site_fract_y
_atom_site_fract_z
_atom_type_partial_charge
O1    O     O_R   0.679450 0.499830 0.463150 -0.512011
O2    O     O_R   0.480650 0.664000 0.464630 -0.521683
C1    C     C_R   0.389775 0.701993 0.446462 0.848367
O3    O     O_R   0.323930 0.675950 0.455370 -0.510663
O4    O     O_R   0.354700 0.475360 0.451930 -0.528443
C2    C     C_R   0.405592 0.385900 0.434084 0.757438
O5    O     O_R   0.494470 0.320860 0.448390 -0.566325
O6    O     O_R   0.662580 0.357570 0.460050 -0.546632
C3    C     C_R   0.654092 0.434750 0.441704 0.804091
O7    O     O_R   0.680900 0.502040 0.551870 -0.527644
O8    O     O_R   0.481990 0.666040 0.546870 -0.499765
C4    C     C_R   0.392840 0.702872 0.561083 0.847542
O9    O     O_R   0.325370 0.678160 0.544080 -0.547757
O10   O     O_R   0.356040 0.477400 0.534170 -0.548632
C5    C     C_R   0.406784 0.388514 0.548905 0.843685
O11   O     O_R   0.495910 0.323070 0.537100 -0.513023
O12   O     O_R   0.663920 0.359620 0.542290 -0.533814
C6    C     C_R   0.701874 0.413406 0.562667 0.819637
Cr1   Cr    Cr6+3 0.576280 0.580550 0.506370 1.086742
Cr2   Cr    Cr6+3 0.346780 0.572400 0.496520 0.998894
Cr3   Cr    Cr6+3 0.576960 0.347070 0.497150 0.964188
O13   O     O_3   0.500010 0.500010 0.500010 -0.380269
H1    H     H_    0.473089 0.205357 0.181360 0.203938
C7    C     C_R   0.370838 0.367391 0.392160 -0.167227
C8    C     C_R   0.313115 0.454397 0.369030 -0.164862
C9    C     C_R   0.295270 0.442450 0.327472 -0.116733
C10   C     C_R   0.333925 0.343421 0.308205 -0.009184
C11   C     C_R   0.385926 0.254737 0.330940 0.253378
C12   C     C_R   0.404382 0.266380 0.373064 0.208000
C13   C     C_R   0.400710 0.252997 0.164508 -0.148841
C14   C     C_R   0.393799 0.242246 0.122115 0.354074
C15   C     C_R   0.214787 0.383513 0.121820 0.328746
C16   C     C_R   0.224201 0.392381 0.164192 -0.140155
C17   C     C_R   0.314951 0.324540 0.185295 -0.041266
C18   C     C_1   0.320783 0.329898 0.228547 0.080981
C19   C     C_1   0.325931 0.334877 0.264867 0.005440
C20   C     C_R   0.296671 0.300904 0.100503 -0.291824
H2    H     H_    0.287045 0.532383 0.382669 0.195085
H3    H     H_    0.160395 0.452219 0.180774 0.199924
H4    H     H_    0.254981 0.510870 0.310074 0.176534
N1    N     N_R   0.678377 0.444997 0.206094 -0.191791
N2    N     N_R   0.654092 0.458104 0.244512 -0.247245
C21   C     C_R   0.673656 0.414728 0.397933 -0.159828
C22   C     C_R   0.653186 0.499622 0.375971 -0.181209
C23   C     C_R   0.659014 0.488911 0.334040 -0.155782
C24   C     C_R   0.684441 0.393018 0.312850 -0.152198
C25   C     C_R   0.701604 0.307470 0.334049 0.408273
C26   C     C_R   0.699562 0.316824 0.376431 0.099649
N3    N     N_R   0.780382 0.287008 0.254923 -0.189447
N4    N     N_R   0.804511 0.273900 0.216701 -0.238154
C27   C     C_R   0.754653 0.352696 0.191657 0.570557
C28   C     C_R   0.704969 0.379078 0.269637 0.570905
C29   C     C_R   0.804709 0.414942 0.134391 0.379092
C30   C     C_R   0.853367 0.390819 0.098108 -0.196445
C31   C     C_R   0.871562 0.216791 0.093402 0.194377
C32   C     C_R   0.821025 0.241555 0.129511 -0.152059
C33   C     C_R   0.790451 0.338486 0.150794 -0.147123
C34   C     C_R   0.892428 0.290825 0.078504 -0.140818
H5    H     H_    0.631530 0.575200 0.391328 0.185030
H6    H     H_    0.867018 0.449278 0.086761 0.230205
H7    H     H_    0.645661 0.555406 0.318245 0.184326
H8    H     H_    0.808109 0.183673 0.141831 0.184675
N5    N     N_R   0.350875 0.734027 0.216883 -0.194149
N6    N     N_R   0.354473 0.725617 0.256517 -0.255854
C35   C     C_R   0.368201 0.758800 0.409136 -0.269636
C36   C     C_R   0.283847 0.768406 0.381300 0.330899
C37   C     C_R   0.288988 0.776750 0.340284 -0.179698
C38   C     C_R   0.370839 0.785695 0.326975 -0.108521
C39   C     C_R   0.444510 0.794208 0.355197 -0.192781
C40   C     C_R   0.443512 0.782202 0.396443 0.316146
N7    N     N_R   0.393923 0.862701 0.269672 -0.239472
N8    N     N_R   0.388915 0.871948 0.230007 -0.207818
C41   C     C_R   0.366615 0.808285 0.202834 0.661444
C42   C     C_R   0.375453 0.790159 0.283556 0.554192
C43   C     C_R   0.271041 0.817870 0.134722 0.261188
C44   C     C_R   0.247945 0.849685 0.094806 0.263722
C45   C     C_R   0.396651 0.883144 0.101244 0.077412
C46   C     C_R   0.418645 0.852828 0.141601 0.332867
C47   C     C_R   0.352923 0.824794 0.158960 -0.309908
C48   C     C_R   0.304399 0.892197 0.079324 -0.294384
H9    H     H_    0.227362 0.778785 0.318646 0.204273
H10   H     H_    0.504031 0.807995 0.344949 0.204380
N9    N     N_R   0.258653 0.429204 0.766889 -0.266695
N10   N     N_R   0.264062 0.434143 0.727541 -0.231094
C49   C     C_R   0.366078 0.367798 0.583722 -0.121068
C50   C     C_R   0.276629 0.448871 0.600421 -0.237291
C51   C     C_R   0.245857 0.441470 0.637707 0.181783
C52   C     C_R   0.305883 0.351278 0.659053 -0.144326
C53   C     C_R   0.390943 0.265471 0.640935 0.319275
C54   C     C_R   0.420286 0.273412 0.603062 0.094623
N11   N     N_R   0.297535 0.261630 0.715676 -0.213863
N12   N     N_R   0.292982 0.256380 0.754975 -0.266382
C55   C     C_R   0.275127 0.339413 0.781354 0.531085
C56   C     C_R   0.285120 0.349962 0.701317 0.587619
C57   C     C_R   0.221023 0.411404 0.851562 -0.184357
C58   C     C_R   0.222822 0.396390 0.892820 0.367893
C59   C     C_R   0.354234 0.216318 0.880626 -0.187215
C60   C     C_R   0.351040 0.232112 0.840130 -0.110454
C61   C     C_R   0.281995 0.328319 0.824991 -0.040816
C62   C     C_R   0.286656 0.295756 0.907007 -0.156421
H11   H     H_    0.232538 0.520613 0.585263 0.160702
H12   H     H_    0.170436 0.487028 0.839989 0.186672
H13   H     H_    0.404799 0.138712 0.890413 0.166187
H14   H     H_    0.401062 0.167736 0.820333 0.166085
H15   H     H_    0.890936 0.149481 0.802004 0.204966
H16   H     H_    0.754467 0.232791 0.596013 0.188644
C63   C     C_R   0.757801 0.378861 0.602430 -0.127119
C64   C     C_R   0.783740 0.445244 0.628865 -0.128213
C65   C     C_R   0.817107 0.422103 0.669137 -0.183294
C66   C     C_R   0.825897 0.332083 0.683609 -0.015555
C67   C     C_R   0.807289 0.260503 0.656784 0.406641
C68   C     C_R   0.772887 0.285248 0.616338 -0.220220
C69   C     C_R   0.886293 0.214415 0.822163 -0.151549
C70   C     C_R   0.902778 0.204701 0.864197 0.320122
C71   C     C_R   0.865082 0.386480 0.873758 0.348490
C72   C     C_R   0.849081 0.393652 0.831618 -0.202481
C73   C     C_R   0.863611 0.307075 0.805952 -0.035022
C74   C     C_1   0.852239 0.314412 0.762807 0.075549
C75   C     C_1   0.841943 0.321412 0.726676 0.069000
C76   C     C_R   0.901842 0.288510 0.890317 -0.283854
H17   H     H_    0.772772 0.517985 0.619099 0.186058
H18   H     H_    0.824987 0.467170 0.818770 0.177582
H19   H     H_    0.831290 0.477250 0.689570 0.155392
H20   H     H_    0.423749 0.943364 0.892794 0.152114
H21   H     H_    0.461151 0.891878 0.821661 0.141553
H22   H     H_    0.493320 0.830808 0.683426 0.185036
C77   C     C_R   0.373852 0.757647 0.601913 -0.177544
C78   C     C_R   0.291197 0.763891 0.621962 -0.186801
C79   C     C_R   0.284225 0.789294 0.663358 -0.098921
C80   C     C_R   0.359182 0.809464 0.685610 0.038888
C81   C     C_R   0.437619 0.811295 0.665990 -0.151613
C82   C     C_R   0.444812 0.787496 0.623937 0.369151
C83   C     C_R   0.398768 0.885192 0.833333 -0.106759
C84   C     C_R   0.377371 0.914098 0.873937 -0.147220
C85   C     C_R   0.234357 0.873772 0.863569 -0.088898
C86   C     C_R   0.256057 0.844729 0.822929 -0.099289
C87   C     C_R   0.336377 0.853239 0.807581 0.096483
C88   C     C_1   0.349212 0.836959 0.764882 -0.011268
C89   C     C_1   0.355889 0.825039 0.728804 0.024031
C90   C     C_R   0.292559 0.912212 0.889115 -0.071384
H23   H     H_    0.234803 0.742858 0.606216 0.171329
H24   H     H_    0.207585 0.819657 0.803121 0.151619
H25   H     H_    0.169185 0.870756 0.874456 0.202048
H26   H     H_    0.222440 0.789066 0.678317 0.154933
O14   O     O_R   0.170070 0.978950 0.027680 -0.498202
O15   O     O_R   0.001760 0.175230 0.026640 -0.517673
C91   C     C_R   0.961456 0.265297 0.045113 0.821870
O16   O     O_R   0.984760 0.333570 0.037150 -0.525755
O17   O     O_R   0.183410 0.309240 0.041890 -0.506181
C92   C     C_R   0.274322 0.261715 0.059435 0.882379
O18   O     O_R   0.340240 0.172500 0.045430 -0.502198
O19   O     O_R   0.309670 0.000990 0.032050 -0.524121
C93   C     C_R   0.260856 0.957123 0.043409 0.884157
O20   O     O_R   0.168330 0.982130 0.939200 -0.514178
O21   O     O_R   0.000140 0.178170 0.944610 -0.510436
C94   C     C_R   0.959583 0.268673 0.931081 0.847887
O22   O     O_R   0.983010 0.336750 0.948660 -0.502824
O23   O     O_R   0.181800 0.312190 0.959860 -0.505615
C95   C     C_R   0.270856 0.263799 0.945123 0.844337
O24   O     O_R   0.338500 0.175680 0.956950 -0.546107
O25   O     O_R   0.308050 0.003930 0.950020 -0.548958
C96   C     C_R   0.256489 0.964520 0.929025 0.778595
Cr4   Cr    Cr6+3 0.087320 0.083240 0.984860 1.095784
Cr5   Cr    Cr6+3 0.087720 0.316210 0.996740 1.137837
Cr6   Cr    Cr6+3 0.317350 0.090340 0.995890 1.024763
O26   O     O_3   0.164130 0.163270 0.992500 -0.383200
N13   N     N_R   0.485792 0.172591 0.101588 0.139921
O27   O     O_R   0.506844 0.200776 0.069529 -0.336689
O28   O     O_R   0.556298 0.088803 0.118229 -0.314430
N14   N     N_3   0.724087 0.225096 0.396307 -0.555435
H27   H     H_    0.658020 0.233546 0.408609 0.258612
H28   H     H_    0.784547 0.211057 0.418561 0.274448
N15   N     N_R   0.716259 0.211723 0.312462 0.136728
O29   O     O_R   0.648911 0.212177 0.283489 -0.362438
O30   O     O_R   0.794824 0.123710 0.322446 -0.284482
N16   N     N_R   0.779718 0.513587 0.155643 0.154936
O31   O     O_R   0.741057 0.596653 0.135420 -0.293883
O32   O     O_R   0.815638 0.517380 0.192996 -0.311734
N17   N     N_3   0.904209 0.116085 0.072774 -0.549536
H29   H     H_    0.858157 0.126571 0.045612 0.262551
H30   H     H_    0.889297 0.068861 0.089456 0.289116
N18   N     N_R   0.192026 0.771624 0.394122 0.132269
O33   O     O_R   0.148264 0.830473 0.425854 -0.318433
O34   O     O_R   0.141314 0.732761 0.370241 -0.353472
N19   N     N_R   0.518103 0.795130 0.424943 0.127076
O35   O     O_R   0.608088 0.775012 0.413495 -0.344242
O36   O     O_R   0.490588 0.841889 0.460462 -0.316140
N20   N     N_R   0.166216 0.839410 0.070293 0.187250
O37   O     O_R   0.185490 0.786728 0.035411 -0.300115
O38   O     O_R   0.073996 0.877989 0.083505 -0.287679
N21   N     N_R   0.207285 0.783399 0.151047 0.177910
O39   O     O_R   0.204653 0.699599 0.135429 -0.274931
O40   O     O_R   0.143803 0.841416 0.178588 -0.312337
N22   N     N_3   0.467536 0.903681 0.081885 -0.531082
H31   H     H_    0.492589 0.850690 0.056739 0.246609
H32   H     H_    0.535023 0.888730 0.100067 0.318159
N23   N     N_R   0.506524 0.852616 0.165307 0.140320
O41   O     O_R   0.575802 0.769041 0.182401 -0.280690
O42   O     O_R   0.511573 0.938760 0.173301 -0.318335
N24   N     N_3   0.508344 0.187501 0.585285 -0.577155
H33   H     H_    0.493513 0.124341 0.579898 0.299581
H34   H     H_    0.573222 0.167348 0.605815 0.299609
N25   N     N_R   0.160180 0.482962 0.919542 0.135627
O43   O     O_R   0.075491 0.560342 0.905390 -0.301464
O44   O     O_R   0.194362 0.491425 0.956818 -0.310950
N26   N     N_3   0.155204 0.526504 0.654598 -0.606873
H35   H     H_    0.122578 0.589211 0.636049 0.244205
H36   H     H_    0.099775 0.501343 0.654911 0.240334
N27   N     N_R   0.454083 0.173504 0.662394 0.118262
O45   O     O_R   0.456983 0.085775 0.648973 -0.329016
O46   O     O_R   0.513634 0.176116 0.693985 -0.324665
N28   N     N_3   0.423617 0.152307 0.311599 -0.557418
H37   H     H_    0.475859 0.142509 0.290501 0.279284
H38   H     H_    0.360710 0.146612 0.295923 0.246815
N29   N     N_R   0.918851 0.110165 0.879660 0.127529
O47   O     O_R   0.968445 0.021930 0.859097 -0.367049
O48   O     O_R   0.866974 0.114379 0.909730 -0.329621
N30   N     N_R   0.818882 0.165250 0.670249 0.111469
O49   O     O_R   0.769292 0.119190 0.650508 -0.340203
O50   O     O_R   0.885709 0.118999 0.699953 -0.356726
N31   N     N_R   0.842440 0.479320 0.899208 0.146383
O51   O     O_R   0.856024 0.552661 0.886788 -0.315472
O52   O     O_R   0.793358 0.497650 0.931857 -0.331229
N32   N     N_3   0.457176 0.174863 0.395524 -0.560928
H39   H     H_    0.531562 0.163632 0.405315 0.267784
H40   H     H_    0.415681 0.185241 0.420729 0.245626
N33   N     N_R   0.523449 0.794464 0.604363 0.124759
O53   O     O_R   0.612860 0.772448 0.623595 -0.348420
O54   O     O_R   0.500286 0.838574 0.570130 -0.315066
N34   N     N_R   0.122278 0.458945 0.101143 0.152751
O55   O     O_R   0.032885 0.496134 0.116715 -0.328486
O56   O     O_R   0.129767 0.503893 0.070940 -0.275048

loop_
_geom_bond_atom_site_label_1
_geom_bond_atom_site_label_2
_geom_bond_distance
_ccdc_geom_bond_type
O6    C3    1.292929 A    
C12   N32   1.434389 S    
N22   H32   1.042109 S    
C31   C32   1.402958 A    
C83   C87   1.396336 A    
Cr6   O26   1.972501 S    
C57   C58   1.408019 A    
N1    N2    1.333109 A    
C91   O16   1.265818 A    
C64   H17   1.083062 S    
C45   N22   1.443223 S    
N32   H39   1.043856 S    
O19   Cr6   1.922459 S    
N19   O35   1.301512 A    
O15   Cr4   1.920545 S    
C48   C93   1.495944 S    
N13   O28   1.301483 A    
C4    C77   1.483723 S    
C30   H6    1.083202 S    
C45   C46   1.413697 A    
C72   C73   1.392656 A    
N25   O44   1.301496 A    
O8    Cr1   1.920673 S    
C9    C10   1.392343 A    
C16   H3    1.084192 S    
C72   H18   1.084017 S    
N9    N10   1.331060 A    
H15   C69   1.084061 S    
C11   C12   1.404895 A    
O15   C91   1.278288 A    
O2    C1    1.281236 A    
N29   O48   1.301511 A    
C49   C50   1.404572 A    
C13   C14   1.399181 A    
C57   C61   1.402652 A    
N19   O36   1.301617 A    
C54   N24   1.435153 S    
N14   H27   1.042566 S    
C22   H5    1.082130 S    
C38   C42   1.462464 S    
C5    O11   1.272495 A    
N9    C55   1.355392 A    
C24   C28   1.472973 S    
C76   C94   1.495763 S    
C64   C65   1.393811 A    
N20   O38   1.301033 A    
C17   C18   1.426992 S    
C63   C68   1.406756 A    
N23   O42   1.301457 A    
N33   O53   1.301384 A    
C74   C75   1.203381 T    
N12   C55   1.356882 A    
C86   H24   1.083642 S    
C39   H10   1.083396 S    
C40   N19   1.438684 S    
C6    C63   1.478761 S    
C67   C68   1.405603 A    
C29   C30   1.395283 A    
N24   H33   1.044956 S    
C63   C64   1.403374 A    
C27   C33   1.468604 S    
C67   N30   1.442202 S    
C21   C26   1.428468 A    
C20   C92   1.489274 S    
C71   C76   1.424222 A    
C44   N20   1.436574 S    
C57   H12   1.083206 S    
O23   Cr5   1.923293 S    
C5    C49   1.481167 S    
O14   C93   1.276801 A    
N16   O32   1.301348 A    
C36   C37   1.395637 A    
C36   N18   1.437922 S    
N28   H37   1.045599 S    
Cr3   O13   1.970373 S    
C78   C79   1.388424 A    
O25   C96   1.271208 A    
N23   O41   1.301062 A    
C80   C89   1.432049 S    
C71   N31   1.437836 S    
C59   C60   1.382628 A    
C2    O5    1.269218 A    
C52   C56   1.474333 S    
N15   O30   1.301250 A    
C85   C90   1.405082 A    
C1    C35   1.490152 S    
C15   N34   1.436712 S    
C3    C21   1.485108 S    
O1    Cr1   2.039364 S    
C13   C17   1.391610 A    
N5    N6    1.329567 A    
C37   C38   1.393907 A    
O16   Cr5   2.040657 S    
C25   C26   1.403140 A    
O10   Cr2   1.921630 S    
O20   Cr4   2.036138 S    
C85   C86   1.396228 A    
Cr4   O26   1.967841 S    
O1    C3    1.303860 A    
C7    C8    1.405263 A    
N27   O45   1.300871 A    
C82   N33   1.436734 S    
N13   O27   1.301589 A    
C79   H26   1.084077 S    
C29   C33   1.410041 A    
N26   H35   1.045695 S    
C38   C39   1.396801 A    
H16   C68   1.083004 S    
N5    C41   1.356366 A    
O21   Cr4   1.921082 S    
C8    C9    1.386014 A    
N15   O29   1.301539 A    
N34   O55   1.301448 A    
O12   Cr3   1.914798 S    
N21   O39   1.301106 A    
N32   H40   1.045575 S    
N20   O37   1.301325 A    
C18   C19   1.198039 T    
O23   C95   1.277913 A    
C43   N21   1.434256 S    
C43   C44   1.406189 A    
N21   O40   1.301190 A    
C51   N26   1.438651 S    
N31   O51   1.301461 A    
H1    C13   1.084177 S    
C78   H23   1.083100 S    
C8    H2    1.082544 S    
C34   C91   1.481811 S    
C15   C20   1.423487 A    
N30   O50   1.301330 A    
C95   O24   1.268811 A    
O10   C5    1.275384 A    
O7    Cr1   2.036687 S    
O8    C4    1.278601 A    
N3    C28   1.355683 A    
C2    C7    1.474186 S    
Cr1   O13   1.967966 S    
O12   C6    1.273135 A    
C41   C47   1.480490 S    
N4    C27   1.353336 A    
O17   Cr5   1.916828 S    
N10   C56   1.359162 A    
O24   Cr6   2.039482 S    
C4    O9    1.270526 A    
N34   O56   1.301556 A    
C77   C82   1.421198 A    
O22   Cr5   2.033225 S    
C59   H13   1.083264 S    
C69   C73   1.392970 A    
N16   O31   1.301318 A    
C46   N23   1.436612 S    
C14   N13   1.437901 S    
N28   H38   1.045589 S    
N3    N4    1.326070 A    
C21   C22   1.403240 A    
O25   Cr6   1.913726 S    
C83   C84   1.394068 A    
C26   N14   1.434730 S    
C23   C24   1.400821 A    
C43   C47   1.412838 A    
C32   C33   1.404298 A    
C1    O3    1.270744 A    
C53   C54   1.408709 A    
N11   N12   1.327916 A    
C59   C62   1.406515 A    
C22   C23   1.393405 A    
C50   C51   1.397383 A    
C58   N25   1.438527 S    
C69   C70   1.402633 A    
C30   C34   1.407850 A    
C45   C48   1.421030 A    
H21   C83   1.083781 S    
C55   C61   1.464368 S    
C24   C25   1.410554 A    
C94   O22   1.273885 A    
O9    Cr2   2.031689 S    
N33   O54   1.301441 A    
O2    Cr1   1.921161 S    
C46   C47   1.411648 A    
C31   N17   1.437020 S    
C70   N29   1.436675 S    
O20   C96   1.271742 A    
C65   H19   1.083951 S    
C44   C48   1.416198 A    
Cr2   O13   1.972600 S    
N8    C41   1.359127 A    
C81   C82   1.407106 A    
O6    Cr3   1.923205 S    
C66   C75   1.438397 S    
N7    C42   1.354912 A    
C53   N27   1.434218 S    
C49   C54   1.411668 A    
C66   C67   1.413690 A    
O11   Cr3   2.039827 S    
C37   H9    1.083945 S    
C77   C78   1.409820 A    
C10   C19   1.429542 S    
C11   N28   1.434508 S    
O14   Cr4   2.039015 S    
C87   C88   1.431944 S    
C73   C74   1.435405 S    
H20   C84   1.082956 S    
C15   C16   1.398428 A    
Cr5   O26   1.970122 S    
C80   C81   1.398317 A    
C79   C80   1.391861 A    
N7    N8    1.330624 A    
N31   O52   1.301609 A    
O5    Cr3   2.032167 S    
O17   C92   1.278958 A    
N11   C56   1.354554 A    
C84   C90   1.408916 A    
C50   H11   1.083247 S    
C62   C95   1.475824 S    
C9    H4    1.084270 S    
N30   O49   1.301566 A    
O4    C2    1.275675 A    
N14   H28   1.045293 S    
H22   C81   1.083753 S    
O7    C6    1.270043 A    
C60   H14   1.083702 S    
C58   C62   1.418887 A    
C23   H7    1.083409 S    
C85   H25   1.082458 S    
N27   O46   1.301084 A    
C16   C17   1.391295 A    
N22   H31   1.045838 S    
C32   H8    1.084088 S    
C35   C36   1.422222 A    
N29   O47   1.301212 A    
C39   C40   1.403797 A    
O4    Cr2   1.915780 S    
N18   O34   1.301544 A    
C88   C89   1.201312 T    
N17   H29   1.045571 S    
O3    Cr2   2.039361 S    
C14   C20   1.423363 A    
C7    C12   1.419546 A    
O18   Cr6   2.031088 S    
C52   C53   1.416636 A    
C51   C52   1.408238 A    
N24   H34   1.045472 S    
C60   C61   1.395740 A    
C31   C34   1.412135 A    
O21   C94   1.279511 A    
N6    C42   1.356515 A    
C92   O18   1.274667 A    
C86   C87   1.399562 A    
N17   H30   1.045662 S    
O19   C93   1.276686 A    
C25   N15   1.438361 S    
N25   O43   1.301411 A    
C71   C72   1.401716 A    
C35   C40   1.422061 A    
C65   C66   1.399720 A    
N26   H36   1.045563 S    
C90   C96   1.475436 S    
N1    C27   1.359323 A    
C70   C76   1.424349 A    
N18   O33   1.301596 A    
C29   N16   1.436307 S    
N2    C28   1.358333 A    
C10   C11   1.408808 A    
