data_mof_unit_27064.cif
_audit_creation_date              2012-12-10T18:42:29-0500
_audit_creation_method            fapswitch 2.2
_symmetry_space_group_name_H-M    P1
_symmetry_Int_Tables_number       1
_space_group_crystal_system       triclinic
_cell_length_a                    8.66355
_cell_length_b                    10.716829
_cell_length_c                    9.837678
_cell_angle_alpha                 89.974827
_cell_angle_beta                  98.332514
_cell_angle_gamma                 90.080703
_cell_volume                      903.744027118

loop_
_atom_site_label
_atom_site_type_symbol
_atom_type_description
_atom_site_fract_x
_atom_site_fract_y
_atom_site_fract_z
_atom_type_partial_charge
C1    C     C_R   0.499876 0.259869 0.499957 0.859009
C2    C     C_R   0.500124 0.740131 0.500043 0.859007
C3    C     C_R   0.201784 0.499726 0.464790 0.936650
C4    C     C_R   0.798216 0.500277 0.535209 0.936653
C5    C     C_2   0.038839 0.483164 0.448095 -0.112231
C6    C     C_2   0.961160 0.516845 0.551901 -0.112230
C7    C     C_R   0.468574 0.063919 0.375026 -0.198301
C8    C     C_R   0.531426 0.936081 0.624974 -0.198300
C9    C     C_R   0.468772 0.936084 0.375038 -0.198180
C10   C     C_R   0.531228 0.063916 0.624962 -0.198181
C11   C     C_R   0.500155 0.872569 0.500013 -0.008023
C12   C     C_R   0.499845 0.127431 0.499987 -0.008025
C13   C     C_R   0.602487 0.572970 0.084961 -0.068628
C14   C     C_R   0.397513 0.427029 0.915039 -0.068632
C15   C     C_R   0.602429 0.572954 0.941033 -0.081871
C16   C     C_R   0.397571 0.427046 0.058967 -0.081871
H1    H     H_    0.443073 0.112615 0.277812 0.153738
H2    H     H_    0.556927 0.887385 0.722188 0.153738
H3    H     H_    0.443431 0.887389 0.277830 0.157341
H4    H     H_    0.556569 0.112611 0.722170 0.157341
H5    H     H_    0.684407 0.631293 0.149914 0.127972
H6    H     H_    0.315594 0.368706 0.850086 0.127969
H7    H     H_    0.684268 0.631290 0.896837 0.120235
H8    H     H_    0.315732 0.368710 0.103163 0.120235
N1    N     N_R   0.499960 0.499970 0.857200 -0.076788
N2    N     N_R   0.500040 0.500030 0.142800 -0.076788
O1    O     O_R   0.499990 0.316750 0.614620 -0.631503
O2    O     O_R   0.500010 0.683250 0.385380 -0.631504
O3    O     O_R   0.499990 0.316780 0.385290 -0.625871
O4    O     O_R   0.500010 0.683220 0.614710 -0.625872
O5    O     O_R   0.271750 0.499990 0.587840 -0.590706
O6    O     O_R   0.728250 0.500010 0.412160 -0.590704
O7    O     O_R   0.271750 0.500010 0.358510 -0.641141
O8    O     O_R   0.728250 0.499990 0.641490 -0.641140
Zn1   Zn    Zn3+2 0.500000 0.499980 0.653120 0.945336
Zn2   Zn    Zn3+2 0.500000 0.500020 0.346880 0.945337
N3    N     N_3   0.965814 0.418863 0.326711 -0.431764
H9    H     H_    0.982606 0.471589 0.240571 0.192976
H10   H     H_    0.021211 0.332794 0.320755 0.171751
N4    N     N_3   0.034188 0.581136 0.673294 -0.431766
H11   H     H_    0.017419 0.528392 0.759428 0.192976
H12   H     H_    0.978784 0.667199 0.679273 0.171755

loop_
_geom_bond_atom_site_label_1
_geom_bond_atom_site_label_2
_ccdc_geom_bond_type
N3    H9    S    
C14   C16   A    
C5    N3    S    
C4    O8    A    
C2    O4    A    
C14   H6    S    
N4    H12   S    
C13   H5    S    
C16   H8    S    
C3    O5    A    
C9    C11   A    
O3    Zn2   S    
C1    O3    A    
C4    O6    A    
C1    C12   S    
C10   C12   A    
O4    Zn1   S    
N1    Zn1   S    
C8    C11   A    
C5    C6    D    
C2    C11   S    
O6    Zn2   S    
C15   H7    S    
N4    H11   S    
O5    Zn1   S    
C13   C15   A    
C14   N1    A    
C16   N2    A    
C7    C12   A    
N3    H10   S    
C6    N4    S    
C13   N2    A    
C15   N1    A    
C3    O7    A    
C7    C9    A    
O7    Zn2   S    
O2    Zn2   S    
C4    C6    S    
O8    Zn1   S    
N2    Zn2   S    
C1    O1    A    
C2    O2    A    
O1    Zn1   S    
C9    H3    S    
C8    C10   A    
C8    H2    S    
C10   H4    S    
C3    C5    S    
C7    H1    S    
