data_mof_unit_39471.cif
_audit_creation_date              2012-12-10T18:24:41-0500
_audit_creation_method            fapswitch 2.2
_symmetry_space_group_name_H-M    P1
_symmetry_Int_Tables_number       1
_space_group_crystal_system       triclinic
_cell_length_a                    14.606592
_cell_length_b                    15.894399
_cell_length_c                    17.39649
_cell_angle_alpha                 89.973688
_cell_angle_beta                  86.509652
_cell_angle_gamma                 90.019151
_cell_volume                      4031.32890246

loop_
_atom_site_label
_atom_site_type_symbol
_atom_type_description
_atom_site_fract_x
_atom_site_fract_y
_atom_site_fract_z
_atom_type_partial_charge
C1    C     C_R   0.500038 0.660517 0.499891 0.820349
C2    C     C_3   0.585136 0.028016 0.502938 0.402750
C3    C     C_3   0.500829 0.916767 0.499173 -0.110841
C4    C     C_3   0.499172 0.083232 0.500829 -0.110847
C5    C     C_1   0.500355 0.825330 0.499203 0.137077
C6    C     C_1   0.499645 0.174670 0.500798 0.137075
C7    C     C_3   0.034169 0.436161 0.456716 -0.144782
C8    C     C_3   0.965831 0.563840 0.543284 -0.144786
C9    C     C_3   0.966952 0.426986 0.528848 -0.139423
C10   C     C_3   0.033048 0.573016 0.471152 -0.139420
C11   C     C_3   0.974820 0.509142 0.427529 -0.145394
C12   C     C_R   0.499962 0.339483 0.500109 0.820347
C13   C     C_3   0.025179 0.490859 0.572471 -0.145398
C14   C     C_3   0.908741 0.499965 0.499659 0.083416
C15   C     C_3   0.091259 0.500036 0.500341 0.083415
C16   C     C_R   0.488731 0.498037 0.650273 0.831723
C17   C     C_R   0.511269 0.501966 0.349727 0.831734
C18   C     C_1   0.805965 0.499955 0.499661 0.111540
C19   C     C_1   0.194035 0.500045 0.500339 0.111539
C20   C     C_R   0.483655 0.493104 0.734611 -0.111063
C21   C     C_R   0.516345 0.506910 0.265390 -0.111054
C22   C     C_R   0.561404 0.470066 0.774555 0.448243
C23   C     C_3   0.464672 0.027881 0.435889 0.431244
C24   C     C_R   0.438602 0.529974 0.225449 0.448249
C25   C     C_R   0.552601 0.464462 0.855071 -0.254310
C26   C     C_R   0.447406 0.535587 0.144933 -0.254322
C27   C     C_R   0.470675 0.487405 0.895558 0.134247
C28   C     C_R   0.529327 0.512633 0.104444 0.134250
C29   C     C_R   0.394094 0.509096 0.855612 -0.157483
C30   C     C_R   0.605902 0.490919 0.144388 -0.157478
C31   C     C_R   0.400343 0.511583 0.775649 -0.253277
C32   C     C_R   0.599652 0.488419 0.224350 -0.253279
C33   C     C_2   0.464003 0.489494 0.979812 -0.186613
C34   C     C_3   0.535329 0.972118 0.564113 0.431258
C35   C     C_2   0.535998 0.510553 0.020191 -0.186618
C36   C     C_3   0.720305 0.482325 0.765076 0.073837
C37   C     C_3   0.796390 0.491496 0.702009 -0.744583
C38   C     C_3   0.279690 0.517790 0.234921 0.073835
C39   C     C_3   0.203599 0.508626 0.297984 -0.744587
C40   C     C_3   0.741087 0.007282 0.481742 0.115383
C41   C     C_3   0.833726 0.036647 0.506904 -0.734077
C42   C     C_3   0.258913 0.992718 0.518254 0.115374
C43   C     C_3   0.166273 0.963342 0.493103 -0.734105
C44   C     C_3   0.551675 0.972383 0.436939 -0.454896
C45   C     C_3   0.448325 0.027616 0.563063 -0.454896
C46   C     C_1   0.500132 0.749978 0.499499 -0.125650
C47   C     C_1   0.499868 0.250021 0.500501 -0.125652
C48   C     C_3   0.414864 0.971983 0.497064 0.402751
Cu1   Cu    Cu3+1 0.409780 0.500000 0.499990 1.016937
Cu2   Cu    Cu3+1 0.590220 0.500000 0.500010 1.016932
H1    H     H_    0.062370 0.383390 0.420838 0.136376
H2    H     H_    0.670095 0.474404 0.113601 0.138676
H3    H     H_    0.390582 0.558743 0.113970 0.126262
H4    H     H_    0.609432 0.441323 0.886035 0.126268
H5    H     H_    0.592757 0.948973 0.385580 0.193653
H6    H     H_    0.407243 0.051026 0.614422 0.193649
H7    H     H_    0.939702 0.366588 0.552753 0.135140
H8    H     H_    0.060297 0.633413 0.447247 0.135132
H9    H     H_    0.745111 0.439948 0.810194 0.144608
H10   H     H_    0.706457 0.546076 0.790047 0.135938
H11   H     H_    0.775441 0.537597 0.658507 0.249002
H12   H     H_    0.937629 0.616611 0.579162 0.136377
H13   H     H_    0.859906 0.514581 0.726970 0.186411
H14   H     H_    0.810806 0.429890 0.673705 0.250149
H15   H     H_    0.293502 0.454045 0.209926 0.135921
H16   H     H_    0.254909 0.560203 0.189819 0.144623
H17   H     H_    0.189222 0.570225 0.326313 0.250155
H18   H     H_    0.140069 0.485590 0.273013 0.186409
H19   H     H_    0.224519 0.462491 0.341467 0.248990
H20   H     H_    0.343282 0.010075 0.259378 0.373304
H21   H     H_    0.656598 0.989939 0.740688 0.373298
H22   H     H_    0.743651 0.006452 0.417710 0.139782
H23   H     H_    0.045701 0.483313 0.632480 0.129511
H24   H     H_    0.729004 0.942243 0.503975 0.174102
H25   H     H_    0.833294 0.037459 0.570773 0.267224
H26   H     H_    0.888356 0.993163 0.484143 0.189992
H27   H     H_    0.848855 0.100940 0.484519 0.244696
H28   H     H_    0.270991 0.057751 0.496008 0.174116
H29   H     H_    0.256354 0.993563 0.582285 0.139783
H30   H     H_    0.151151 0.899052 0.515499 0.244705
H31   H     H_    0.111642 0.006827 0.515861 0.190001
H32   H     H_    0.166698 0.962518 0.429234 0.267199
H33   H     H_    0.954299 0.516689 0.367520 0.129507
H34   H     H_    0.659726 0.470529 0.254064 0.176268
H35   H     H_    0.340264 0.529454 0.745933 0.176271
H36   H     H_    0.602313 0.524180 0.991229 0.141453
H37   H     H_    0.397689 0.475868 0.008776 0.141456
H38   H     H_    0.329897 0.525601 0.886397 0.138673
N1    N     N_1   0.725810 0.500000 0.500030 -0.147511
N2    N     N_1   0.274190 0.500000 0.499970 -0.147508
O1    O     O_R   0.423830 0.620920 0.499990 -0.560885
O2    O     O_3   0.357876 0.553481 0.266543 -0.559304
O3    O     O_2   0.345647 0.130986 0.370577 -0.321917
O4    O     O_2   0.492479 0.103803 0.298727 -0.278624
O5    O     O_3   0.369795 0.984695 0.305046 -0.497613
O6    O     O_2   0.507523 0.896182 0.701267 -0.278696
O7    O     O_2   0.654364 0.869022 0.629424 -0.321852
O8    O     O_3   0.630189 0.015305 0.694963 -0.497603
O9    O     O_3   0.672708 0.063645 0.510267 -0.532613
O10   O     O_3   0.327293 0.936353 0.489736 -0.532619
O11   O     O_R   0.576170 0.379080 0.500010 -0.560889
O12   O     O_R   0.576200 0.620920 0.500000 -0.575280
O13   O     O_R   0.423800 0.379080 0.500000 -0.575273
O14   O     O_R   0.414980 0.500010 0.613590 -0.597346
O15   O     O_R   0.585020 0.499990 0.386410 -0.597345
O16   O     O_R   0.567350 0.500010 0.613600 -0.524295
O17   O     O_R   0.432650 0.499990 0.386400 -0.524296
O18   O     O_3   0.642140 0.446578 0.733468 -0.559303
S1    S     S_3+6 0.417380 0.065599 0.350357 0.018511
S2    S     S_3+6 0.582620 0.934399 0.649644 0.018511

loop_
_geom_bond_atom_site_label_1
_geom_bond_atom_site_label_2
_ccdc_geom_bond_type
C8    C13   S    
C31   H35   S    
C27   C29   A    
C39   H18   S    
C14   C18   S    
Cu1   N2    S    
C36   H9    S    
C40   O9    S    
Cu1   O17   S    
C27   C33   S    
C15   C19   S    
O8    S2    S    
C36   C37   S    
C10   H8    S    
C24   C26   A    
C17   O15   A    
C10   C15   S    
C17   O17   A    
C41   H27   S    
C38   C39   S    
C35   H36   S    
C22   O18   S    
C1    C46   S    
C36   O18   S    
C38   O2    S    
C3    C48   S    
C9    C13   S    
C29   H38   S    
C33   C35   D    
C16   O14   A    
C38   H16   S    
C45   H6    S    
C2    C44   S    
C22   C25   A    
Cu2   O15   S    
C16   O16   A    
C2    C34   S    
C7    C15   S    
C42   H29   S    
C1    O1    A    
Cu1   O1    S    
C12   C47   S    
C32   H34   S    
C24   O2    S    
C37   H13   S    
C7    C11   S    
C4    C45   S    
C23   S1    S    
H21   O8    S    
C3    C44   S    
C6    C47   T    
C48   O10   S    
C25   H4    S    
C28   C35   S    
C12   O13   A    
C4    C6    S    
O5    S1    S    
C4    C23   S    
C3    C34   S    
C11   H33   S    
C43   H30   S    
O6    S2    D    
C17   C21   S    
C23   C44   S    
C2    C4    S    
C9    C14   S    
C42   O10   S    
C41   H25   S    
Cu2   N1    S    
C38   H15   S    
C16   C20   S    
C39   H19   S    
C34   C45   S    
C40   C41   S    
C13   H23   S    
C2    O9    S    
Cu2   O12   S    
C13   C15   S    
C34   S2    S    
C42   C43   S    
C26   H3    S    
C37   H14   S    
C45   C48   S    
C7    C9    S    
C30   H2    S    
C8    C14   S    
C23   C48   S    
C40   H22   S    
C18   N1    T    
C39   H17   S    
C20   C22   A    
C3    C5    S    
Cu1   O13   S    
C37   H11   S    
C42   H28   S    
C25   C27   A    
C5    C46   T    
O4    S1    D    
C26   C28   A    
Cu1   O14   S    
C28   C30   A    
H20   O5    S    
C33   H37   S    
C7    H1    S    
C12   O11   A    
C29   C31   A    
C19   N2    T    
C21   C32   A    
C41   H26   S    
C30   C32   A    
O7    S2    D    
C44   H5    S    
C43   H31   S    
C11   C14   S    
C40   H24   S    
C9    H7    S    
C10   C11   S    
Cu2   O11   S    
C8    C10   S    
Cu1   Cu2   S    
C21   C24   A    
C8    H12   S    
Cu2   O16   S    
C43   H32   S    
C36   H10   S    
C1    O12   A    
O3    S1    D    
C20   C31   A    
