data_mof_unit_35919.cif
_audit_creation_date              2012-10-26T18:28:58-0400
_audit_creation_method            fapswitch 2.2
_symmetry_space_group_name_H-M    P1
_symmetry_Int_Tables_number       1
_space_group_crystal_system       triclinic
_cell_length_a                    11.839041
_cell_length_b                    12.921691
_cell_length_c                    15.735909
_cell_angle_alpha                 95.570008
_cell_angle_beta                  72.968211
_cell_angle_gamma                 98.912157
_cell_volume                      2270.51328923

loop_
_atom_site_label
_atom_site_type_symbol
_atom_type_description
_atom_site_fract_x
_atom_site_fract_y
_atom_site_fract_z
_atom_type_partial_charge
C1    C     C_R   0.518216 0.699792 0.504473 0.594559
C2    C     C_R   0.532910 0.036669 0.383082 -0.086381
C3    C     C_R   0.484145 0.858142 0.605043 -0.072126
C4    C     C_R   0.515817 0.141848 0.394962 -0.072161
C5    C     C_R   0.537654 0.871055 0.443574 0.207101
C6    C     C_R   0.462335 0.128943 0.556432 0.207097
C7    C     C_R   0.518023 0.976752 0.456208 0.016466
C8    C     C_R   0.481944 0.023240 0.543798 0.016471
C9    C     C_R   0.936077 0.602851 0.581657 -0.128147
C10   C     C_R   0.063922 0.397146 0.418345 -0.128148
C11   C     C_R   0.820254 0.592184 0.574624 0.383336
C12   C     C_R   0.481783 0.300208 0.495529 0.594568
C13   C     C_R   0.179747 0.407816 0.425376 0.383341
C14   C     C_R   0.862693 0.454133 0.462987 0.119350
C15   C     C_R   0.137307 0.545865 0.537014 0.119349
C16   C     C_R   0.425874 0.491090 0.668376 0.550667
C17   C     C_R   0.574126 0.508911 0.331624 0.550683
C18   C     C_R   0.981368 0.462308 0.470049 -0.033215
C19   C     C_R   0.018632 0.537690 0.529952 -0.033214
C20   C     C_R   0.379793 0.472753 0.765151 0.016508
C21   C     C_R   0.620205 0.527245 0.234847 0.016515
C22   C     C_R   0.246230 0.373432 0.888402 0.032373
C23   C     C_R   0.399712 0.393596 0.067140 0.235002
C24   C     C_R   0.753793 0.626539 0.111585 0.032383
C25   C     C_R   0.267131 0.415495 0.804264 0.022753
C26   C     C_R   0.732884 0.584475 0.195724 0.022754
C27   C     C_R   0.458548 0.502033 0.816687 -0.081327
C28   C     C_R   0.541440 0.497984 0.183317 -0.081301
C29   C     C_R   0.427290 0.483318 0.907423 0.007345
C30   C     C_R   0.572700 0.516692 0.092578 0.007344
C31   C     C_R   0.322371 0.413166 0.943421 0.031978
C32   C     C_R   0.677632 0.586828 0.056574 0.031978
C33   C     C_R   0.506075 0.523681 0.959893 -0.003374
C34   C     C_R   0.600277 0.606415 0.932865 0.234994
C35   C     C_R   0.493911 0.476332 0.040113 -0.003375
C36   C     C_3   0.183490 0.336395 0.089386 -0.359030
C37   C     C_3   0.816509 0.663587 0.910600 -0.359022
C38   C     C_3   0.827483 0.606640 0.244808 -0.356141
C39   C     C_3   0.172549 0.393291 0.755167 -0.356129
C40   C     C_3   0.162110 0.271608 0.907255 -0.371874
C41   C     C_3   0.837964 0.728337 0.092715 -0.371873
C42   C     C_3   0.541017 0.202365 0.312520 -0.347706
C43   C     C_3   0.458912 0.797613 0.687481 -0.347779
C44   C     C_3   0.171537 0.627010 0.604534 -0.339689
C45   C     C_R   0.304208 0.378555 0.029958 0.027107
C46   C     C_3   0.828460 0.372985 0.395470 -0.339681
C47   C     C_R   0.695789 0.621444 0.970039 0.027120
C48   C     C_R   0.480458 0.187732 0.482129 0.062307
C49   C     C_R   0.519536 0.812266 0.517876 0.062315
C50   C     C_R   0.467034 0.963317 0.616924 -0.086365
Cl1   Cl    Cl    0.273881 0.322443 0.356625 -0.560835
Cl2   Cl    Cl    0.726121 0.677557 0.643376 -0.560819
Cl3   Cl    Cl    0.409759 0.291676 0.131313 -0.598557
Cl4   Cl    Cl    0.590227 0.708345 0.868702 -0.598515
Cl5   Cl    Cl    0.417975 0.190523 0.664802 -0.642405
Cl6   Cl    Cl    0.582043 0.809483 0.335203 -0.642368
Cu1   Cu    Cu3+1 0.386820 0.492450 0.493500 1.017026
Cu2   Cu    Cu3+1 0.613180 0.507550 0.506500 1.017034
H1    H     H_    0.959381 0.663390 0.628315 0.137722
H2    H     H_    0.828434 0.750538 0.912150 0.175500
H3    H     H_    0.889489 0.634499 0.928319 0.110143
H4    H     H_    0.824598 0.634143 0.840574 0.173200
H5    H     H_    0.799346 0.661459 0.303560 0.198150
H6    H     H_    0.843522 0.532100 0.265730 0.135915
H7    H     H_    0.915268 0.640552 0.202196 0.119721
H8    H     H_    0.200726 0.338494 0.696408 0.198169
H9    H     H_    0.084778 0.359337 0.797766 0.119727
H10   H     H_    0.156466 0.467819 0.734254 0.135921
H11   H     H_    0.155775 0.226543 0.844677 0.169752
H12   H     H_    0.040619 0.336606 0.371687 0.137724
H13   H     H_    0.197075 0.217615 0.940808 0.158889
H14   H     H_    0.071335 0.287175 0.946401 0.118808
H15   H     H_    0.844357 0.773392 0.155286 0.169711
H16   H     H_    0.928717 0.712731 0.053543 0.118810
H17   H     H_    0.803005 0.782358 0.059184 0.158886
H18   H     H_    0.635348 0.200889 0.272812 0.118784
H19   H     H_    0.482187 0.165244 0.271443 0.222384
H20   H     H_    0.526213 0.285445 0.327210 0.173255
H21   H     H_    0.364517 0.798905 0.727070 0.118690
H22   H     H_    0.473957 0.714596 0.672792 0.173457
H23   H     H_    0.451843 0.464069 0.216067 0.212249
H24   H     H_    0.517544 0.834841 0.728664 0.222228
H25   H     H_    0.258383 0.626709 0.614326 0.188695
H26   H     H_    0.169565 0.706817 0.584867 0.126232
H27   H     H_    0.107817 0.614043 0.671320 0.078403
H28   H     H_    0.741618 0.373290 0.385674 0.188687
H29   H     H_    0.892184 0.385943 0.328684 0.078394
H30   H     H_    0.830426 0.293179 0.415143 0.126246
H31   H     H_    0.548136 0.535965 0.783939 0.212250
H32   H     H_    0.439626 0.996807 0.684356 0.195548
H33   H     H_    0.560292 0.003172 0.315651 0.195559
H34   H     H_    0.171601 0.249447 0.087857 0.175529
H35   H     H_    0.175369 0.365867 0.159409 0.173171
H36   H     H_    0.110506 0.365437 0.071640 0.110151
N1    N     N_R   0.216750 0.481110 0.483710 -0.214232
N2    N     N_R   0.783250 0.518890 0.516290 -0.214229
O1    O     O_R   0.419950 0.645670 0.495380 -0.510010
O2    O     O_R   0.580050 0.354330 0.504620 -0.510007
O3    O     O_R   0.611110 0.658410 0.506370 -0.439621
O4    O     O_R   0.388890 0.341590 0.493630 -0.439619
O5    O     O_R   0.350820 0.490050 0.621260 -0.544237
O6    O     O_R   0.649180 0.509950 0.378740 -0.544231
O7    O     O_R   0.541970 0.502800 0.632250 -0.448377
O8    O     O_R   0.458030 0.497200 0.367750 -0.448366

loop_
_geom_bond_atom_site_label_1
_geom_bond_atom_site_label_2
_ccdc_geom_bond_type
C11   N2    A    
C21   C26   A    
C23   C45   A    
C40   H13   S    
C27   C29   A    
C39   H10   S    
C14   C18   A    
C5    Cl6   S    
C2    C7    A    
Cu2   O2    S    
C6    Cl5   S    
C12   C48   S    
C44   H25   S    
C1    O3    A    
C37   H4    S    
C3    C49   A    
C7    C8    A    
C14   C46   S    
C15   C19   A    
C3    C43   S    
C6    C48   A    
C30   C35   A    
C13   N1    A    
C17   O8    A    
C24   C26   A    
C15   C44   S    
C38   H5    S    
C15   N1    A    
C20   C25   A    
C43   H21   S    
C29   C33   A    
C18   C19   A    
Cu2   N2    S    
C11   Cl2   S    
C33   C35   A    
C41   H16   S    
C13   Cl1   S    
C36   H35   S    
C9    C19   A    
C22   C25   A    
Cu2   O6    S    
C37   C47   S    
C12   O2    A    
C36   H34   S    
Cu1   O1    S    
C24   C41   S    
C5    C49   A    
C14   N2    A    
C3    C50   A    
C50   H32   S    
C23   Cl3   S    
C38   H6    S    
C40   H11   S    
C22   C31   A    
C1    O1    A    
C5    C7    A    
C26   C38   S    
C6    C8    A    
C43   H22   S    
Cu1   O4    S    
C17   C21   S    
C9    H1    S    
C2    C4    A    
C17   O6    A    
C24   C32   A    
C41   H17   S    
C16   O7    A    
C38   H7    S    
C16   C20   S    
C22   C40   S    
C33   C34   A    
C36   C45   S    
C9    C11   A    
C10   H12   S    
C21   C28   A    
C34   Cl4   S    
C23   C35   A    
C31   C45   A    
C32   C47   A    
C44   H27   S    
C8    C50   A    
C46   H29   S    
C4    C48   A    
Cu1   O8    S    
C40   H14   S    
C28   H23   S    
C39   H9    S    
Cu2   O3    S    
C44   H26   S    
C10   C13   A    
C37   H3    S    
C42   H20   S    
Cu2   O7    S    
C20   C27   A    
Cu1   O5    S    
C42   H18   S    
C46   H30   S    
C28   C30   A    
C29   C31   A    
C25   C39   S    
C30   C32   A    
Cu1   Cu2   S    
C4    C42   S    
C10   C18   A    
C39   H8    S    
C27   H31   S    
C2    H33   S    
C12   O4    A    
C37   H2    S    
C41   H15   S    
C36   H36   S    
C16   O5    A    
C42   H19   S    
Cu1   N1    S    
C43   H24   S    
C34   C47   A    
C1    C49   S    
C46   H28   S    
