data_mof_unit_61137.cif
_audit_creation_date              2012-12-10T16:55:18-0500
_audit_creation_method            fapswitch 2.2
_symmetry_space_group_name_H-M    P1
_symmetry_Int_Tables_number       1
_space_group_crystal_system       triclinic
_cell_length_a                    21.759296
_cell_length_b                    21.759658
_cell_length_c                    21.847713
_cell_angle_alpha                 118.569869
_cell_angle_beta                  118.643001
_cell_angle_gamma                 91.095982
_cell_volume                      7547.71025811

loop_
_atom_site_label
_atom_site_type_symbol
_atom_type_description
_atom_site_fract_x
_atom_site_fract_y
_atom_site_fract_z
_atom_type_partial_charge
C1    C     C_R   0.000772 0.382400 0.503046 0.931616
C2    C     C_1   0.837884 0.336392 0.173691 -0.048632
C3    C     C_1   0.124655 0.625878 0.751286 -0.167991
C4    C     C_1   0.875346 0.374138 0.248713 -0.167994
C5    C     C_2   0.063549 0.244959 0.556355 -0.158067
C6    C     C_2   0.936453 0.755037 0.443638 -0.157953
C7    C     C_2   0.006142 0.182673 0.495215 -0.335368
C8    C     C_2   0.993855 0.817327 0.504785 -0.335476
C9    C     C_2   0.065250 0.308269 0.549190 -0.154768
C10   C     C_2   0.934751 0.691727 0.450802 -0.154373
C11   C     C_2   0.002109 0.321068 0.512008 -0.336722
C12   C     C_R   0.999229 0.617600 0.496955 0.932207
C13   C     C_2   0.997892 0.678933 0.487995 -0.336742
C14   C     C_R   0.617455 0.999219 0.496947 0.933009
C15   C     C_R   0.382545 0.000781 0.503053 0.932982
C16   C     C_R   0.080833 0.581158 0.662340 0.904118
C17   C     C_R   0.919167 0.418841 0.337660 0.904124
C18   C     C_R   0.418600 0.919201 0.337652 0.910084
C19   C     C_R   0.581400 0.080799 0.662348 0.910070
C20   C     C_R   0.881142 0.998226 0.500816 0.937147
C21   C     C_R   0.118858 0.001774 0.499184 0.937151
C22   C     C_R   0.001736 0.118785 0.499132 0.937175
C23   C     C_3   0.265917 0.840909 0.047175 -0.403278
C24   C     C_R   0.998263 0.881215 0.500868 0.937253
C25   C     C_2   0.754824 0.936515 0.443518 -0.156308
C26   C     C_2   0.245177 0.063485 0.556483 -0.156422
C27   C     C_2   0.817196 0.993838 0.504651 -0.335870
C28   C     C_2   0.182804 0.006162 0.495349 -0.335796
C29   C     C_2   0.691526 0.934802 0.450717 -0.154083
C30   C     C_2   0.308474 0.065198 0.549283 -0.154178
C31   C     C_2   0.678796 0.997898 0.487994 -0.337484
C32   C     C_2   0.321204 0.002102 0.512006 -0.337461
C33   C     C_3   0.286532 0.700207 0.951128 0.310474
C34   C     C_3   0.727704 0.158705 0.952977 -0.403109
C35   C     C_3   0.716324 0.305647 0.048662 0.310200
C36   C     C_3   0.172690 0.686453 0.953383 -0.488764
C37   C     C_3   0.830982 0.308337 0.046668 -0.488423
C38   C     C_3   0.221337 0.735440 0.050510 -0.396002
C39   C     C_3   0.782321 0.259331 0.949539 -0.396321
C40   C     C_1   0.374024 0.875498 0.248697 -0.185204
C41   C     C_1   0.625981 0.124508 0.751303 -0.185190
C42   C     C_3   0.208363 0.709657 0.917745 0.267088
C43   C     C_3   0.791646 0.290421 0.082253 0.267137
C44   C     C_3   0.335551 0.749997 0.048665 -0.462876
C45   C     C_3   0.215418 0.792014 0.950187 -0.411647
C46   C     C_3   0.667236 0.255859 0.951127 -0.462720
C47   C     C_3   0.290921 0.792284 0.082265 0.302934
C48   C     C_3   0.709101 0.207779 0.917733 0.302949
C49   C     C_3   0.778202 0.207432 0.049968 -0.411747
C50   C     C_1   0.336494 0.838204 0.173664 -0.091686
C51   C     C_1   0.663518 0.161820 0.826335 -0.091692
C52   C     C_1   0.162119 0.663647 0.826308 -0.048631
H1    H     H_    0.354360 0.714924 0.073508 0.152575
H2    H     H_    0.036543 0.823703 0.562646 0.157752
H3    H     H_    0.118262 0.345591 0.576939 0.168011
H4    H     H_    0.881738 0.654399 0.423042 0.168437
H5    H     H_    0.950199 0.288736 0.492898 0.158030
H6    H     H_    0.049805 0.711272 0.507116 0.158163
H7    H     H_    0.751176 0.889680 0.389992 0.164430
H8    H     H_    0.248825 0.110320 0.610009 0.164353
H9    H     H_    0.823627 0.036480 0.562498 0.156797
H10   H     H_    0.176372 0.963521 0.437501 0.156797
H11   H     H_    0.654147 0.881815 0.422910 0.166116
H12   H     H_    0.653026 0.291354 0.926171 0.152674
H13   H     H_    0.345853 0.118185 0.577089 0.166099
H14   H     H_    0.279674 0.641641 0.931597 0.128063
H15   H     H_    0.727876 0.364309 0.068086 0.127918
H16   H     H_    0.711169 0.049805 0.507162 0.157275
H17   H     H_    0.288831 0.950195 0.492838 0.157308
H18   H     H_    0.116406 0.691925 0.930442 0.193089
H19   H     H_    0.885395 0.298646 0.069757 0.193094
H20   H     H_    0.166256 0.627386 0.931267 0.168299
H21   H     H_    0.842041 0.367667 0.068673 0.168395
H22   H     H_    0.238038 0.699858 0.075024 0.172821
H23   H     H_    0.386251 0.789943 0.071667 0.184005
H24   H     H_    0.770241 0.295146 0.924915 0.172691
H25   H     H_    0.188513 0.764757 0.074124 0.180064
H26   H     H_    0.813234 0.225801 0.926074 0.180144
H27   H     H_    0.237695 0.810933 0.923535 0.172965
H28   H     H_    0.753013 0.192052 0.076594 0.173132
H29   H     H_    0.159722 0.798791 0.929212 0.177647
H30   H     H_    0.831995 0.196399 0.071093 0.177512
H31   H     H_    0.315087 0.880960 0.067550 0.170408
H32   H     H_    0.675881 0.122496 0.932565 0.170348
H33   H     H_    0.335213 0.767666 0.940282 0.338608
H34   H     H_    0.614021 0.219770 0.928085 0.183838
H35   H     H_    0.660933 0.243654 0.059522 0.338690
H36   H     H_    0.235421 0.873483 0.072305 0.177722
H37   H     H_    0.756057 0.122078 0.927997 0.177908
H38   H     H_    0.110433 0.248546 0.609887 0.164295
H39   H     H_    0.889574 0.751446 0.390100 0.164502
H40   H     H_    0.963448 0.176299 0.437358 0.157628
O1    O     O_R   0.051090 0.409550 0.500010 -0.616385
O2    O     O_R   0.051070 0.590460 0.499970 -0.623278
O3    O     O_R   0.112510 0.561440 0.622850 -0.607874
O4    O     O_R   0.887490 0.438560 0.377150 -0.607916
O5    O     O_R   0.010350 0.561430 0.622870 -0.622309
O6    O     O_R   0.989650 0.438570 0.377130 -0.622331
O7    O     O_R   0.590290 0.948920 0.499990 -0.616402
O8    O     O_R   0.409710 0.051080 0.500010 -0.616420
O9    O     O_R   0.590320 0.051050 0.499970 -0.623744
O10   O     O_R   0.409680 0.948950 0.500030 -0.623714
O11   O     O_R   0.438380 0.887500 0.377150 -0.620626
O12   O     O_R   0.948910 0.590450 0.499990 -0.616208
O13   O     O_R   0.561620 0.112500 0.622850 -0.620596
O14   O     O_R   0.438400 0.989630 0.377130 -0.616434
O15   O     O_R   0.561600 0.010370 0.622870 -0.616428
O16   O     O_R   0.944190 0.034670 0.569380 -0.623809
O17   O     O_R   0.055810 0.965330 0.430620 -0.623798
O18   O     O_3   0.320810 0.713885 0.916134 -0.758212
O19   O     O_3   0.679319 0.297057 0.083589 -0.758416
O20   O     O_R   0.874830 0.965310 0.430660 -0.619569
O21   O     O_R   0.125170 0.034690 0.569340 -0.619610
O22   O     O_R   0.034670 0.125130 0.569340 -0.620278
O23   O     O_R   0.965330 0.874870 0.430660 -0.620226
O24   O     O_R   0.965310 0.055770 0.430620 -0.623165
O25   O     O_R   0.034690 0.944230 0.569380 -0.623142
O26   O     O_R   0.948930 0.409540 0.500030 -0.623579
Zn1   Zn    Zn3+2 0.068220 0.500010 0.499990 0.966045
Zn2   Zn    Zn3+2 0.931780 0.499990 0.500010 0.965905
Zn3   Zn    Zn3+2 0.499800 0.931810 0.500010 0.956150
Zn4   Zn    Zn3+2 0.500200 0.068190 0.499990 0.956071
Zn5   Zn    Zn3+2 0.046310 0.046310 0.592620 0.951410
Zn6   Zn    Zn3+2 0.953690 0.953690 0.407380 0.951544

loop_
_geom_bond_atom_site_label_1
_geom_bond_atom_site_label_2
_ccdc_geom_bond_type
C29   H11   S    
C23   C45   S    
C36   C42   S    
C1    C11   S    
C14   C31   S    
O12   Zn2   S    
C35   O19   S    
O6    Zn1   S    
C24   O25   A    
C23   H31   S    
C33   C42   S    
O20   Zn6   S    
C16   O5    A    
H35   O19   S    
C6    H39   S    
C18   C40   S    
C19   O15   A    
C27   H9    S    
C20   O20   A    
C44   H1    S    
C48   C51   S    
C1    O26   A    
C34   C49   S    
C9    H3    S    
O10   Zn3   S    
C35   C43   S    
C17   O6    A    
C15   O8    A    
C5    H38   S    
C44   C47   S    
O7    Zn3   S    
C22   O24   A    
C12   O2    A    
C34   H32   S    
C36   H18   S    
C33   H14   S    
C47   C50   S    
C25   C29   S    
C31   H16   S    
C46   C48   S    
C23   C47   S    
C39   H26   S    
C14   O7    A    
C21   O21   A    
H33   O18   S    
C8    H2    S    
C5    C7    D    
C43   C49   S    
C14   O9    A    
C6    C8    D    
C13   H6    S    
O3    Zn1   S    
C46   H12   S    
C42   C45   S    
C4    C17   S    
C49   H30   S    
C37   C43   S    
C44   H23   S    
C2    C4    T    
C18   O14   A    
C5    C9    S    
O2    Zn1   S    
O21   Zn5   S    
C35   H15   S    
C2    C43   S    
O14   Zn4   S    
C45   H27   S    
C17   O4    A    
C39   H24   S    
C9    C11   D    
C38   C47   S    
O22   Zn5   S    
C19   O13   A    
C1    O1    A    
C38   H25   S    
C21   C28   S    
C26   C30   S    
C23   H36   S    
C37   H19   S    
C34   C48   S    
O15   Zn3   S    
O16   Zn5   S    
O11   Zn3   S    
C10   H4    S    
C38   H22   S    
C37   H21   S    
C16   O3    A    
O23   Zn6   S    
O24   Zn6   S    
C33   C44   S    
O4    Zn2   S    
C45   H29   S    
C10   C13   D    
C15   C32   S    
C6    C10   S    
C21   O17   A    
C3    C52   T    
O17   Zn6   S    
C12   O12   A    
C32   H17   S    
C20   C27   S    
C25   C27   D    
C7    C22   S    
C25   H7    S    
C26   C28   D    
O9    Zn4   S    
C49   H28   S    
O5    Zn2   S    
C36   C38   S    
O25   Zn5   S    
C34   H37   S    
C29   C31   D    
C30   C32   D    
C40   C50   T    
C7    H40   S    
C8    C24   S    
O13   Zn4   S    
O8    Zn4   S    
C18   O11   A    
C15   O10   A    
O26   Zn2   S    
C30   H13   S    
C19   C41   S    
C22   O22   A    
C12   C13   S    
C24   O23   A    
C37   C39   S    
C33   O18   S    
O1    Zn1   S    
C20   O16   A    
C11   H5    S    
C35   C46   S    
C26   H8    S    
C41   C51   T    
C3    C16   S    
C36   H20   S    
C42   C52   S    
C39   C48   S    
C46   H34   S    
C28   H10   S    
