data_mof_unit_62758.cif
_audit_creation_date              2012-12-10T16:44:53-0500
_audit_creation_method            fapswitch 2.2
_symmetry_space_group_name_H-M    P1
_symmetry_Int_Tables_number       1
_space_group_crystal_system       triclinic
_cell_length_a                    18.462355
_cell_length_b                    18.445322
_cell_length_c                    18.45667
_cell_angle_alpha                 119.736466
_cell_angle_beta                  119.768493
_cell_angle_gamma                 90.440565
_cell_volume                      4460.43310897

loop_
_atom_site_label
_atom_site_type_symbol
_atom_type_description
_atom_site_fract_x
_atom_site_fract_y
_atom_site_fract_z
_atom_type_partial_charge
C1    C     C_R   0.138471 0.361390 0.999658 0.509847
C2    C     C_R   0.933322 0.209849 0.183876 -0.092723
C3    C     C_R   0.981630 0.259485 0.175874 -0.132826
C4    C     C_R   0.862933 0.639865 0.001425 0.508729
C5    C     C_R   0.939362 0.289902 0.115993 -0.095461
C6    C     C_2   0.729230 0.784831 0.952111 -0.137898
C7    C     C_2   0.676337 0.789880 0.983899 0.017254
C8    C     C_2   0.777308 0.721499 0.941476 -0.163099
C9    C     C_2   0.815823 0.702783 0.010468 -0.102186
C10   C     C_2   0.723877 0.280996 0.443824 -0.158778
C11   C     C_2   0.691371 0.192229 0.387723 -0.094126
C12   C     C_R   0.566903 0.210488 0.886877 -0.087906
C13   C     C_2   0.777629 0.337183 0.556156 -0.158340
C14   C     C_2   0.808896 0.304517 0.612262 -0.093726
C15   C     C_2   0.337171 0.281001 0.057421 -0.158315
C16   C     C_R   0.138583 0.638776 0.277036 0.511062
C17   C     C_2   0.304564 0.192223 0.001017 -0.094734
C18   C     C_2   0.280990 0.337154 0.059764 -0.158296
C19   C     C_2   0.192251 0.304487 0.995754 -0.094674
C20   C     C_2   0.218135 0.775873 0.938032 -0.158839
C21   C     C_2   0.306142 0.810973 0.006434 -0.091195
C22   C     C_2   0.162166 0.724120 0.942175 -0.158757
C23   C     C_R   0.660141 0.230128 0.945899 0.010358
C24   C     C_2   0.195368 0.688884 0.994960 -0.090307
C25   C     C_2   0.219060 0.778761 0.556159 -0.158296
C26   C     C_2   0.307783 0.803419 0.612280 -0.093877
C27   C     C_2   0.162876 0.720222 0.443822 -0.157641
C28   C     C_R   0.861781 0.361400 0.722935 0.511611
C29   C     C_2   0.195476 0.696485 0.387720 -0.094001
C30   C     C_R   0.638350 0.138412 0.277055 0.508892
C31   C     C_R   0.361602 0.861155 0.722962 0.512108
C32   C     C_R   0.636715 0.859540 0.998210 0.515099
C33   C     C_R   0.361430 0.138416 0.000189 0.512090
C34   C     C_R   0.713073 0.284427 0.944627 0.010284
C35   C     C_R   0.360448 0.861027 0.000712 0.514506
C36   C     C_R   0.642158 0.139897 0.002367 0.484892
C37   C     C_R   0.139604 0.638900 0.999281 0.515581
C38   C     C_R   0.859960 0.360034 0.999795 0.482807
C39   C     C_R   0.671920 0.317870 0.885257 -0.090240
C40   C     C_R   0.580388 0.297867 0.828476 -0.118028
C41   C     C_R   0.527988 0.244223 0.829211 -0.118552
C42   C     C_3   0.646207 0.720743 0.994050 -0.380075
C43   C     C_3   0.797936 0.137557 0.151774 -0.377821
C44   C     C_R   0.700510 0.196438 0.005300 0.014629
C45   C     C_R   0.794710 0.216994 0.065386 0.020897
C46   C     C_R   0.846431 0.270036 0.060508 0.001445
C47   C     C_R   0.805490 0.303640 0.001408 0.011051
C48   C     C_R   0.840888 0.188352 0.131191 0.016304
H1    H     H_    0.052851 0.275427 0.217500 0.112992
H2    H     H_    0.709844 0.359581 0.881798 0.113588
H3    H     H_    0.156135 0.234462 0.936992 0.107937
H4    H     H_    0.185394 0.786269 0.877900 0.158319
H5    H     H_    0.340505 0.805809 0.070321 0.106908
H6    H     H_    0.091689 0.713866 0.899129 0.157827
H7    H     H_    0.264361 0.693911 0.034384 0.106209
H8    H     H_    0.343856 0.780666 0.578401 0.108250
H9    H     H_    0.091830 0.696935 0.406513 0.158127
H10   H     H_    0.265453 0.719986 0.421617 0.107885
H11   H     H_    0.550013 0.323952 0.783545 0.111975
H12   H     H_    0.784981 0.694048 0.879291 0.156118
H13   H     H_    0.456809 0.228577 0.784850 0.113057
H14   H     H_    0.522827 0.168953 0.884414 0.118318
H15   H     H_    0.980960 0.329503 0.114007 0.119031
H16   H     H_    0.739201 0.830397 0.934269 0.141807
H17   H     H_    0.575888 0.709657 0.967739 0.138086
H18   H     H_    0.648753 0.655283 0.945623 0.133643
H19   H     H_    0.686845 0.744034 0.075205 0.134105
H20   H     H_    0.408218 0.314798 0.105226 0.157661
H21   H     H_    0.185326 0.801273 0.593451 0.156678
H22   H     H_    0.762333 0.174832 0.183058 0.150681
H23   H     H_    0.813820 0.735316 0.076792 0.119969
H24   H     H_    0.753853 0.070022 0.081888 0.153729
H25   H     H_    0.847358 0.128059 0.210032 0.102951
H26   H     H_    0.969253 0.188466 0.232821 0.111786
H27   H     H_    0.709978 0.314758 0.406516 0.156967
H28   H     H_    0.701666 0.156111 0.421601 0.108473
H29   H     H_    0.792525 0.408280 0.593456 0.155978
H30   H     H_    0.797675 0.234496 0.578387 0.108171
H31   H     H_    0.234586 0.156074 0.954461 0.107213
H32   H     H_    0.314745 0.408250 0.115961 0.157524
O1    O     O_3   0.000000 0.500000 0.000000 -0.442864
O2    O     O_R   0.325040 0.054120 0.939900 -0.541290
O3    O     O_R   0.444330 0.884140 0.060080 -0.541540
O4    O     O_R   0.054210 0.325030 0.939940 -0.540754
O5    O     O_R   0.615830 0.175840 0.060080 -0.549369
O6    O     O_R   0.324160 0.884140 0.939910 -0.541658
O7    O     O_R   0.615850 0.055700 0.939930 -0.544506
O8    O     O_R   0.614980 0.885710 0.939940 -0.551563
O9    O     O_R   0.445830 0.174930 0.060060 -0.539354
O10   O     O_R   0.614300 0.054120 0.229160 -0.539565
O11   O     O_R   0.325070 0.885060 0.770830 -0.541499
O12   O     O_R   0.054160 0.614240 0.229150 -0.539864
O13   O     O_R   0.885070 0.614240 0.060060 -0.541586
O14   O     O_R   0.174980 0.614900 0.229170 -0.541161
O15   O     O_R   0.885740 0.445830 0.770840 -0.542403
O16   O     O_R   0.175880 0.615810 0.060090 -0.540741
O17   O     O_R   0.884210 0.324110 0.939920 -0.541248
O18   O     O_R   0.055710 0.615810 0.939920 -0.542777
O19   O     O_R   0.884190 0.444260 0.060070 -0.541815
O20   O     O_R   0.885120 0.325030 0.770840 -0.538845
O21   O     O_R   0.175010 0.445830 0.060100 -0.540886
O22   O     O_R   0.885710 0.614900 0.939900 -0.541229
O23   O     O_3   0.500040 0.999960 0.000000 -0.441534
O24   O     O_R   0.614930 0.174930 0.229160 -0.544187
O25   O     O_R   0.445880 0.885710 0.770850 -0.537584
O26   O     O_R   0.614330 0.885060 0.060100 -0.539326
Zn1   Zn    Zn3+2 0.956610 0.542450 0.085830 0.933182
Zn2   Zn    Zn3+2 0.129220 0.543380 0.085850 0.938076
Zn3   Zn    Zn3+2 0.957530 0.543380 0.914160 0.932003
Zn4   Zn    Zn3+2 0.956640 0.370790 0.914170 0.937377
Zn5   Zn    Zn3+2 0.543440 0.957510 0.914170 0.925633
Zn6   Zn    Zn3+2 0.542510 0.956570 0.085840 0.933599
Zn7   Zn    Zn3+2 0.370820 0.956570 0.914150 0.935582
Zn8   Zn    Zn3+2 0.543410 0.129170 0.085830 0.923007

loop_
_geom_bond_atom_site_label_1
_geom_bond_atom_site_label_2
_ccdc_geom_bond_type
C43   H25   S    
C15   C18   S    
O1    Zn1   S    
O20   Zn4   S    
C43   H24   S    
C27   C29   D    
C41   H13   S    
C30   O10   A    
C3    H1    S    
C22   H6    S    
O26   Zn6   S    
C45   C46   A    
C1    O4    A    
C12   C23   A    
O14   Zn2   S    
C28   O15   A    
C29   H10   S    
O5    Zn8   S    
O23   Zn7   S    
C11   H28   S    
C35   O6    A    
O7    Zn5   S    
C32   O8    A    
C17   H31   S    
C5    H15   S    
O23   Zn5   S    
C18   C19   D    
C7    C42   S    
C6    H16   S    
C46   C47   A    
O8    Zn5   S    
C11   C30   S    
C8    C9    D    
C4    O22   A    
C42   H17   S    
O10   Zn6   S    
C43   C48   S    
C2    H26   S    
C28   O20   A    
O21   Zn2   S    
O25   Zn5   S    
O1    Zn2   S    
C26   C31   S    
C40   H11   S    
C32   O26   A    
C13   C14   D    
C31   O25   A    
C17   C33   S    
C38   O17   A    
C37   O18   A    
C36   O7    A    
C13   H29   S    
C1    C19   S    
C34   C39   A    
O23   Zn8   S    
C27   H9    S    
C39   C40   A    
C35   O3    A    
C6    C8    S    
C2    C48   A    
C16   C29   S    
O4    Zn4   S    
C23   C44   A    
O11   Zn7   S    
C37   O16   A    
O23   Zn6   S    
C24   H7    S    
C12   C41   A    
C33   O9    A    
C12   H14   S    
C10   H27   S    
O12   Zn1   S    
C23   C34   A    
C24   C37   S    
C20   C21   D    
C38   C47   S    
O24   Zn8   S    
C40   C41   A    
O1    Zn3   S    
C16   O12   A    
C43   H22   S    
C31   O11   A    
O6    Zn7   S    
O15   Zn3   S    
C42   H19   S    
C22   C24   D    
C36   C44   S    
C25   H21   S    
C1    O21   A    
C44   C45   A    
C42   H18   S    
C33   O2    A    
C45   C48   A    
C15   C17   D    
O9    Zn8   S    
C7    C32   S    
C9    H23   S    
O2    Zn7   S    
C20   C22   S    
C38   O19   A    
C3    C5    A    
C10   C13   S    
C26   H8    S    
C6    C7    D    
C21   C35   S    
C36   O5    A    
C25   C27   S    
O19   Zn1   S    
C5    C46   A    
C16   O14   A    
C2    C3    A    
C25   C26   D    
C20   H4    S    
O13   Zn1   S    
C21   H5    S    
O17   Zn4   S    
C15   H20   S    
C14   H30   S    
O16   Zn2   S    
C10   C11   D    
C4    O13   A    
C19   H3    S    
C39   H2    S    
O1    Zn4   S    
C18   H32   S    
C30   O24   A    
O18   Zn3   S    
O3    Zn6   S    
O22   Zn3   S    
C34   C47   A    
C14   C28   S    
C4    C9    S    
C8    H12   S    
