data_mof_unit_46248.cif
_audit_creation_date              2013-03-05T16:30:50-0500
_audit_creation_method            fapswitch 2.2
_symmetry_space_group_name_H-M    P1
_symmetry_Int_Tables_number       1
_space_group_crystal_system       triclinic
_cell_length_a                    11.068594
_cell_length_b                    10.866535
_cell_length_c                    9.593318
_cell_angle_alpha                 88.459454
_cell_angle_beta                  102.958773
_cell_angle_gamma                 91.341295
_cell_volume                      1123.88588803

loop_
_atom_site_label
_atom_site_type_symbol
_atom_site_description
_atom_site_fract_x
_atom_site_fract_y
_atom_site_fract_z
_atom_type_partial_charge
O1    O     O_R   0.500000 0.319640 0.618810 -0.580773
O2    O     O_R   0.500010 0.319680 0.381230 -0.509090
C1    C     C_R   0.505856 0.263092 0.503062 0.907287
O3    O     O_R   0.320680 0.500000 0.575130 -0.564496
O4    O     O_R   0.320690 0.500040 0.337550 -0.549935
C2    C     C_R   0.262792 0.498502 0.442202 0.849189
Cu1   Cu    Cu3+1 0.499990 0.499980 0.640670 0.997389
Cu2   Cu    Cu3+1 0.500010 0.500020 0.359330 1.076765
O5    O     O_R   0.499990 0.680320 0.618770 -0.584954
O6    O     O_R   0.500000 0.680360 0.381190 -0.550273
O7    O     O_R   0.679310 0.499960 0.662450 -0.588997
O8    O     O_R   0.679320 0.500000 0.424870 -0.574048
C3    C     C_R   0.501974 0.738012 0.498878 0.820349
C4    C     C_R   0.737249 0.502101 0.558440 0.854578
H1    H     H_    0.880058 0.491292 0.377573 0.194188
C5    C     C_2   0.127036 0.486893 0.413612 -0.000029
C6    C     C_2   0.064669 0.542178 0.500901 0.188365
H2    H     H_    0.921855 0.530224 0.700451 0.178171
C7    C     C_2   0.872252 0.515762 0.590770 -0.306906
C8    C     C_2   0.931172 0.515944 0.483231 -0.146865
C9    C     C_R   0.493479 0.060391 0.621301 -0.011360
C10   C     C_R   0.524043 0.131229 0.510608 -0.223185
C11   C     C_R   0.570216 0.071383 0.404955 0.270276
C12   C     C_R   0.560686 0.942305 0.396957 0.269400
C13   C     C_R   0.513421 0.872336 0.500552 -0.222491
C14   C     C_R   0.490093 0.933888 0.617485 0.024408
C15   C     C_3   0.382533 0.923459 0.688107 -0.434231
C16   C     C_3   0.386164 0.063734 0.692286 0.202114
H3    H     H_    0.298233 0.883281 0.617304 0.213671
H4    H     H_    0.408864 0.879136 0.796178 0.209833
H5    H     H_    0.411925 0.100788 0.802235 0.157423
C17   C     C_R   0.608213 0.514892 0.100235 0.221640
N1    N     N_R   0.500780 0.500930 0.148120 -0.243368
C18   C     C_R   0.397598 0.462995 0.046799 0.423668
C19   C     C_R   0.397424 0.466712 0.898824 -0.086466
H6    H     H_    0.314862 0.438151 0.822398 0.214565
N2    N     N_R   0.500790 0.500890 0.852210 -0.227518
C20   C     C_R   0.607660 0.515679 0.953251 0.253919
C21   C     C_3   0.695373 0.621996 0.963571 -0.447852
C22   C     C_3   0.697155 0.621445 0.121962 -0.427191
H7    H     H_    0.785435 0.596217 0.940599 0.214547
H8    H     H_    0.652304 0.705272 0.904699 0.228207
H9    H     H_    0.789351 0.598644 0.188474 0.204194
H10   H     H_    0.655130 0.702722 0.154237 0.284116
N3    N     N_R   0.292211 0.407662 0.086952 0.125383
O9    O     O_R   0.303735 0.299907 0.150349 -0.312660
O10   O     O_R   0.182062 0.444028 0.022844 -0.372115
N4    N     N_3   0.126906 0.628954 0.605981 -0.545148
H11   H     H_    0.063815 0.669952 0.655733 0.236197
H12   H     H_    0.161575 0.700959 0.550913 0.205440
N5    N     N_3   0.063106 0.404697 0.304606 -0.546235
H13   H     H_    0.126369 0.364792 0.254788 0.308494
H14   H     H_    0.026820 0.331073 0.355752 0.271775
N6    N     N_R   0.623958 0.140528 0.303432 0.175135
O11   O     O_R   0.719410 0.212905 0.347879 -0.349753
O12   O     O_R   0.577047 0.132455 0.166827 -0.277645
N7    N     N_R   0.596331 0.885340 0.280801 0.124095
O13   O     O_R   0.510912 0.862857 0.166468 -0.346465
O14   O     O_R   0.711588 0.895245 0.270911 -0.338932
N8    N     N_R   0.276123 0.120546 0.602010 0.137984
O15   O     O_R   0.219829 0.206250 0.653649 -0.340048
O16   O     O_R   0.235131 0.088535 0.469689 -0.333736

loop_
_geom_bond_atom_site_label_1
_geom_bond_atom_site_label_2
_geom_bond_distance
_ccdc_geom_bond_type
O4    Cu2   1.948636 S    
C9    C14   1.375534 A    
C6    N4    1.445395 S    
N2    C20   1.360103 A    
C17   C20   1.408504 A    
C15   H3    1.111416 S    
N6    O11   1.301420 A    
C7    C8    1.338361 D    
C5    N5    1.442502 S    
Cu2   O8    1.942868 S    
C17   N1    1.371458 A    
C22   H9    1.105088 S    
N4    H12   1.045558 S    
N1    C18   1.385889 A    
C14   C15   1.496839 S    
Cu1   Cu2   2.699023 S    
C21   H7    1.111607 S    
C18   N3    1.423665 S    
C9    C10   1.392703 A    
C15   H4    1.111753 S    
Cu1   O7    1.948639 S    
C3    C13   1.462369 S    
N7    O13   1.301970 A    
H1    C8    1.081469 S    
C16   N8    1.465622 S    
O3    Cu1   1.942867 S    
O3    C2    1.292735 A    
N4    H11   1.043753 S    
C19   N2    1.359249 A    
C9    C16   1.497377 S    
O8    C4    1.298455 A    
O2    C1    1.295236 A    
C21   H8    1.112248 S    
Cu2   N1    2.027890 S    
C17   C22   1.490245 S    
Cu1   N2    2.027691 S    
O4    C2    1.306158 A    
Cu2   O6    1.976464 S    
O7    C4    1.300941 A    
N6    O12   1.301367 A    
N7    O14   1.302070 A    
C5    C6    1.358076 D    
C11   C12   1.406996 A    
C2    C5    1.468742 S    
N5    H13   1.040299 S    
C21   C22   1.515042 S    
N3    O9    1.300440 A    
C22   H10   1.091245 S    
C6    C8    1.471028 S    
C20   C21   1.482434 S    
C12   C13   1.418946 A    
C11   N6    1.437546 S    
N8    O16   1.302410 A    
C18   C19   1.418637 A    
C12   N7    1.423461 S    
N3    O10   1.301547 A    
C15   C16   1.525261 S    
Cu1   O5    1.965278 S    
O5    C3    1.299342 A    
C10   C11   1.412350 A    
H2    C7    1.085829 S    
C1    C10   1.449248 S    
O1    C1    1.298321 A    
C13   C14   1.396698 A    
O1    Cu1   1.976463 S    
C4    C7    1.461292 S    
C16   H5    1.112898 S    
O2    Cu2   1.965277 S    
C19   H6    1.080480 S    
N8    O15   1.300542 A    
N5    H14   1.046109 S    
O6    C3    1.301527 A    
