data_mof_unit_26787.cif
_audit_creation_date              2012-12-11T14:44:05-0500
_audit_creation_method            fapswitch 2.2
_symmetry_space_group_name_H-M    P1
_symmetry_Int_Tables_number       1
_space_group_crystal_system       triclinic
_cell_length_a                    19.071119
_cell_length_b                    11.220481
_cell_length_c                    18.791302
_cell_angle_alpha                 90.298461
_cell_angle_beta                  89.905385
_cell_angle_gamma                 89.962767
_cell_volume                      4021.03584331

loop_
_atom_site_label
_atom_site_type_symbol
_atom_type_description
_atom_site_fract_x
_atom_site_fract_y
_atom_site_fract_z
_atom_type_partial_charge
C1    C     C_R   0.730175 0.378221 0.146265 0.562872
C2    C     C_R   0.270495 0.371420 0.855054 0.552447
C3    C     C_R   0.230175 0.878221 0.146265 0.562872
C4    C     C_R   0.770495 0.871420 0.855054 0.552447
C5    C     C_R   0.460545 0.388660 0.942989 -0.030600
C6    C     C_R   0.455784 0.350438 0.088645 -0.112643
C7    C     C_R   0.960545 0.888660 0.942989 -0.030600
C8    C     C_R   0.955784 0.850438 0.088645 -0.112644
C9    C     C_R   0.945912 0.982252 0.989598 -0.072647
C10   C     C_R   0.942779 0.962586 0.062249 -0.095076
C11   C     C_R   0.445912 0.482252 0.989598 -0.072647
C12   C     C_R   0.442779 0.462586 0.062249 -0.095076
C13   C     C_R   0.714999 0.836067 0.044716 -0.074888
C14   C     C_R   0.310961 0.891510 0.965001 -0.019007
C15   C     C_R   0.214999 0.336067 0.044716 -0.074888
C16   C     C_R   0.810962 0.391510 0.965001 -0.019007
C17   C     C_R   0.716268 0.817003 0.970988 -0.163737
C18   C     C_R   0.308771 0.903317 0.039763 -0.108180
C19   C     C_R   0.216268 0.317003 0.970988 -0.163737
C20   C     C_R   0.808772 0.403317 0.039763 -0.108180
C21   C     C_R   0.749491 0.901067 0.926408 -0.027146
C22   C     C_R   0.244291 0.919333 0.073735 -0.006689
C23   C     C_R   0.249491 0.401068 0.926408 -0.027146
C24   C     C_R   0.744291 0.419333 0.073735 -0.006689
C25   C     C_R   0.776216 0.004328 0.953799 -0.102627
C26   C     C_R   0.185179 0.949942 0.033547 -0.082324
C27   C     C_R   0.276216 0.504328 0.953799 -0.102627
C28   C     C_R   0.685180 0.449942 0.033547 -0.082324
C29   C     C_R   0.777342 0.022510 0.025205 0.212437
C30   C     C_R   0.187687 0.953791 0.961084 0.203718
C31   C     C_R   0.277342 0.522510 0.025205 0.212437
C32   C     C_R   0.687686 0.453791 0.961084 0.203718
C33   C     C_R   0.747435 0.939450 0.072028 0.034076
C34   C     C_R   0.250719 0.927583 0.925421 0.015842
C35   C     C_R   0.247435 0.439450 0.072028 0.034076
C36   C     C_R   0.750719 0.427583 0.925421 0.015842
C37   C     C_R   0.569817 0.178050 0.477932 -0.130843
C38   C     C_R   0.554662 0.180495 0.550453 -0.164358
C39   C     C_R   0.069818 0.678048 0.477932 -0.130844
C40   C     C_R   0.054662 0.680493 0.550453 -0.164359
C41   C     C_R   0.485051 0.171353 0.572204 0.027819
C42   C     C_R   0.515205 0.172510 0.427935 0.029289
C43   C     C_R   0.985051 0.671353 0.572204 0.027819
C44   C     C_R   0.015205 0.672510 0.427935 0.029289
C45   C     C_R   0.535305 0.153496 0.145587 0.535147
C46   C     C_R   0.467191 0.157057 0.853435 0.541863
C47   C     C_R   0.035305 0.653496 0.145587 0.535147
C48   C     C_R   0.967191 0.657057 0.853435 0.541863
C49   C     C_R   0.430493 0.178949 0.522282 -0.131997
C50   C     C_R   0.445658 0.182464 0.449804 -0.165685
C51   C     C_R   0.930494 0.678951 0.522282 -0.131997
C52   C     C_R   0.945659 0.682466 0.449804 -0.165684
C53   C     C_R   0.821127 0.921208 0.453630 -0.195977
C54   C     C_R   0.178469 0.921071 0.546567 -0.195015
C55   C     C_R   0.321127 0.421207 0.453630 -0.195977
C56   C     C_R   0.678469 0.421072 0.546567 -0.195015
C57   C     C_R   0.822579 0.919520 0.527187 -0.130544
C58   C     C_R   0.177081 0.920046 0.472993 -0.132256
C59   C     C_R   0.322579 0.419519 0.527187 -0.130544
C60   C     C_R   0.677081 0.420048 0.472993 -0.132256
C61   C     C_R   0.762262 0.889662 0.566674 -0.011237
C62   C     C_R   0.237430 0.890170 0.433404 -0.009501
C63   C     C_R   0.262263 0.389661 0.566674 -0.011237
C64   C     C_R   0.737431 0.390171 0.433404 -0.009501
C65   C     C_R   0.701437 0.852471 0.528526 -0.025047
C66   C     C_R   0.298097 0.852344 0.471326 -0.027318
C67   C     C_R   0.201437 0.352470 0.528526 -0.025047
C68   C     C_R   0.798097 0.352345 0.471326 -0.027318
C69   C     C_R   0.703787 0.847182 0.454138 0.212627
C70   C     C_R   0.295685 0.846085 0.545601 0.210587
C71   C     C_R   0.203787 0.347181 0.454138 0.212627
C72   C     C_R   0.795684 0.346086 0.545601 0.210587
C73   C     C_R   0.758476 0.901444 0.417715 0.031507
C74   C     C_R   0.241105 0.900464 0.582359 0.035137
C75   C     C_R   0.258476 0.401443 0.417715 0.031507
C76   C     C_R   0.741105 0.400464 0.582359 0.035137
C77   C     C_R   0.740553 0.974337 0.146177 0.566782
C78   C     C_R   0.258717 0.970456 0.852642 0.557540
C79   C     C_R   0.240553 0.474337 0.146177 0.566782
C80   C     C_R   0.758717 0.470456 0.852642 0.557540
C81   C     C_R   0.727255 0.371391 0.355951 0.542417
C82   C     C_R   0.272669 0.371085 0.644077 0.556457
C83   C     C_R   0.227254 0.871391 0.355951 0.542417
C84   C     C_R   0.772669 0.871085 0.644077 0.556457
C85   C     C_R   0.533753 0.157898 0.353767 0.528338
C86   C     C_R   0.466297 0.157478 0.646284 0.534538
C87   C     C_R   0.033753 0.657898 0.353767 0.528338
C88   C     C_R   0.966297 0.657479 0.646284 0.534538
C89   C     C_R   0.743571 0.965503 0.351347 0.548733
C90   C     C_R   0.256349 0.965125 0.648714 0.558643
C91   C     C_R   0.243571 0.465503 0.351347 0.548733
C92   C     C_R   0.756350 0.465126 0.648714 0.558644
C93   C     C_R   0.498189 0.175286 0.924157 0.021576
C94   C     C_R   0.514339 0.158398 0.071458 0.008211
C95   C     C_R   0.998189 0.675286 0.924157 0.021576
C96   C     C_R   0.014339 0.658398 0.071458 0.008211
C97   C     C_R   0.479053 0.274243 0.968863 0.047637
C98   C     C_R   0.481695 0.259746 0.043514 0.016008
C99   C     C_R   0.979053 0.774243 0.968863 0.047636
C100  C     C_R   0.981696 0.759746 0.043514 0.016008
C101  C     C_R   0.544177 0.073048 0.025613 -0.154192
C102  C     C_R   0.535663 0.081114 0.952929 -0.156178
C103  C     C_R   0.044176 0.573048 0.025613 -0.154192
C104  C     C_R   0.035663 0.581114 0.952929 -0.156178
Cr1   Cr    Cr6+3 0.772000 0.169640 0.250110 1.037436
Cr2   Cr    Cr6+3 0.228000 0.169640 0.749890 1.030988
Cr3   Cr    Cr6+3 0.272000 0.669640 0.250110 1.037436
Cr4   Cr    Cr6+3 0.728000 0.669640 0.749890 1.030987
Cr5   Cr    Cr6+3 0.614960 0.323350 0.249260 0.996707
Cr6   Cr    Cr6+3 0.385040 0.323350 0.750740 1.010993
Cr7   Cr    Cr6+3 0.114960 0.823350 0.249260 0.996707
Cr8   Cr    Cr6+3 0.885040 0.823350 0.750740 1.010993
Cr9   Cr    Cr6+3 0.616670 0.010620 0.250840 1.043145
Cr10  Cr    Cr6+3 0.383330 0.010620 0.749160 1.044963
Cr11  Cr    Cr6+3 0.116670 0.510620 0.250840 1.043145
Cr12  Cr    Cr6+3 0.883330 0.510620 0.749160 1.044963
H1    H     H_    0.574662 0.999238 0.045974 0.142220
H2    H     H_    0.556442 0.011469 0.918955 0.134069
H3    H     H_    0.074662 0.499238 0.045974 0.142220
H4    H     H_    0.056442 0.511469 0.918955 0.134069
H5    H     H_    0.868014 0.945060 0.425221 0.128193
H6    H     H_    0.131639 0.945393 0.575143 0.130988
H7    H     H_    0.368014 0.445059 0.425221 0.128193
H8    H     H_    0.631640 0.445395 0.575143 0.130988
H9    H     H_    0.872074 0.939673 0.552737 0.184101
H10   H     H_    0.127681 0.940740 0.447498 0.183850
H11   H     H_    0.372074 0.439671 0.552736 0.184100
H12   H     H_    0.627681 0.440742 0.447498 0.183850
H13   H     H_    0.465231 0.414025 0.888073 0.188363
H14   H     H_    0.448815 0.337894 0.145220 0.123362
H15   H     H_    0.965231 0.914025 0.888073 0.188363
H16   H     H_    0.948815 0.837894 0.145220 0.123362
H17   H     H_    0.936743 0.070459 0.969154 0.176650
H18   H     H_    0.931165 0.034152 0.098961 0.173383
H19   H     H_    0.436743 0.570459 0.969154 0.176650
H20   H     H_    0.431165 0.534152 0.098961 0.173383
H21   H     H_    0.695462 0.734642 0.949330 0.175797
H22   H     H_    0.353951 0.880536 0.071752 0.160782
H23   H     H_    0.195462 0.234642 0.949330 0.175797
H24   H     H_    0.853951 0.380536 0.071752 0.160782
H25   H     H_    0.801724 0.066811 0.919502 0.149948
H26   H     H_    0.134334 0.965049 0.057832 0.191355
H27   H     H_    0.301724 0.566811 0.919502 0.149948
H28   H     H_    0.634334 0.465049 0.057832 0.191355
H29   H     H_    0.624091 0.175133 0.460780 0.123749
H30   H     H_    0.596886 0.180145 0.588949 0.123228
H31   H     H_    0.124091 0.675130 0.460780 0.123749
H32   H     H_    0.096886 0.680142 0.588949 0.123228
H33   H     H_    0.376205 0.176813 0.539397 0.121143
H34   H     H_    0.403429 0.183345 0.411317 0.115758
H35   H     H_    0.876205 0.676816 0.539397 0.121143
H36   H     H_    0.903429 0.683348 0.411317 0.115758
O1    O     O_R   0.787540 0.042690 0.170470 -0.468871
O2    O     O_R   0.212460 0.042690 0.829530 -0.452736
O3    O     O_R   0.287540 0.542690 0.170470 -0.468871
O4    O     O_R   0.712460 0.542690 0.829530 -0.452736
O5    O     O_R   0.556540 0.252920 0.323970 -0.509809
O6    O     O_R   0.443460 0.252920 0.676030 -0.503082
O7    O     O_R   0.056540 0.752920 0.323970 -0.509809
O8    O     O_R   0.943460 0.752920 0.676030 -0.503082
O9    O     O_R   0.545870 0.051100 0.330840 -0.525050
O10   O     O_R   0.454130 0.051100 0.669160 -0.525133
O11   O     O_R   0.045870 0.551100 0.330840 -0.525051
O12   O     O_R   0.954130 0.551100 0.669160 -0.525133
O13   O     O_R   0.681340 0.959300 0.325510 -0.452006
O14   O     O_R   0.318660 0.959300 0.674490 -0.453081
O15   O     O_R   0.181340 0.459300 0.325510 -0.452007
O16   O     O_R   0.818660 0.459300 0.674490 -0.453081
O17   O     O_3   0.667880 0.167870 0.250070 -0.264369
O18   O     O_3   0.332120 0.167870 0.749930 -0.272603
O19   O     O_3   0.167880 0.667870 0.250070 -0.264369
O20   O     O_3   0.832120 0.667870 0.749930 -0.272603
O21   O     O_R   0.765660 0.292160 0.175050 -0.444485
O22   O     O_R   0.234340 0.292160 0.824950 -0.500712
O23   O     O_R   0.265660 0.792160 0.175050 -0.444485
O24   O     O_R   0.734340 0.792160 0.824950 -0.500712
O25   O     O_R   0.670190 0.408980 0.168550 -0.539673
O26   O     O_R   0.329810 0.408980 0.831450 -0.538560
O27   O     O_R   0.170190 0.908980 0.168550 -0.539673
O28   O     O_R   0.829810 0.908980 0.831450 -0.538560
O29   O     O_R   0.556580 0.251450 0.175160 -0.506746
O30   O     O_R   0.443420 0.251450 0.824840 -0.521597
O31   O     O_R   0.056580 0.751450 0.175160 -0.506746
O32   O     O_R   0.943420 0.751450 0.824840 -0.521597
O33   O     O_R   0.545920 0.049510 0.170320 -0.522520
O34   O     O_R   0.454080 0.049510 0.829680 -0.504700
O35   O     O_R   0.045920 0.549510 0.170320 -0.522520
O36   O     O_R   0.954080 0.549510 0.829680 -0.504700
O37   O     O_R   0.681390 0.957840 0.176710 -0.498701
O38   O     O_R   0.318610 0.957840 0.823290 -0.513064
O39   O     O_R   0.181390 0.457840 0.176710 -0.498701
O40   O     O_R   0.818610 0.457840 0.823290 -0.513064
O41   O     O_R   0.787500 0.044280 0.330990 -0.567220
O42   O     O_R   0.212500 0.044280 0.669010 -0.561122
O43   O     O_R   0.287500 0.544280 0.330990 -0.567219
O44   O     O_R   0.712500 0.544280 0.669010 -0.561122
O45   O     O_R   0.765610 0.293630 0.323860 -0.510132
O46   O     O_R   0.234390 0.293630 0.676140 -0.508385
O47   O     O_R   0.265610 0.793630 0.323860 -0.510132
O48   O     O_R   0.734390 0.793630 0.676140 -0.508386
O49   O     O_R   0.670140 0.410570 0.329080 -0.521234
O50   O     O_R   0.329860 0.410570 0.670920 -0.500966
O51   O     O_R   0.170140 0.910570 0.329080 -0.521234
O52   O     O_R   0.829860 0.910570 0.670920 -0.500966
C105  C     C_R   0.636673 0.811881 0.563335 0.062416
C106  C     C_R   0.575968 0.880784 0.563133 -0.102140
C107  C     C_R   0.514947 0.838420 0.595340 -0.058486
C108  C     C_R   0.515418 0.728583 0.629997 -0.082657
C109  C     C_R   0.573654 0.654972 0.623482 -0.107708
C110  C     C_R   0.632258 0.695347 0.585854 -0.004066
H37   H     H_    0.575437 0.963061 0.534860 0.118953
H38   H     H_    0.467242 0.889040 0.591657 0.198699
H39   H     H_    0.470181 0.697649 0.659155 0.169830
H40   H     H_    0.572325 0.567060 0.646610 0.118132
H41   H     H_    0.675634 0.639632 0.572319 0.159916
C111  C     C_R   0.362820 0.812003 0.436339 0.061240
C112  C     C_R   0.422940 0.882140 0.435977 -0.107087
C113  C     C_R   0.484388 0.839344 0.404605 -0.059740
C114  C     C_R   0.484756 0.727960 0.371167 -0.082719
C115  C     C_R   0.426998 0.653682 0.377863 -0.108387
C116  C     C_R   0.367982 0.694670 0.414755 0.000004
H42   H     H_    0.422680 0.965719 0.463328 0.118823
H43   H     H_    0.531833 0.890642 0.408104 0.199100
H44   H     H_    0.530310 0.696506 0.342881 0.163992
H45   H     H_    0.429083 0.564825 0.355553 0.106602
H46   H     H_    0.324975 0.638726 0.428627 0.161694
C117  C     C_R   0.136674 0.311880 0.563335 0.062417
C118  C     C_R   0.075969 0.380783 0.563133 -0.102141
C119  C     C_R   0.014948 0.338420 0.595340 -0.058487
C120  C     C_R   0.015418 0.228582 0.629997 -0.082657
C121  C     C_R   0.073654 0.154971 0.623481 -0.107706
C122  C     C_R   0.132258 0.195345 0.585854 -0.004065
H47   H     H_    0.075438 0.463060 0.534861 0.118952
H48   H     H_    0.967243 0.389040 0.591657 0.198700
H49   H     H_    0.970181 0.197648 0.659154 0.169830
H50   H     H_    0.072325 0.067058 0.646609 0.118132
H51   H     H_    0.175635 0.139630 0.572318 0.159916
C123  C     C_R   0.862820 0.312004 0.436339 0.061240
C124  C     C_R   0.922941 0.382141 0.435978 -0.107087
C125  C     C_R   0.984388 0.339345 0.404605 -0.059740
C126  C     C_R   0.984756 0.227961 0.371167 -0.082719
C127  C     C_R   0.926998 0.153683 0.377863 -0.108388
C128  C     C_R   0.867982 0.194671 0.414754 0.000004
H52   H     H_    0.922680 0.465720 0.463328 0.118823
H53   H     H_    0.031834 0.390643 0.408104 0.199100
H54   H     H_    0.030310 0.196507 0.342881 0.163993
H55   H     H_    0.929083 0.064826 0.355552 0.106602
H56   H     H_    0.824975 0.138727 0.428627 0.161694
Cl1   Cl    Cl    0.650151 0.746980 0.407233 -0.710113
Cl2   Cl    Cl    0.349841 0.746304 0.591862 -0.690386
Cl3   Cl    Cl    0.150151 0.246979 0.407233 -0.710113
Cl4   Cl    Cl    0.849841 0.246305 0.591862 -0.690386
C129  C     C_R   0.680875 0.750230 0.093449 0.037501
C130  C     C_R   0.718750 0.704739 0.151512 -0.099024
C131  C     C_R   0.683556 0.651828 0.208392 -0.045142
C132  C     C_R   0.610797 0.637819 0.206046 -0.047124
C133  C     C_R   0.573117 0.678120 0.147262 -0.117034
C134  C     C_R   0.607884 0.734842 0.091391 -0.067147
H57   H     H_    0.774985 0.717208 0.154728 0.088235
H58   H     H_    0.712774 0.620565 0.253965 0.149680
H59   H     H_    0.583859 0.593965 0.249249 0.116735
H60   H     H_    0.516708 0.668974 0.146082 0.103172
H61   H     H_    0.577371 0.773055 0.049110 0.103209
C135  C     C_R   0.372019 0.828406 0.930154 0.103839
C136  C     C_R   0.360814 0.750154 0.872044 -0.043444
C137  C     C_R   0.416849 0.696312 0.836357 -0.123136
C138  C     C_R   0.485206 0.716993 0.859035 -0.098433
C139  C     C_R   0.497238 0.788557 0.918636 -0.100489
C140  C     C_R   0.441060 0.842635 0.954772 -0.075177
H62   H     H_    0.308266 0.733671 0.852594 0.110012
H63   H     H_    0.407180 0.639075 0.790877 0.131243
H64   H     H_    0.528788 0.676489 0.830954 0.157503
H65   H     H_    0.550525 0.803199 0.935803 0.112207
H66   H     H_    0.451654 0.897372 0.000839 0.101907
C141  C     C_R   0.180875 0.250230 0.093449 0.037501
C142  C     C_R   0.218749 0.204739 0.151512 -0.099023
C143  C     C_R   0.183556 0.151828 0.208392 -0.045142
C144  C     C_R   0.110797 0.137819 0.206046 -0.047124
C145  C     C_R   0.073116 0.178121 0.147262 -0.117033
C146  C     C_R   0.107883 0.234842 0.091391 -0.067146
H67   H     H_    0.274985 0.217208 0.154728 0.088235
H68   H     H_    0.212774 0.120565 0.253965 0.149680
H69   H     H_    0.083859 0.093965 0.249249 0.116735
H70   H     H_    0.016708 0.168974 0.146082 0.103172
H71   H     H_    0.077371 0.273055 0.049110 0.103209
C147  C     C_R   0.872019 0.328406 0.930154 0.103839
C148  C     C_R   0.860814 0.250154 0.872044 -0.043444
C149  C     C_R   0.916849 0.196312 0.836357 -0.123136
C150  C     C_R   0.985206 0.216993 0.859035 -0.098433
C151  C     C_R   0.997238 0.288557 0.918636 -0.100489
C152  C     C_R   0.941060 0.342635 0.954772 -0.075177
H72   H     H_    0.808265 0.233671 0.852594 0.110012
H73   H     H_    0.907179 0.139075 0.790877 0.131243
H74   H     H_    0.028788 0.176489 0.830954 0.157503
H75   H     H_    0.050525 0.303199 0.935803 0.112207
H76   H     H_    0.951654 0.397372 0.000839 0.101907
Cl5   Cl    Cl    0.820901 0.150234 0.051320 -0.704721
Cl6   Cl    Cl    0.108161 0.989060 0.918553 -0.691436
Cl7   Cl    Cl    0.320901 0.650234 0.051320 -0.704721
Cl8   Cl    Cl    0.608161 0.489061 0.918553 -0.691436

loop_
_geom_bond_atom_site_label_1
_geom_bond_atom_site_label_2
_ccdc_geom_bond_type
C62   C83   S    
C135  C140  A    
Cr10  O38   S    
C55   C59   A    
Cr8   O32   S    
Cr3   O19   S    
C7    C99   A    
C147  C152  A    
C48   O36   A    
C95   C99   A    
Cr6   O26   S    
C29   C33   A    
C119  H48   S    
C146  H71   S    
C29   Cl5   S    
C54   C74   A    
C129  C134  A    
C40   C43   A    
C141  C142  A    
C70   C74   A    
C27   H27   S    
C80   O4    A    
C121  H50   S    
C28   H28   S    
C69   Cl1   S    
Cr11  O39   S    
C84   O52   A    
Cr1   O45   S    
Cr12  O40   S    
C79   O39   A    
Cr7   O27   S    
C80   O40   A    
C41   C49   A    
C118  C119  A    
C25   C29   A    
C55   H7    S    
C27   C31   A    
C51   C52   A    
C28   C32   A    
C47   O31   A    
C36   C80   S    
Cr7   O51   S    
C48   O32   A    
C82   O46   A    
C30   C34   A    
C106  C107  A    
C17   C21   A    
C19   C23   A    
C136  H62   S    
C13   C33   A    
C37   C38   A    
C91   O43   A    
C138  H64   S    
C92   O16   A    
C117  C118  A    
C68   C72   A    
C89   O41   A    
C46   O34   A    
C15   C141  S    
Cr1   O17   S    
C125  H53   S    
Cr8   O52   S    
C6    C98   A    
Cr8   O8    S    
C150  H74   S    
C92   O44   A    
C61   C84   S    
C57   C61   A    
C59   C63   A    
C60   C64   A    
Cr6   O50   S    
C74   C90   S    
C141  C146  A    
C81   O45   A    
C45   O33   A    
C66   C70   A    
C130  H57   S    
C87   O7    A    
C88   O8    A    
Cr11  O11   S    
C14   C135  S    
Cr9   O9    S    
C61   C65   A    
C19   H23   S    
C128  H56   S    
Cr12  O16   S    
C17   H21   S    
Cr3   O3    S    
C9    H17   S    
Cr1   O1    S    
C143  H68   S    
C108  H39   S    
C6    H14   S    
Cr5   O5    S    
C97   C98   A    
C113  H43   S    
Cr2   O42   S    
C1    O21   A    
C140  H66   S    
C32   C36   A    
C91   O15   A    
C137  H63   S    
C57   H9    S    
C129  C130  A    
C65   C105  S    
C59   H11   S    
C110  H41   S    
C37   C42   A    
C126  C127  A    
C38   H30   S    
C77   O1    A    
C114  H44   S    
C135  C136  A    
C9    C10   A    
C75   C91   S    
Cr8   O28   S    
C55   C75   A    
C44   C52   A    
Cr1   O21   S    
C143  C144  A    
Cr2   O18   S    
C115  C116  A    
Cr5   O17   S    
C150  C151  A    
C107  C108  A    
C62   C66   A    
C63   C82   S    
C38   C41   A    
C39   C40   A    
C30   Cl6   S    
C112  C113  A    
C88   O12   A    
C79   O3    A    
C123  C128  A    
Cr11  O35   S    
C67   C117  S    
C145  C146  A    
Cr9   O33   S    
Cr7   O31   S    
C109  C110  A    
C118  H47   S    
C42   C50   A    
C8    C10   A    
C5    C97   A    
C58   H10   S    
C144  H69   S    
Cr4   O20   S    
C4    O24   A    
C122  H51   S    
C47   O35   A    
C93   C97   A    
Cr5   O29   S    
C21   C25   A    
C131  H58   S    
C18   C22   A    
C24   C28   A    
C14   C34   A    
C138  C139  A    
C26   C30   A    
C39   C44   A    
C13   C17   A    
C77   O37   A    
C46   O30   A    
C8    C100  A    
C16   C36   A    
Cr3   O47   S    
C33   C77   S    
C105  C110  A    
C96   C100  A    
C35   C79   S    
C125  C126  A    
Cr7   O19   S    
C66   C111  S    
C64   C81   S    
C56   C60   A    
C142  C143  A    
C1    C24   S    
C49   C50   A    
C12   H20   S    
C2    C23   S    
C148  H72   S    
C3    C22   S    
C2    O26   A    
Cr11  O15   S    
C58   C62   A    
C101  C102  A    
C85   O9    A    
C124  C125  A    
C32   Cl8   S    
C45   O29   A    
C15   C19   A    
C41   C86   S    
C43   C88   S    
C56   H8    S    
C5    C11   A    
C6    C12   A    
Cr10  O10   S    
C94   C98   A    
Cr12  O20   S    
Cr10  O18   S    
C151  C152  A    
C71   Cl3   S    
C18   H22   S    
Cr7   O7    S    
C111  C116  A    
C108  C109  A    
Cr2   O2    S    
C47   C96   S    
C69   C73   A    
Cr4   O44   S    
C44   C87   S    
C70   Cl2   S    
C7    H15   S    
Cr6   O6    S    
Cr2   O46   S    
C5    H13   S    
C51   H35   S    
C132  H59   S    
C90   O14   A    
C85   O5    A    
C4    O28   A    
C103  H3    S    
C40   H32   S    
C126  H54   S    
Cr11  O19   S    
C114  C115  A    
C53   C57   A    
C78   O2    A    
C81   O49   A    
C116  H46   S    
C133  H60   S    
C130  C131  A    
C11   H19   S    
C148  C149  A    
C90   O42   A    
C60   H12   S    
C52   H36   S    
C127  C128  A    
Cr2   O22   S    
C120  H49   S    
C42   C85   S    
C149  H73   S    
Cr6   O18   S    
C83   O51   A    
C31   C35   A    
C16   C147  S    
C64   C68   A    
C82   O50   A    
C112  H42   S    
C123  C124  A    
C25   H25   S    
Cr9   O13   S    
C93   C102  A    
Cr9   O17   S    
Cr9   O37   S    
C109  H40   S    
Cr10  O34   S    
C101  H1    S    
C20   H24   S    
Cr5   O49   S    
C152  H76   S    
C73   C89   S    
C53   H5    S    
C43   C51   A    
Cr8   O20   S    
Cr3   O23   S    
C65   C69   A    
Cr4   O24   S    
C67   C71   A    
C120  C121  A    
Cr5   O25   S    
C139  C140  A    
Cr6   O30   S    
C22   C26   A    
C96   C103  A    
C103  C104  A    
C2    O22   A    
C104  H4    S    
C87   O11   A    
C56   C76   A    
C48   C95   S    
C14   C18   A    
C134  H61   S    
C78   O38   A    
C72   C76   A    
Cr3   O43   S    
C105  C106  A    
C84   O48   A    
Cr1   O41   S    
Cr12  O36   S    
C119  C120  A    
C133  C134  A    
C147  C148  A    
C142  H67   S    
C3    O27   A    
C1    O25   A    
C106  H37   S    
C20   C24   A    
C94   C101  A    
Cr4   O4    S    
C139  H65   S    
C8    H16   S    
C124  H52   S    
C86   O10   A    
C23   C27   A    
C136  C137  A    
C102  H2    S    
C16   C20   A    
C117  C122  A    
C54   H6    S    
C45   C94   S    
C15   C35   A    
Cr10  O14   S    
C63   C67   A    
C151  H75   S    
C111  C112  A    
C145  H70   S    
Cr4   O48   S    
C50   H34   S    
C99   C100  A    
C13   C129  S    
C132  C133  A    
C72   Cl4   S    
C86   O6    A    
C89   O13   A    
C31   Cl7   S    
C76   C92   S    
C107  H38   S    
C83   O47   A    
C131  C132  A    
C95   C104  A    
C54   C58   A    
C3    O23   A    
C7    C9    A    
C144  C145  A    
Cr12  O12   S    
C53   C73   A    
C10   H18   S    
C11   C12   A    
C127  H55   S    
C49   H33   S    
C149  C150  A    
C68   C123  S    
C34   C78   S    
C71   C75   A    
C4    C21   S    
C113  C114  A    
C46   C93   S    
C115  H45   S    
C137  C138  A    
C39   H31   S    
C121  C122  A    
C37   H29   S    
C26   H26   S    
