data_mof_unit_29927.cif
_audit_creation_date              2012-10-26T20:32:59-0400
_audit_creation_method            fapswitch 2.2
_symmetry_space_group_name_H-M    P1
_symmetry_Int_Tables_number       1
_space_group_crystal_system       triclinic
_cell_length_a                    27.762395
_cell_length_b                    10.822365
_cell_length_c                    9.579596
_cell_angle_alpha                 90.899681
_cell_angle_beta                  89.247963
_cell_angle_gamma                 91.500168
_cell_volume                      2876.661356

loop_
_atom_site_label
_atom_site_type_symbol
_atom_type_description
_atom_site_fract_x
_atom_site_fract_y
_atom_site_fract_z
_atom_type_partial_charge
C1    C     C_R   0.499484 0.262781 0.498873 0.547922
C2    C     C_R   0.973743 0.370545 0.505660 -0.024167
C3    C     C_R   0.975603 0.593645 0.459394 0.024112
C4    C     C_R   0.407724 0.500623 0.500462 0.551744
C5    C     C_R   0.949249 0.481363 0.482339 0.022858
C6    C     C_R   0.946198 0.259396 0.515121 -0.112708
C7    C     C_R   0.896064 0.256943 0.511065 0.248164
C8    C     C_R   0.871009 0.368106 0.497136 0.029726
C9    C     C_R   0.897973 0.480208 0.481759 -0.068710
C10   C     C_R   0.873669 0.591907 0.466100 0.022021
C11   C     C_R   0.823287 0.590884 0.466792 0.379733
C12   C     C_R   0.279899 0.420023 0.406007 -0.065809
C13   C     C_R   0.820071 0.372469 0.497140 0.426067
C14   C     C_R   0.718914 0.440784 0.367810 0.024075
C15   C     C_R   0.668562 0.445792 0.374596 -0.164551
C16   C     C_R   0.501475 0.737704 0.500471 0.543135
C17   C     C_R   0.672536 0.533917 0.608153 -0.163677
C18   C     C_R   0.722573 0.530649 0.602219 -0.101348
C19   C     C_R   0.746074 0.484918 0.482784 0.227136
C20   C     C_R   0.024891 0.373901 0.516795 0.006227
C21   C     C_R   0.051187 0.484056 0.485096 0.034454
C22   C     C_R   0.026666 0.592779 0.450560 0.021705
C23   C     C_R   0.254406 0.498367 0.496432 0.242794
C24   C     C_R   0.050678 0.270203 0.558238 -0.147955
C25   C     C_R   0.104074 0.696644 0.403699 -0.118235
C26   C     C_R   0.949892 0.703857 0.447698 -0.137720
C27   C     C_R   0.899971 0.702749 0.451019 -0.097364
C28   C     C_R   0.592413 0.498372 0.498831 0.550745
C29   C     C_R   0.054164 0.696970 0.406224 -0.142655
C30   C     C_R   0.532645 0.069559 0.580091 -0.005888
C31   C     C_R   0.501472 0.130233 0.494204 0.001041
C32   C     C_R   0.475861 0.060873 0.393444 -0.162802
C33   C     C_R   0.476400 0.931717 0.395773 -0.157490
C34   C     C_R   0.102431 0.485946 0.487718 -0.039923
C35   C     C_R   0.503282 0.871500 0.497144 -0.001309
C36   C     C_R   0.535254 0.943013 0.578711 -0.020627
C37   C     C_3   0.550186 0.941806 0.729142 -0.131272
C38   C     C_3   0.544492 0.083260 0.730870 -0.115279
C39   C     C_R   0.541072 0.528234 0.072662 0.144108
C40   C     C_R   0.178395 0.391378 0.540779 0.386203
C41   C     C_R   0.461539 0.456163 0.077227 -0.018384
C42   C     C_R   0.461115 0.454737 0.929375 0.072785
C43   C     C_R   0.541135 0.527866 0.925589 0.147400
C44   C     C_3   0.569535 0.645791 0.922678 -0.269389
C45   C     C_R   0.127572 0.381008 0.530094 0.013677
C46   C     C_3   0.569906 0.645618 0.080877 -0.275972
C47   C     C_R   0.179028 0.594423 0.448079 0.387863
C48   C     C_R   0.279475 0.579249 0.587152 -0.070475
C49   C     C_R   0.329747 0.580275 0.588835 -0.146557
C50   C     C_R   0.330060 0.421635 0.406983 -0.148830
C51   C     C_R   0.601403 0.900950 0.754328 0.038994
C52   C     C_R   0.631527 0.856455 0.646085 -0.093214
C53   C     C_R   0.679611 0.830718 0.672429 -0.112959
C54   C     C_R   0.697733 0.844578 0.807200 -0.100830
C55   C     C_R   0.667956 0.885830 0.915883 -0.117227
C56   C     C_R   0.100967 0.271405 0.562609 -0.013491
C57   C     C_R   0.620147 0.914341 0.889652 -0.094891
C58   C     C_R   0.588689 0.164954 0.760599 0.068085
C59   C     C_R   0.628806 0.170608 0.668935 -0.063316
C60   C     C_R   0.669775 0.241310 0.704372 -0.098334
C61   C     C_R   0.670838 0.309099 0.829609 -0.104549
C62   C     C_R   0.631018 0.306045 0.919990 -0.113266
C63   C     C_R   0.590150 0.234263 0.885905 -0.082545
C64   C     C_R   0.416854 0.400232 0.867739 0.068995
C65   C     C_R   0.372830 0.459916 0.887564 -0.110018
C66   C     C_R   0.329640 0.401976 0.845714 -0.109540
C67   C     C_R   0.128599 0.593286 0.447014 0.024306
C68   C     C_R   0.330055 0.284905 0.782279 -0.094136
C69   C     C_R   0.373478 0.223767 0.765227 -0.130336
C70   C     C_R   0.416487 0.280020 0.810860 -0.066695
C71   C     C_R   0.123859 0.152383 0.591331 0.082752
C72   C     C_R   0.117525 0.096294 0.721748 -0.078768
C73   C     C_R   0.138807 0.983294 0.747578 -0.111981
C74   C     C_R   0.166446 0.925751 0.643585 -0.090411
C75   C     C_R   0.172566 0.980735 0.513279 -0.102821
C76   C     C_R   0.150850 0.092744 0.486382 -0.057294
C77   C     C_R   0.742150 0.387608 0.241233 0.048435
C78   C     C_R   0.355146 0.500406 0.499852 0.020720
C79   C     C_R   0.729731 0.266745 0.196474 -0.069611
C80   C     C_R   0.751740 0.215595 0.077639 -0.090668
C81   C     C_R   0.785981 0.284930 0.002005 -0.096646
C82   C     C_R   0.798083 0.405723 0.044740 -0.124577
C83   C     C_R   0.776252 0.457105 0.163758 -0.093483
C84   C     C_R   0.645192 0.492873 0.494172 -0.004947
Cl1   Cl    Cl    0.867811 0.109031 0.522217 -0.556061
Cu1   Cu    Cu3+1 0.500000 0.499980 0.640670 0.949815
Cu2   Cu    Cu3+1 0.500000 0.500020 0.359330 0.924154
H1    H     H_    0.349298 0.360214 0.336810 0.110006
H2    H     H_    0.454124 0.879220 0.322824 0.133010
H3    H     H_    0.522588 0.894673 0.795830 0.107058
H4    H     H_    0.260742 0.357957 0.335037 0.121422
H5    H     H_    0.512640 0.109240 0.794722 0.094656
H6    H     H_    0.430502 0.421245 0.135224 0.123797
H7    H     H_    0.605823 0.635072 0.875342 0.135249
H8    H     H_    0.547947 0.720208 0.880341 0.147386
H9    H     H_    0.606308 0.631880 0.124152 0.128009
H10   H     H_    0.549667 0.722819 0.129507 0.150945
H11   H     H_    0.647611 0.412428 0.286371 0.116037
H12   H     H_    0.259979 0.640250 0.657051 0.117021
H13   H     H_    0.962704 0.170767 0.521419 0.141160
H14   H     H_    0.032579 0.185516 0.589148 0.107944
H15   H     H_    0.348799 0.642929 0.659457 0.115019
H16   H     H_    0.618562 0.844338 0.540636 0.109856
H17   H     H_    0.702839 0.799536 0.588120 0.162840
H18   H     H_    0.734873 0.823476 0.827314 0.132909
H19   H     H_    0.682021 0.896791 0.020309 0.111486
H20   H     H_    0.597709 0.948212 0.974560 0.102122
H21   H     H_    0.628788 0.118878 0.571334 0.112262
H22   H     H_    0.700598 0.244262 0.634137 0.168072
H23   H     H_    0.123392 0.778622 0.367923 0.152846
H24   H     H_    0.702347 0.365128 0.855909 0.124763
H25   H     H_    0.631880 0.359016 0.016751 0.100887
H26   H     H_    0.559786 0.231850 0.958067 0.092419
H27   H     H_    0.371962 0.550534 0.937042 0.098598
H28   H     H_    0.295879 0.448329 0.861462 0.126074
H29   H     H_    0.296678 0.240886 0.748300 0.159780
H30   H     H_    0.373693 0.131651 0.719586 0.108956
H31   H     H_    0.449089 0.228549 0.805659 0.109245
H32   H     H_    0.096358 0.140350 0.803244 0.108630
H33   H     H_    0.133979 0.940500 0.848329 0.111979
H34   H     H_    0.967374 0.793613 0.439894 0.120662
H35   H     H_    0.183045 0.838542 0.663877 0.134019
H36   H     H_    0.194045 0.936622 0.432790 0.156977
H37   H     H_    0.155548 0.133968 0.384630 0.106791
H38   H     H_    0.703348 0.211841 0.254322 0.111651
H39   H     H_    0.742087 0.122404 0.043815 0.124454
H40   H     H_    0.802797 0.245483 0.909584 0.152767
H41   H     H_    0.824264 0.459737 0.985304 0.121871
H42   H     H_    0.785552 0.551298 0.194433 0.143220
H43   H     H_    0.655320 0.569131 0.701651 0.130151
H44   H     H_    0.882031 0.789899 0.441574 0.202689
H45   H     H_    0.743268 0.563239 0.691146 0.121323
H46   H     H_    0.038119 0.779441 0.368448 0.109834
H47   H     H_    0.453474 0.105834 0.318722 0.122819
N1    N     N_R   0.202721 0.495070 0.495872 -0.394178
N2    N     N_R   0.797737 0.482347 0.480927 -0.408217
N3    N     N_R   0.500300 0.500930 0.147930 -0.240896
N4    N     N_R   0.500310 0.500890 0.852020 -0.236417
O1    O     O_R   0.500000 0.319640 0.618810 -0.505867
O2    O     O_R   0.569730 0.499960 0.618810 -0.492180
O3    O     O_R   0.569740 0.500000 0.381220 -0.505651
O4    O     O_2   0.203518 0.300804 0.598689 -0.513460
O5    O     O_2   0.792717 0.269088 0.514641 -0.440907
O6    O     O_2   0.204337 0.693865 0.401237 -0.538074
O7    O     O_2   0.799813 0.697559 0.452339 -0.502577
O8    O     O_R   0.500010 0.319680 0.381230 -0.505220
O9    O     O_R   0.430260 0.500000 0.618780 -0.487165
O10   O     O_R   0.430270 0.500040 0.381190 -0.514235
O11   O     O_R   0.499990 0.680320 0.618770 -0.503139
O12   O     O_R   0.500000 0.680360 0.381190 -0.503732

loop_
_geom_bond_atom_site_label_1
_geom_bond_atom_site_label_2
_ccdc_geom_bond_type
C10   C27   A    
C66   C68   A    
C39   N3    A    
C52   H16   S    
C8    C13   A    
Cu2   O8    S    
C40   O4    S    
C28   C84   S    
C27   H44   S    
C65   H27   S    
C12   H4    S    
C29   H46   S    
C35   C36   A    
C28   O2    A    
C75   C76   A    
Cu1   O9    S    
C81   C82   A    
C7    C8    A    
C7    Cl1   S    
C53   C54   A    
C4    C78   S    
C12   C23   A    
C26   C27   A    
C62   C63   A    
C37   H3    S    
C75   H36   S    
C36   C37   S    
C22   C29   A    
C83   H42   S    
C16   C35   S    
C30   C31   A    
C37   C51   S    
C42   N4    A    
C77   C83   A    
C53   H17   S    
C4    O10   A    
C38   H5    S    
C1    C31   S    
C49   C78   A    
C30   C38   S    
C43   N4    A    
C24   H14   S    
C73   C74   A    
C14   C77   S    
C60   H22   S    
C38   C58   S    
C18   H45   S    
C41   H6    S    
C20   C24   A    
C45   C56   A    
C8    C9    A    
Cu2   O12   S    
C25   C67   A    
C16   O11   A    
C51   C57   A    
C26   H34   S    
C64   C70   A    
C9    C10   A    
C41   N3    A    
C61   C62   A    
C1    O1    A    
Cu1   O2    S    
C72   C73   A    
C41   C42   A    
C79   H38   S    
C59   C60   A    
C73   H33   S    
C21   C22   A    
C81   H40   S    
C1    O8    A    
C2    C6    A    
Cu2   N3    S    
C50   C78   A    
C47   C67   A    
C44   C46   S    
C77   C79   A    
C25   C29   A    
C40   C45   A    
C40   N1    A    
C66   H28   S    
C55   H19   S    
C2    C20   A    
C51   C52   A    
C76   H37   S    
Cu2   O10   S    
Cu1   O11   S    
C49   H15   S    
Cu1   Cu2   S    
C18   C19   A    
C39   C43   A    
C21   C34   A    
C58   C59   A    
C4    O9    A    
C47   O6    S    
C60   C61   A    
C6    H13   S    
C43   C44   S    
C5    C9    A    
C37   C38   S    
C33   H2    S    
C31   C32   A    
C56   C71   S    
C20   C21   A    
C17   C18   A    
C46   H9    S    
C23   N1    S    
C34   C45   A    
Cu2   O3    S    
C82   H41   S    
C15   C84   A    
Cu1   O1    S    
C68   H29   S    
C39   C46   S    
C25   H23   S    
C48   C49   A    
C74   H35   S    
C46   H10   S    
C65   C66   A    
C55   C57   A    
C13   N2    A    
C2    C5    A    
C15   H11   S    
C61   H24   S    
C42   C64   S    
C52   C53   A    
C58   C63   A    
C48   H12   S    
C54   C55   A    
C23   C48   A    
C54   H18   S    
C47   N1    A    
C17   H43   S    
C14   C19   A    
C68   C69   A    
C3    C26   A    
C11   O7    S    
C80   C81   A    
C3    C5    A    
C34   C67   A    
C12   C50   A    
C6    C7    A    
C50   H1    S    
C24   C56   A    
C59   H21   S    
C30   C36   A    
C17   C84   A    
C64   C65   A    
C19   N2    S    
C71   C72   A    
C44   H8    S    
C11   N2    A    
C32   C33   A    
C32   H47   S    
C71   C76   A    
C80   H39   S    
C70   H31   S    
C72   H32   S    
C69   H30   S    
C33   C35   A    
C13   O5    S    
C69   C70   A    
C44   H7    S    
C10   C11   A    
Cu1   N4    S    
C79   C80   A    
C63   H26   S    
C62   H25   S    
C74   C75   A    
C82   C83   A    
C57   H20   S    
C14   C15   A    
C3    C22   A    
C16   O12   A    
C28   O3    A    
