data_mof_unit_5447.cif
_audit_creation_date              2012-12-10T17:23:36-0500
_audit_creation_method            fapswitch 2.2
_symmetry_space_group_name_H-M    P1
_symmetry_Int_Tables_number       1
_space_group_crystal_system       triclinic
_cell_length_a                    10.195834
_cell_length_b                    10.500683
_cell_length_c                    15.722793
_cell_angle_alpha                 90.086523
_cell_angle_beta                  81.506011
_cell_angle_gamma                 93.044575
_cell_volume                      1662.48485755

loop_
_atom_site_label
_atom_site_type_symbol
_atom_type_description
_atom_site_fract_x
_atom_site_fract_y
_atom_site_fract_z
_atom_type_partial_charge
C1    C     C_R   0.553028 0.734060 0.500354 0.912914
C2    C     C_3   0.524561 0.384606 0.970237 0.555920
C3    C     C_3   0.592420 0.585819 0.962626 -0.309767
C4    C     C_3   0.403914 0.413702 0.037183 -0.236031
C5    C     C_1   0.500868 0.499329 0.750714 -0.113233
C6    C     C_1   0.498422 0.500464 0.249112 -0.113035
C7    C     C_3   0.377811 0.530346 0.982456 -0.282237
C8    C     C_3   0.618556 0.469164 0.017274 -0.239003
C9    C     C_3   0.498956 0.499339 0.916843 -0.015438
C10   C     C_3   0.497468 0.500285 0.083015 -0.003060
C11   C     C_1   0.500222 0.499166 0.825982 0.065231
C12   C     C_R   0.447830 0.266053 0.512572 0.920960
C13   C     C_1   0.497644 0.500608 0.173884 0.090810
C14   C     C_2   0.577808 0.868770 0.515648 -0.362112
C15   C     C_2   0.427620 0.132249 0.537857 -0.368122
C16   C     C_3   0.645767 0.135937 0.600484 -0.331626
C17   C     C_3   0.720155 0.055426 0.657676 -0.402247
C18   C     C_3   0.848353 0.126094 0.674870 -0.674823
C19   C     C_3   0.396138 0.868314 0.645629 -0.327206
C20   C     C_3   0.350879 0.955031 0.722543 -0.377453
C21   C     C_3   0.250422 0.886217 0.790833 -0.702807
C22   C     C_2   0.502530 0.932154 0.578334 0.059042
C23   C     C_2   0.519566 0.070813 0.574585 0.103214
C24   C     C_2   0.929959 0.526156 0.493660 0.056752
C25   C     C_2   0.078665 0.508986 0.481479 0.045196
C26   C     C_R   0.500381 0.499780 0.661994 0.842514
C27   C     C_R   0.499529 0.500095 0.337944 0.907905
C28   C     C_3   0.471735 0.614942 0.029505 0.451186
H1    H     H_    0.668183 0.657049 0.930766 0.189774
H2    H     H_    0.618738 0.056309 0.982350 0.399969
H3    H     H_    0.917785 0.141025 0.613886 0.273998
H4    H     H_    0.827023 0.220168 0.704618 0.293831
H5    H     H_    0.897146 0.068847 0.719330 0.253871
H6    H     H_    0.656967 0.034656 0.720218 0.249386
H7    H     H_    0.746728 0.963796 0.626047 0.245874
H8    H     H_    0.715702 0.160915 0.541176 0.276873
H9    H     H_    0.618809 0.224422 0.636291 0.215946
H10   H     H_    0.157516 0.860263 0.764449 0.286121
H11   H     H_    0.292309 0.799328 0.813879 0.258754
H12   H     H_    0.328103 0.342482 0.068987 0.213589
H13   H     H_    0.225937 0.950376 0.846473 0.280476
H14   H     H_    0.437562 0.988101 0.753197 0.250434
H15   H     H_    0.304342 0.039848 0.700385 0.240242
H16   H     H_    0.308496 0.839280 0.614443 0.274807
H17   H     H_    0.436597 0.782043 0.670727 0.205125
H18   H     H_    0.138720 0.611787 0.759807 0.370633
H19   H     H_    0.748160 0.276349 0.316299 0.378022
H20   H     H_    0.716242 0.442724 0.032990 0.200114
H21   H     H_    0.280265 0.556856 0.966524 0.196833
H22   H     H_    0.337604 0.080974 0.524277 0.171780
H23   H     H_    0.657613 0.919079 0.473091 0.185572
H24   H     H_    0.124034 0.459661 0.425178 0.179754
H25   H     H_    0.891557 0.606693 0.530476 0.177356
H26   H     H_    0.471884 0.853055 0.941912 0.335181
N1    N     N_2   0.842700 0.448880 0.465440 0.026112
N2    N     N_2   0.157300 0.551120 0.534560 0.050747
O1    O     O_R   0.431060 0.692470 0.506960 -0.595781
O2    O     O_2   0.553924 0.829362 0.104360 -0.266644
O3    O     O_3   0.398132 0.861688 0.989842 -0.494558
O4    O     O_2   0.446649 0.177904 0.885888 -0.310373
O5    O     O_2   0.684947 0.239951 0.864843 -0.331432
O6    O     O_3   0.580720 0.133347 0.010422 -0.483281
O7    O     O_2   0.038010 0.744555 0.615587 -0.332012
O8    O     O_2   0.968530 0.529515 0.670595 -0.324389
O9    O     O_3   0.192325 0.629586 0.702831 -0.545470
O10   O     O_2   0.980301 0.376649 0.318654 -0.301103
O11   O     O_2   0.976588 0.238790 0.444446 -0.297961
O12   O     O_R   0.568940 0.307530 0.493040 -0.583045
O13   O     O_3   0.765452 0.237917 0.370773 -0.500682
O14   O     O_R   0.651120 0.659650 0.484770 -0.619874
O15   O     O_R   0.348880 0.340350 0.515230 -0.603503
O16   O     O_R   0.389990 0.516420 0.634310 -0.547632
O17   O     O_R   0.610010 0.483580 0.365690 -0.596004
O18   O     O_R   0.610050 0.483600 0.612130 -0.626396
O19   O     O_R   0.389950 0.516400 0.387870 -0.617581
O20   O     O_2   0.319020 0.759296 0.140177 -0.224077
S1    S     S_3+6 0.435647 0.769979 0.069517 0.066487
S2    S     S_3+6 0.559992 0.230155 0.928953 0.025512
S3    S     S_3+6 0.085271 0.614791 0.631654 0.073055
S4    S     S_3+6 0.895715 0.324440 0.398801 0.103125
Zn1   Zn    Zn3+2 0.353060 0.521920 0.514810 1.062837
Zn2   Zn    Zn3+2 0.646940 0.478080 0.485190 1.036166

loop_
_geom_bond_atom_site_label_1
_geom_bond_atom_site_label_2
_ccdc_geom_bond_type
O9    S3    S    
C26   O16   A    
C19   C20   S    
C25   N2    D    
O3    S1    S    
N2    Zn1   S    
O7    S3    D    
C24   N1    D    
C12   O12   A    
O4    S2    D    
N2    S3    S    
C2    S2    S    
C3    C28   S    
C5    C11   T    
C15   H22   S    
C3    H1    S    
H19   O13   S    
O2    S1    D    
C21   H10   S    
C14   H23   S    
C16   C17   S    
O16   Zn1   S    
C16   H9    S    
C15   C23   D    
O18   Zn2   S    
C4    C7    S    
C27   O19   A    
H26   O3    S    
C4    H12   S    
C19   C22   S    
O20   S1    D    
C7    H21   S    
H18   O9    S    
C3    C8    S    
O19   Zn1   S    
C24   H25   S    
C7    C28   S    
C2    C4    S    
C8    H20   S    
C3    C9    S    
C1    O1    A    
C6    C27   S    
C21   H11   S    
C12   C15   S    
O5    S2    D    
C17   C18   S    
C24   C25   S    
N1    Zn2   S    
C28   S1    S    
C9    C11   S    
C21   H13   S    
C12   O15   A    
C16   C23   S    
H2    O6    S    
O8    S3    D    
O1    Zn1   S    
C18   H4    S    
C17   H6    S    
C4    C10   S    
O17   Zn2   S    
C20   H15   S    
C19   H16   S    
C10   C28   S    
C7    C9    S    
O6    S2    S    
C2    C8    S    
O11   S4    D    
C10   C13   S    
C20   H14   S    
C19   H17   S    
C1    C14   S    
O10   S4    D    
C1    O14   A    
O12   Zn2   S    
C14   C22   D    
C25   H24   S    
C16   H8    S    
C6    C13   T    
N1    S4    S    
C26   O18   A    
O14   Zn2   S    
C18   H5    S    
C5    C26   S    
C20   C21   S    
C8    C10   S    
C22   C23   S    
O13   S4    S    
C18   H3    S    
C17   H7    S    
C27   O17   A    
C2    C9    S    
O15   Zn1   S    
