data_mof_unit_55011.cif
_audit_creation_date              2013-03-05T15:59:35-0500
_audit_creation_method            fapswitch 2.2
_symmetry_space_group_name_H-M    P1
_symmetry_Int_Tables_number       1
_space_group_crystal_system       triclinic
_cell_length_a                    12.652962
_cell_length_b                    13.149542
_cell_length_c                    15.711932
_cell_angle_alpha                 91.42678
_cell_angle_beta                  102.433295
_cell_angle_gamma                 82.958828
_cell_volume                      2533.59667304

loop_
_atom_site_label
_atom_site_type_symbol
_atom_site_description
_atom_site_fract_x
_atom_site_fract_y
_atom_site_fract_z
_atom_type_partial_charge
O1    O     O_R   0.366730 0.627160 0.478790 -0.560776
O2    O     O_R   0.544830 0.662520 0.507160 -0.629593
C1    C     C_R   0.439833 0.691097 0.495485 0.865672
O3    O     O_R   0.410960 0.482330 0.609040 -0.582830
O4    O     O_R   0.589060 0.517690 0.637410 -0.614621
C2    C     C_R   0.501009 0.500077 0.661824 0.887768
Zn1   Zn    Zn3+2 0.381080 0.476390 0.481050 1.051353
Zn2   Zn    Zn3+2 0.618920 0.523610 0.518950 0.975947
O5    O     O_R   0.455170 0.337480 0.492840 -0.515950
O6    O     O_R   0.633270 0.372840 0.521210 -0.600406
O7    O     O_R   0.410940 0.482310 0.362590 -0.597083
O8    O     O_R   0.589040 0.517670 0.390960 -0.638254
C3    C     C_R   0.559963 0.309612 0.517897 0.897913
C4    C     C_R   0.499098 0.499364 0.338179 0.878598
C5    C     C_3   0.403273 0.542728 0.009667 0.359234
C6    C     C_3   0.483303 0.595731 0.970555 -0.202511
H1    H     H_    0.469997 0.675486 0.945441 0.173886
H2    H     H_    0.643879 0.590430 0.082554 0.170427
C7    C     C_1   0.503004 0.499582 0.751140 -0.136750
C8    C     C_1   0.496982 0.498077 0.248777 -0.152482
C9    C     C_3   0.417592 0.446462 0.954169 -0.220760
C10   C     C_3   0.500289 0.498225 0.916917 0.140371
C11   C     C_3   0.512697 0.400331 0.027871 -0.225930
C12   C     C_3   0.495847 0.497441 0.082160 0.086423
C13   C     C_3   0.595239 0.451777 0.988483 -0.121577
C14   C     C_3   0.578124 0.548979 0.044090 -0.202040
C15   C     C_1   0.502665 0.498868 0.826430 -0.014553
C16   C     C_1   0.495866 0.497368 0.173187 0.009435
H3    H     H_    0.674685 0.414221 0.977523 0.158944
H4    H     H_    0.524941 0.320667 0.053064 0.160849
H5    H     H_    0.351178 0.405770 0.915713 0.166027
C17   C     C_R   0.722539 0.056359 0.604376 -0.233105
H6    H     H_    0.734264 0.863164 0.660100 0.194225
H7    H     H_    0.805542 0.023253 0.631042 0.202290
C18   C     C_R   0.592259 0.203526 0.549117 -0.319063
C19   C     C_R   0.301185 0.838329 0.447725 -0.095783
C20   C     C_R   0.273192 0.942881 0.434572 -0.165301
C21   C     C_R   0.347001 0.010289 0.470701 -0.142703
C22   C     C_R   0.447553 0.974574 0.527012 0.113625
C23   C     C_R   0.472696 0.868893 0.544883 0.073036
C24   C     C_R   0.529215 0.038942 0.558361 -0.041127
C25   C     C_R   0.636753 0.996170 0.594804 0.025028
C26   C     C_R   0.655175 0.894992 0.623281 -0.158211
C27   C     C_R   0.570612 0.834309 0.604240 -0.178381
C28   C     C_R   0.507576 0.144853 0.553924 0.379214
C29   C     C_R   0.701892 0.158860 0.576885 0.263099
C30   C     C_R   0.402545 0.800459 0.499387 -0.107695
H8    H     H_    0.246389 0.786863 0.412818 0.200252
H9    H     H_    0.325992 0.088864 0.449318 0.223474
H10   H     H_    0.196896 0.971364 0.391525 0.164333
H11   H     H_    0.584138 0.758933 0.632960 0.165084
C31   C     C_R   0.091474 0.334677 0.390102 -0.391041
H12   H     H_    0.883576 0.306002 0.364834 0.154668
H13   H     H_    0.070893 0.268502 0.350324 0.171607
N1    N     N_R   0.222180 0.444680 0.455580 -0.193599
C32   C     C_R   0.803274 0.618929 0.612142 -0.067806
C33   C     C_R   0.911459 0.634644 0.645105 0.237984
C34   C     C_R   0.991195 0.585926 0.603781 -0.168424
C35   C     C_R   0.963487 0.524401 0.529298 -0.000218
C36   C     C_R   0.854081 0.503630 0.504684 0.227348
C37   C     C_R   0.041773 0.475202 0.483833 -0.077102
C38   C     C_R   0.013316 0.392323 0.427674 0.076941
C39   C     C_R   0.906533 0.368340 0.408715 -0.157047
C40   C     C_R   0.827312 0.425729 0.444277 -0.115237
C41   C     C_R   0.146942 0.505156 0.490697 0.273307
C42   C     C_R   0.197204 0.361923 0.404984 0.608716
N2    N     N_R   0.776980 0.554790 0.543960 -0.142421
H14   H     H_    0.740271 0.652462 0.644217 0.163980
H15   H     H_    0.074710 0.590265 0.635020 0.228841
H16   H     H_    0.746752 0.404195 0.426474 0.195558
O9    O     O_3   0.404799 0.190949 0.559796 -0.585479
C43   C     C_3   0.403527 0.209980 0.648394 0.112020
H17   H     H_    0.465068 0.261776 0.677720 0.128672
H18   H     H_    0.419908 0.136957 0.686063 0.146038
C44   C     C_3   0.291440 0.261834 0.655301 -0.723451
H19   H     H_    0.228197 0.211613 0.627255 0.264646
H20   H     H_    0.289257 0.277062 0.724777 0.203479
H21   H     H_    0.273189 0.335667 0.619329 0.258409
O10   O     O_3   0.279103 0.302491 0.374216 -0.569677
C45   C     C_3   0.253267 0.293367 0.282253 0.100133
H22   H     H_    0.317029 0.325365 0.255972 0.181758
H23   H     H_    0.173591 0.335753 0.249355 0.128466
C46   C     C_3   0.255498 0.180582 0.257467 -0.855512
H24   H     H_    0.192758 0.145850 0.282855 0.245903
H25   H     H_    0.238631 0.172749 0.185427 0.233530
H26   H     H_    0.336981 0.138862 0.285272 0.262143
N3    N     N_R   0.169489 0.605696 0.520441 0.210045
O11   O     O_R   0.239557 0.618051 0.592572 -0.375133
O12   O     O_R   0.108767 0.685470 0.481775 -0.403262
N4    N     N_R   0.297508 0.592685 0.020170 0.207149
O13   O     O_R   0.225511 0.628185 0.952149 -0.319159
O14   O     O_R   0.274100 0.601811 0.096838 -0.385518
N5    N     N_R   0.940765 0.695683 0.722022 0.220800
O15   O     O_R   0.869260 0.727018 0.768297 -0.398471
O16   O     O_R   0.039723 0.719058 0.747368 -0.308237
N6    N     N_R   0.792107 0.216859 0.583719 0.222466
O17   O     O_R   0.803795 0.291093 0.640017 -0.365429
O18   O     O_R   0.874546 0.180517 0.550336 -0.391408

loop_
_geom_bond_atom_site_label_1
_geom_bond_atom_site_label_2
_geom_bond_distance
_ccdc_geom_bond_type
C23   C30   1.413928 A    
N3    O11   1.300111 A    
N5    O15   1.301512 A    
C28   O9    1.386610 S    
C24   C25   1.410156 A    
H2    C14   1.110313 S    
Zn1   N1    2.055992 S    
C26   C27   1.389486 A    
N4    O13   1.300515 A    
C22   C24   1.414624 A    
C21   H9    1.078229 S    
Zn1   O7    1.982484 S    
C42   O10   1.384442 S    
C9    H5    1.110435 S    
C20   C21   1.389138 A    
C19   C20   1.386178 A    
C12   C14   1.536928 S    
C3    C18   1.470236 S    
O3    Zn1   1.965979 S    
C21   C22   1.418291 A    
O7    C4    1.300569 A    
C5    C6    1.533321 S    
C32   C33   1.394076 A    
C19   C30   1.402482 A    
O5    C3    1.307927 A    
C36   N2    1.364824 A    
C6    H1    1.110234 S    
C10   C13   1.534073 S    
N6    O18   1.300947 A    
C11   C12   1.536536 S    
C40   H16   1.068396 S    
C7    C15   1.184166 T    
C35   C36   1.413286 A    
N5    O16   1.301686 A    
C33   N5    1.440109 S    
C9    C10   1.535874 S    
C13   H3    1.110232 S    
C45   C46   1.522387 S    
N1    C41   1.364489 A    
C31   H13   1.083511 S    
C41   N3    1.432453 S    
C6    C14   1.552385 S    
C35   C37   1.426381 A    
C17   C25   1.400580 A    
H6    C26   1.082281 S    
C11   H4    1.110176 S    
C4    C8    1.398882 S    
C45   H23   1.116412 S    
C22   C23   1.408466 A    
C43   H17   1.114649 S    
C8    C16   1.184514 T    
C13   C14   1.549822 S    
C32   H14   1.076869 S    
C39   C40   1.386067 A    
O1    C1    1.306309 A    
C17   H7    1.084225 S    
C44   H19   1.110784 S    
C38   C39   1.392906 A    
C2    C7    1.398264 S    
N4    O14   1.300351 A    
C46   H24   1.110055 S    
C23   C27   1.413143 A    
Zn2   O8    1.965977 S    
N6    O17   1.301229 A    
C44   H20   1.110480 S    
C27   H11   1.078303 S    
C43   H18   1.114429 S    
C5    C12   1.520604 S    
C46   H25   1.110363 S    
O8    C4    1.300618 A    
C10   C15   1.428749 S    
C9    C11   1.553368 S    
O3    C2    1.299663 A    
C25   C26   1.390448 A    
C18   C28   1.410480 A    
N1    C42   1.359812 A    
C31   C42   1.396919 A    
Zn1   O5    1.942133 S    
C6    C10   1.535260 S    
O1    Zn1   1.969070 S    
C17   C29   1.401981 A    
O2    Zn2   1.942133 S    
C12   C16   1.430196 S    
C45   H22   1.110739 S    
O6    C3    1.311659 A    
O4    Zn2   1.982483 S    
C34   H15   1.072777 S    
C32   N2    1.356450 A    
C36   C40   1.401096 A    
N3    O12   1.301125 A    
O2    C1    1.309930 A    
C34   C35   1.411632 A    
O9    C43   1.411375 S    
C31   C38   1.395126 A    
C5    N4    1.457335 S    
C20   H10   1.082823 S    
H12   C39   1.084282 S    
C43   C44   1.521058 S    
C33   C34   1.397406 A    
O4    C2    1.301431 A    
C1    C30   1.461538 S    
C19   H8    1.082736 S    
C11   C13   1.550413 S    
C37   C38   1.416844 A    
C44   H21   1.109730 S    
O10   C45   1.416553 S    
C37   C41   1.414969 A    
C5    C9    1.533762 S    
C46   H26   1.110906 S    
C29   N6    1.432733 S    
Zn2   N2    2.043730 S    
Zn2   O6    1.969070 S    
C24   C28   1.386546 A    
C18   C29   1.418447 A    
