data_mof_unit_22501.cif
_audit_creation_date              2012-12-11T15:59:29-0500
_audit_creation_method            fapswitch 2.2
_symmetry_space_group_name_H-M    P1
_symmetry_Int_Tables_number       1
_space_group_crystal_system       triclinic
_cell_length_a                    10.771033
_cell_length_b                    10.716953
_cell_length_c                    17.128927
_cell_angle_alpha                 99.886608
_cell_angle_beta                  99.730392
_cell_angle_gamma                 60.669339
_cell_volume                      1689.85265009

loop_
_atom_site_label
_atom_site_type_symbol
_atom_type_description
_atom_site_fract_x
_atom_site_fract_y
_atom_site_fract_z
_atom_type_partial_charge
C1    C     C_R   0.354894 0.774605 0.399651 0.565728
C2    C     C_R   0.802748 0.241126 0.189732 -0.010319
C3    C     C_R   0.813187 0.225921 0.271338 -0.013513
C4    C     C_R   0.908872 0.393756 0.308793 -0.105201
C5    C     C_R   0.923149 0.389569 0.230207 0.315332
C6    C     C_R   0.741220 0.168358 0.131701 0.310070
C7    C     C_R   0.710557 0.068574 0.156447 -0.067492
C8    C     C_R   0.733427 0.045919 0.235606 -0.155360
C9    C     C_R   0.787915 0.119338 0.292042 -0.027114
C10   C     C_R   0.845872 0.320286 0.329766 -0.049255
C11   C     C_R   0.333229 0.818588 0.157670 -0.026307
C12   C     C_R   0.370084 0.346274 0.357382 0.567688
C13   C     C_R   0.460439 0.793399 0.205469 -0.033735
C14   C     C_R   0.460350 0.809352 0.289269 -0.080362
C15   C     C_R   0.216345 0.839972 0.272040 0.271368
C16   C     C_R   0.219509 0.820548 0.190590 0.240479
C17   C     C_R   0.588898 0.747430 0.171762 0.393174
C18   C     C_R   0.712523 0.727733 0.220577 -0.077590
C19   C     C_R   0.709271 0.758583 0.302684 -0.188981
C20   C     C_R   0.583269 0.804926 0.336526 -0.079963
C21   C     C_R   0.338911 0.826401 0.322452 -0.032209
C22   C     C_R   0.298947 0.276604 0.799195 0.004492
C23   C     C_R   0.778633 0.373203 0.404188 0.550994
C24   C     C_R   0.426775 0.177454 0.763456 -0.032889
C25   C     C_R   0.477521 0.227351 0.712851 -0.019412
C26   C     C_R   0.245095 0.443558 0.704422 -0.097121
C27   C     C_R   0.206974 0.408079 0.767448 0.353999
C28   C     C_R   0.509602 0.032285 0.780002 -0.153620
C29   C     C_R   0.648910 0.948473 0.759340 -0.076579
C30   C     C_R   0.709451 0.005680 0.720340 0.289870
C31   C     C_R   0.623712 0.146776 0.698751 -0.072574
C32   C     C_R   0.379266 0.353709 0.676027 -0.059758
C33   C     C_1   0.844950 0.329576 0.705719 -0.033591
C34   C     C_R   0.358150 0.768974 0.627485 0.545734
C35   C     C_1   0.891392 0.294329 0.772117 -0.009752
C36   C     C_1   0.338874 0.809632 0.709457 -0.048317
C37   C     C_1   0.312679 0.837566 0.777386 -0.040213
C38   C     C_R   0.898097 0.308124 0.089856 0.656249
C39   C     C_R   0.318746 0.299682 0.120256 0.567942
C40   C     C_R   0.295295 0.886302 0.083553 0.612754
C41   C     C_R   0.942031 0.273690 0.854311 0.547196
C42   C     C_R   0.279444 0.252915 0.877144 0.544546
C43   C     C_R   0.278733 0.884877 0.857169 0.550120
C44   C     C_R   0.406728 0.375473 0.599958 0.554093
C45   C     C_R   0.777175 0.378727 0.629244 0.540226
C46   C     C_1   0.343694 0.335761 0.274147 -0.010372
C47   C     C_1   0.331567 0.326146 0.203485 -0.003215
C48   C     C_R   0.861398 0.323060 0.169662 0.035148
Cr1   Cr    Cr6+3 0.608100 0.610860 0.522250 1.026765
Cr2   Cr    Cr6+3 0.288890 0.599990 0.488420 1.004294
Cr3   Cr    Cr6+3 0.603040 0.289190 0.489390 0.982055
Cr4   Cr    Cr6+3 0.053960 0.052250 0.967380 1.050999
Cr5   Cr    Cr6+3 0.059890 0.373160 0.992710 1.094489
Cr6   Cr    Cr6+3 0.373370 0.061690 0.991710 1.025881
H1    H     H_    0.943547 0.458344 0.353290 0.151998
H2    H     H_    0.809816 0.693505 0.194106 0.184030
H3    H     H_    0.803797 0.749329 0.340402 0.101904
H4    H     H_    0.583889 0.839095 0.399592 0.153920
H5    H     H_    0.169363 0.541512 0.677866 0.173126
H6    H     H_    0.468639 0.982915 0.810255 0.159192
H7    H     H_    0.711240 0.839421 0.775531 0.167023
H8    H     H_    0.671253 0.193968 0.671930 0.142062
H9    H     H_    0.666831 0.008519 0.115140 0.140442
H10   H     H_    0.706792 0.972487 0.254113 0.115995
H11   H     H_    0.815040 0.086334 0.351406 0.163806
O1    O     O_R   0.749810 0.499790 0.438040 -0.513891
O2    O     O_R   0.298970 0.468800 0.557390 -0.500151
O3    O     O_R   0.489400 0.255930 0.561910 -0.518709
O4    O     O_R   0.723890 0.306050 0.584610 -0.551792
O5    O     O_3   0.500010 0.500010 0.500020 -0.266123
O6    O     O_R   0.171100 0.914680 0.053100 -0.483073
O7    O     O_R   0.941680 0.184840 0.050710 -0.486731
O8    O     O_R   0.922080 0.403420 0.072610 -0.431052
O9    O     O_R   0.196880 0.369150 0.083850 -0.487547
O10   O     O_R   0.411730 0.181020 0.091530 -0.518868
O11   O     O_R   0.365010 0.944360 0.063320 -0.447793
O12   O     O_R   0.477660 0.726260 0.439290 -0.514260
O13   O     O_R   0.159380 0.906670 0.876210 -0.481540
O14   O     O_R   0.930820 0.177420 0.886730 -0.498641
O15   O     O_R   0.910360 0.395420 0.895720 -0.462854
O16   O     O_R   0.186010 0.361730 0.919870 -0.442505
O17   O     O_R   0.400000 0.173010 0.914630 -0.536945
O18   O     O_R   0.354140 0.936940 0.899340 -0.533269
O19   O     O_3   0.162410 0.162370 0.983930 -0.323871
O20   O     O_R   0.260150 0.743000 0.412270 -0.487061
O21   O     O_R   0.297740 0.466550 0.394720 -0.504220
O22   O     O_R   0.488080 0.253500 0.386430 -0.517881
O23   O     O_R   0.722670 0.303800 0.421940 -0.515386
O24   O     O_R   0.751130 0.502220 0.613520 -0.476277
O25   O     O_R   0.478890 0.728510 0.601960 -0.491014
O26   O     O_R   0.261470 0.745430 0.587750 -0.536072
F1    F     F_    0.079805 0.501801 0.796520 -0.611156
O27   O     O_3   0.853538 0.922817 0.708474 -0.546814
C49   C     C_3   0.880328 0.932995 0.632548 -0.094836
H12   H     H_    0.895582 0.028549 0.633890 0.125179
H13   H     H_    0.795047 0.934633 0.585039 0.098470
H14   H     H_    0.981675 0.836663 0.616852 0.163022
O28   O     O_3   0.693814 0.211140 0.055104 -0.557714
C50   C     C_3   0.726012 0.091874 0.996476 -0.043453
H15   H     H_    0.645592 0.053916 0.990421 0.136367
H16   H     H_    0.835624 0.001463 0.008711 0.126354
H17   H     H_    0.721055 0.126732 0.938159 0.165988
F2    F     F_    0.000755 0.449183 0.214101 -0.671752
O29   O     O_3   0.089634 0.879711 0.303526 -0.548475
C51   C     C_3   0.054373 0.765985 0.289390 -0.028921
H18   H     H_    0.148233 0.657024 0.281151 0.140508
H19   H     H_    0.973886 0.782276 0.237299 0.152891
H20   H     H_    0.005847 0.768184 0.341978 0.118503
F3    F     F_    0.598698 0.709878 0.092314 -0.627855
O30   O     O_3   0.099726 0.822724 0.144298 -0.551559
C52   C     C_3   0.138615 0.685096 0.103010 -0.077031
H21   H     H_    0.040180 0.682307 0.073011 0.150372
H22   H     H_    0.190956 0.600993 0.144749 0.108882
H23   H     H_    0.210434 0.660134 0.056556 0.150187

loop_
_geom_bond_atom_site_label_1
_geom_bond_atom_site_label_2
_ccdc_geom_bond_type
C25   C31   A    
C5    F2    S    
C1    C21   S    
O27   C49   S    
C40   O6    A    
C43   O18   A    
C19   C20   A    
C42   O17   A    
Cr1   O25   S    
C41   O15   A    
Cr6   O19   S    
C16   O30   S    
C7    C8    A    
C19   H3    S    
C43   O13   A    
C26   C32   A    
C51   H19   S    
C26   C27   A    
Cr5   O19   S    
Cr4   O7    S    
C6    O28   S    
C23   O1    A    
C28   C29   A    
C30   O27   S    
C30   C31   A    
C15   C16   A    
C33   C45   S    
Cr5   O16   S    
C18   C19   A    
C39   O9    A    
Cr4   O19   S    
O30   C52   S    
Cr6   O18   S    
Cr2   O20   S    
C34   O26   A    
C52   H21   S    
C8    C9    A    
Cr3   O5    S    
C39   O10   A    
C15   O29   S    
Cr4   O14   S    
C45   O24   A    
Cr2   O2    S    
C38   C48   S    
C18   H2    S    
C25   C32   A    
C13   C14   A    
C31   H8    S    
C2    C6    A    
C42   O16   A    
Cr4   O13   S    
O29   C51   S    
C51   H20   S    
C29   H7    S    
C28   H6    S    
C1    O20   A    
C5    C48   A    
C38   O7    A    
Cr1   O1    S    
C45   O4    A    
C14   C20   A    
Cr5   O15   S    
C24   C25   A    
C12   C46   S    
Cr3   O22   S    
C49   H14   S    
C2    C48   A    
C40   O11   A    
C37   C43   S    
C34   O25   A    
C29   C30   A    
C3    C9    A    
C11   C16   A    
C50   H15   S    
C17   C18   A    
C32   C44   S    
C27   F1    S    
C52   H22   S    
Cr1   O5    S    
C49   H13   S    
C7    H9    S    
C8    H10   S    
Cr6   O11   S    
C50   H16   S    
C49   H12   S    
C23   O23   A    
C4    H1    S    
C22   C24   A    
C44   O3    A    
C4    C10   A    
Cr6   O17   S    
C14   C21   A    
C39   C47   S    
C26   H5    S    
C46   C47   T    
C36   C37   T    
C12   O22   A    
Cr5   O8    S    
C24   C28   A    
Cr1   O24   S    
C4    C5    A    
C17   F3    S    
Cr3   O23   S    
C41   O14   A    
C6    C7    A    
C12   O21   A    
C10   C23   S    
Cr3   O4    S    
C51   H18   S    
C13   C17   A    
C22   C27   A    
C2    C3    A    
Cr2   O5    S    
Cr4   O6    S    
C11   C13   A    
C22   C42   S    
C33   C35   T    
Cr1   O12   S    
C52   H23   S    
C34   C36   S    
Cr3   O3    S    
C11   C40   S    
C35   C41   S    
C9    H11   S    
Cr2   O21   S    
Cr6   O10   S    
Cr2   O26   S    
C15   C21   A    
C50   H17   S    
O28   C50   S    
C3    C10   A    
C44   O2    A    
C1    O12   A    
C20   H4    S    
C38   O8    A    
Cr5   O9    S    
