data_mof_unit_32204.cif
_audit_creation_date              2012-10-26T20:13:56-0400
_audit_creation_method            fapswitch 2.2
_symmetry_space_group_name_H-M    P1
_symmetry_Int_Tables_number       1
_space_group_crystal_system       triclinic
_cell_length_a                    8.736646
_cell_length_b                    10.87613
_cell_length_c                    9.582472
_cell_angle_alpha                 91.051338
_cell_angle_beta                  97.401497
_cell_angle_gamma                 90.727789
_cell_volume                      902.692096883

loop_
_atom_site_label
_atom_site_type_symbol
_atom_type_description
_atom_site_fract_x
_atom_site_fract_y
_atom_site_fract_z
_atom_type_partial_charge
C1    C     C_R   0.496724 0.262676 0.498400 0.571694
C2    C     C_R   0.625744 0.542091 0.942290 0.086385
C3    C     C_3   0.697625 0.666314 0.946992 -0.177393
C4    C     C_R   0.204112 0.499843 0.464157 0.555186
C5    C     C_3   0.696171 0.668241 0.105255 0.238209
C6    C     C_R   0.497414 0.737827 0.500482 0.586799
C7    C     C_R   0.795814 0.501280 0.535797 0.579151
C8    C     C_2   0.038459 0.497885 0.444354 -0.101700
C9    C     C_2   0.961318 0.505004 0.555414 -0.108510
C10   C     C_R   0.481333 0.067032 0.620094 -0.011204
C11   C     C_R   0.483068 0.129824 0.495106 0.031333
C12   C     C_R   0.465336 0.933341 0.369451 -0.127812
C13   C     C_R   0.464980 0.061944 0.367720 -0.133298
C14   C     C_R   0.482938 0.871283 0.498529 0.051241
C15   C     C_R   0.478031 0.940616 0.622101 0.016737
C16   C     C_3   0.576395 0.940674 0.761703 0.264139
C17   C     C_3   0.580318 0.080178 0.758826 0.048071
C18   C     C_R   0.625358 0.542845 0.089216 0.193781
C19   C     C_R   0.389093 0.439079 0.061611 0.008000
C20   C     C_R   0.390563 0.435770 0.913731 0.178923
Cu1   Cu    Cu3+1 0.499990 0.499980 0.640670 1.030763
Cu2   Cu    Cu3+1 0.500010 0.500020 0.359330 1.010218
F1    F     F_    0.843353 0.666811 0.178387 -0.623356
F2    F     F_    0.718581 0.888074 0.752845 -0.607242
H1    H     H_    0.979673 0.489275 0.337480 0.187796
H2    H     H_    0.299564 0.390224 0.107104 0.151878
H3    H     H_    0.815026 0.665524 0.913977 0.207150
H4    H     H_    0.616196 0.730709 0.892628 0.146264
H5    H     H_    0.620322 0.739015 0.143783 0.124117
H6    H     H_    0.019895 0.514337 0.662227 0.156778
H7    H     H_    0.457678 0.107518 0.267576 0.144277
H8    H     H_    0.458190 0.883334 0.270055 0.133967
H9    H     H_    0.513531 0.906126 0.846922 0.073060
H10   H     H_    0.517236 0.122971 0.840357 0.106644
I1    I     I_    0.227377 0.310690 0.805276 -0.332399
I2    I     I_    0.806269 0.158812 0.749804 -0.196005
N1    N     N_R   0.500980 0.500930 0.148050 -0.283715
N2    N     N_R   0.500990 0.500890 0.852140 -0.243897
O1    O     O_R   0.500000 0.319640 0.618810 -0.471226
O2    O     O_R   0.500020 0.319680 0.381230 -0.517617
O3    O     O_R   0.274830 0.499980 0.591380 -0.486693
O4    O     O_R   0.274850 0.500020 0.353800 -0.502755
O5    O     O_R   0.499980 0.680320 0.618770 -0.489573
O6    O     O_R   0.500000 0.680360 0.381190 -0.513787
O7    O     O_R   0.725150 0.499980 0.646200 -0.485514
O8    O     O_R   0.725170 0.500020 0.408620 -0.468865

loop_
_geom_bond_atom_site_label_1
_geom_bond_atom_site_label_2
_ccdc_geom_bond_type
C5    F1    S    
C17   I2    S    
C16   H9    S    
C2    C18   A    
C20   N2    A    
C2    N2    A    
C5    H5    S    
C19   C20   A    
Cu1   O1    S    
C4    C8    S    
Cu2   O2    S    
C3    H3    S    
C2    C3    S    
C16   F2    S    
C6    O6    A    
Cu1   Cu2   S    
C12   H8    S    
C8    H1    S    
C11   C13   A    
C17   H10   S    
Cu2   O4    S    
C4    O4    A    
C9    H6    S    
Cu1   O3    S    
C7    O7    A    
C3    H4    S    
Cu2   O8    S    
C18   N1    A    
C12   C14   A    
Cu1   O7    S    
C6    O5    A    
C6    C14   S    
C10   C11   A    
C1    O1    A    
C10   C17   S    
C15   C16   S    
C7    O8    A    
C12   C13   A    
C4    O3    A    
C7    C9    S    
C19   H2    S    
C13   H7    S    
C14   C15   A    
C16   C17   S    
C5    C18   S    
C19   N1    A    
C1    O2    A    
C10   C15   A    
Cu1   O5    S    
Cu2   N1    S    
C20   I1    S    
Cu2   O6    S    
Cu1   N2    S    
C8    C9    D    
C3    C5    S    
C1    C11   S    
