data_mof_unit_46738.cif
_audit_creation_date              2012-12-11T15:30:38-0500
_audit_creation_method            fapswitch 2.2
_symmetry_space_group_name_H-M    P1
_symmetry_Int_Tables_number       1
_space_group_crystal_system       triclinic
_cell_length_a                    7.029382
_cell_length_b                    20.475124
_cell_length_c                    24.388168
_cell_angle_alpha                 89.89021
_cell_angle_beta                  91.114894
_cell_angle_gamma                 88.9342
_cell_volume                      3508.84648904

loop_
_atom_site_label
_atom_site_type_symbol
_atom_type_description
_atom_site_fract_x
_atom_site_fract_y
_atom_site_fract_z
_atom_type_partial_charge
O1    O     O_R   0.507310 0.423620 0.460450 -0.541693
O2    O     O_R   0.170760 0.556060 0.437190 -0.527850
O3    O     O_R   0.004040 0.576380 0.539550 -0.529206
C1    C     C_R   0.337283 0.575965 0.421356 0.685306
O4    O     O_R   0.177350 0.422870 0.454070 -0.536864
O5    O     O_R   0.010680 0.442240 0.556560 -0.524064
C2    C     C_R   0.346277 0.399023 0.443773 0.756595
O6    O     O_R   0.500670 0.557760 0.443440 -0.543668
O7    O     O_3   0.340380 0.506510 0.533610 -0.362195
V1    V     V_3+5 0.064130 0.498790 0.493770 1.581629
O8    O     O_R   0.681170 0.443940 0.562810 -0.535478
C3    C     C_R   0.852173 0.424269 0.578506 0.752837
O9    O     O_R   0.674570 0.577130 0.545930 -0.539084
C4    C     C_R   0.842612 0.600752 0.556789 0.772555
V2    V     V_3+5 0.564560 0.501210 0.506230 1.551002
O10   O     O_3   0.838170 0.493490 0.466390 -0.379189
C5    C     C_R   0.973863 0.838369 0.910668 -0.270949
C6    C     C_R   0.846782 0.661985 0.588716 -0.151042
C7    C     C_R   0.999609 0.720460 0.906892 0.559475
C8    C     C_R   0.018303 0.778742 0.935827 0.585407
C9    C     C_R   0.925404 0.839775 0.854572 -0.307227
C10   C     C_R   0.915189 0.781259 0.823016 0.044826
C11   C     C_R   0.935822 0.720460 0.851183 -0.160574
C12   C     C_R   0.886758 0.781205 0.764563 0.055113
C13   C     C_R   0.860102 0.721121 0.736184 0.068667
C14   C     C_R   0.824296 0.664613 0.767999 -0.004093
C15   C     C_R   0.885106 0.661995 0.823650 -0.115996
C16   C     C_R   0.887636 0.839400 0.733578 -0.141679
C17   C     C_R   0.857040 0.840271 0.676635 -0.052908
C18   C     C_R   0.838965 0.780556 0.648026 -0.030943
C19   C     C_R   0.858081 0.720385 0.677134 0.012109
C20   C     C_R   0.802831 0.779230 0.590827 -0.135647
C21   C     C_R   0.801824 0.720617 0.562082 -0.214656
C22   C     C_R   0.881475 0.661907 0.645749 0.608886
H1    H     H_    0.770231 0.721218 0.518400 0.158351
H2    H     H_    0.893364 0.887218 0.837153 0.143136
H3    H     H_    0.916022 0.885567 0.752797 0.161029
H4    H     H_    0.770918 0.823051 0.567498 0.142665
C23   C     C_3   0.774942 0.260648 0.802095 0.617408
C24   C     C_3   0.119678 0.236854 0.779436 0.534688
C25   C     C_3   0.107848 0.279689 0.725695 0.464171
H5    H     H_    0.882921 0.354779 0.778262 0.285104
H6    H     H_    0.188050 0.256308 0.692135 0.054348
C26   C     C_1   0.868403 0.378729 0.623855 -0.097631
C27   C     C_3   0.922098 0.204845 0.789949 -0.185909
C28   C     C_3   0.791651 0.316716 0.759297 -0.307296
C29   C     C_3   0.896127 0.290527 0.706736 -0.237482
C30   C     C_3   0.817679 0.221611 0.687431 -0.239428
C31   C     C_3   0.856021 0.169788 0.735545 -0.448090
C32   C     C_1   0.882952 0.339741 0.661286 0.050243
C33   C     C_1   0.938878 0.158490 0.837450 0.089068
C34   C     C_1   0.955231 0.120758 0.875751 -0.111642
H7    H     H_    0.974398 0.136902 0.723577 0.240122
H8    H     H_    0.629749 0.240564 0.800384 0.031898
C35   C     C_3   0.600482 0.705658 0.273026 0.252252
C36   C     C_3   0.251084 0.693879 0.241753 0.433117
C37   C     C_3   0.303950 0.738165 0.191324 0.235606
H9    H     H_    0.692866 0.736389 0.191748 0.294208
C38   C     C_1   0.481131 0.878942 0.124816 -0.040987
C39   C     C_3   0.386926 0.709136 0.292721 -0.268168
C40   C     C_3   0.633355 0.760925 0.228433 -0.190803
C41   C     C_3   0.438778 0.795188 0.210709 -0.200847
C42   C     C_3   0.363424 0.832394 0.263722 0.227818
C43   C     C_3   0.334923 0.781266 0.312472 0.353496
C44   C     C_1   0.467379 0.841363 0.163324 0.237677
C45   C     C_1   0.357338 0.660592 0.338167 0.192865
C46   C     C_1   0.343228 0.621701 0.375681 -0.060361
C47   C     C_R   0.471819 0.162619 0.087301 -0.187400
C48   C     C_R   0.353675 0.339752 0.409463 -0.252717
C49   C     C_R   0.536929 0.278452 0.091991 -0.172608
C50   C     C_R   0.523757 0.220469 0.061927 0.542591
C51   C     C_R   0.423680 0.162795 0.142703 -0.179295
C52   C     C_R   0.431279 0.220668 0.174696 0.067696
C53   C     C_R   0.506491 0.277471 0.149598 -0.106529
C54   C     C_R   0.379540 0.222999 0.231598 -0.153290
C55   C     C_R   0.421092 0.280016 0.263298 -0.074792
C56   C     C_R   0.529513 0.328800 0.239137 -0.106672
C57   C     C_R   0.565654 0.329132 0.183499 0.696138
C58   C     C_R   0.288944 0.170856 0.258469 0.564628
C59   C     C_R   0.270142 0.170684 0.315160 0.611007
C60   C     C_R   0.314134 0.225844 0.346272 -0.222052
C61   C     C_R   0.368709 0.284087 0.319864 0.041137
C62   C     C_R   0.296640 0.223914 0.403425 -0.096183
C63   C     C_R   0.323410 0.279656 0.434819 0.614584
C64   C     C_R   0.366385 0.343330 0.351501 -0.128472
H10   H     H_    0.395372 0.115856 0.160257 0.215886
H11   H     H_    0.593607 0.366849 0.263466 0.159419
H12   H     H_    0.261024 0.179033 0.424138 0.220343
O11   O     O_R   0.323590 0.942280 0.056590 -0.528643
O12   O     O_R   0.647030 0.077140 0.045940 -0.528881
O13   O     O_R   0.813570 0.057750 0.943430 -0.534134
C65   C     C_R   0.478199 0.101193 0.056063 0.795935
O14   O     O_R   0.653510 0.943950 0.062820 -0.529094
O15   O     O_R   0.820100 0.923600 0.960440 -0.542098
C66   C     C_R   0.487015 0.923974 0.078621 0.722069
O16   O     O_R   0.317060 0.076430 0.039590 -0.533964
O17   O     O_3   0.483830 0.993520 0.966410 -0.385499
V3    V     V_3+5 0.760140 0.001200 0.006230 1.575892
O18   O     O_R   0.149560 0.922820 0.954030 -0.535841
C67   C     C_R   0.981327 0.899205 0.943175 0.791101
O19   O     O_R   0.143080 0.056020 0.937150 -0.541392
C68   C     C_R   0.972051 0.075844 0.921553 0.714876
V4    V     V_3+5 0.259690 0.998730 0.993720 1.551710
O20   O     O_3   0.986120 0.006480 0.033580 -0.363450
C69   C     C_2   0.874332 0.599278 0.854087 0.552307
H13   H     H_    0.805824 0.597550 0.893532 0.133079
O21   O     O_2   0.944470 0.549235 0.835459 -0.463919
F1    F     F_    0.802894 0.285327 0.854538 -0.537665
C70   C     C_2   0.276499 0.185545 0.777484 0.184336
H14   H     H_    0.363934 0.176371 0.813906 0.119520
O22   O     O_2   0.297910 0.150985 0.737303 -0.542491
F2    F     F_    0.164308 0.277137 0.823447 -0.548169
F3    F     F_    0.191177 0.339526 0.734965 -0.608981
C71   C     C_2   0.698422 0.121615 0.743668 0.587556
H15   H     H_    0.632230 0.116581 0.783147 0.012248
O23   O     O_2   0.648687 0.085940 0.706185 -0.416204
C72   C     C_2   0.606629 0.229168 0.673023 0.567896
H16   H     H_    0.508542 0.240078 0.705134 0.003999
O24   O     O_2   0.544558 0.223801 0.626099 -0.471368
F4    F     F_    0.946811 0.605533 0.669477 -0.683294
C73   C     C_2   0.604115 0.352133 0.749158 0.521133
H17   H     H_    0.542374 0.356525 0.708196 0.076192
O25   O     O_2   0.522262 0.378188 0.787276 -0.391194
C74   C     C_2   0.919995 0.197714 0.636112 0.624322
H18   H     H_    0.010993 0.229830 0.613364 0.051247
O26   O     O_2   0.895625 0.142559 0.618612 -0.437416
F5    F     F_    0.629863 0.646481 0.246574 -0.592322
F6    F     F_    0.065781 0.708567 0.255863 -0.648324
C75   C     C_2   0.250842 0.621675 0.226394 0.727197
H19   H     H_    0.366509 0.599331 0.203995 0.146624
O27   O     O_2   0.117553 0.587385 0.238512 -0.430501
F7    F     F_    0.403359 0.700843 0.153376 -0.622182
C76   C     C_2   0.128189 0.761889 0.159731 0.642691
H20   H     H_    0.104166 0.813162 0.150755 0.039556
O28   O     O_2   0.015846 0.722621 0.140937 -0.435437
C77   C     C_2   0.443927 0.800274 0.364365 0.448900
H21   H     H_    0.567864 0.830889 0.363130 0.090992
O29   O     O_2   0.395152 0.780172 0.409045 -0.501081
F8    F     F_    0.146259 0.782302 0.328349 -0.654105
F9    F     F_    0.496787 0.878177 0.279405 -0.676093
C78   C     C_2   0.742016 0.703833 0.321377 0.657840
H22   H     H_    0.767132 0.745750 0.346992 -0.046114
O30   O     O_2   0.829186 0.653391 0.333191 -0.436324
C79   C     C_2   0.780561 0.810852 0.243230 0.508206
H23   H     H_    0.831228 0.817334 0.284765 0.100837
O31   O     O_2   0.830849 0.849407 0.208495 -0.519765
C80   C     C_2   0.189991 0.875832 0.253738 0.623532
H24   H     H_    0.087657 0.883129 0.285841 0.117369
O32   O     O_2   0.176884 0.911589 0.213666 -0.501218
F10   F     F_    0.676837 0.377437 0.164601 -0.606840
C81   C     C_2   0.343287 0.408958 0.325571 0.453437
H25   H     H_    0.404480 0.451533 0.345024 0.013237
O33   O     O_2   0.247747 0.416476 0.283594 -0.470132
F11   F     F_    0.305575 0.275901 0.490093 -0.656438
F12   F     F_    0.197644 0.117035 0.339470 -0.598011
C82   C     C_2   0.574403 0.339021 0.060798 0.707684
H26   H     H_    0.664642 0.337111 0.025198 0.109776
O34   O     O_2   0.495498 0.390679 0.072337 -0.437394
C83   C     C_2   0.859665 0.904597 0.647926 0.485846
H27   H     H_    0.892374 0.908087 0.604846 0.063526
O35   O     O_2   0.828239 0.955332 0.672682 -0.469894
F13   F     F_    0.560881 0.220231 0.007377 -0.662934
F14   F     F_    0.209907 0.120323 0.231067 -0.628409
F15   F     F_    0.048952 0.664477 0.933920 -0.600896
F16   F     F_    0.074945 0.776785 0.989395 -0.611510
C84   C     C_2   0.687312 0.614713 0.747641 0.509502
H28   H     H_    0.691812 0.565160 0.763292 0.117681
O36   O     O_2   0.561417 0.629501 0.714421 -0.513682

loop_
_geom_bond_atom_site_label_1
_geom_bond_atom_site_label_2
_ccdc_geom_bond_type
C13   C19   A    
O18   V4    S    
C43   C77   S    
C24   C25   S    
O19   C68   A    
C35   C78   S    
C50   F13   S    
C25   H6    S    
C42   F9    S    
C4    C6    S    
C37   F7    S    
O2    C1    A    
C7    C8    A    
C1    O6    A    
O17   V3    S    
C37   C41   S    
C17   C83   S    
C9    H2    S    
C56   C57   A    
C8    F16   S    
C69   O21   D    
C34   C68   S    
C14   C15   A    
C17   C18   A    
C62   C63   A    
C49   C82   S    
C16   C17   A    
C80   O32   D    
C63   F11   S    
C78   O30   D    
C83   H27   S    
O5    C3    A    
C18   C19   A    
C31   H7    S    
C23   H8    S    
C15   C69   S    
V2    O10   S    
C35   C40   S    
C65   O16   A    
C5    C8    A    
C36   C37   S    
C52   C53   A    
C80   H24   S    
C47   C65   S    
O8    V2    S    
C29   C30   S    
C49   C53   A    
C81   H25   S    
C83   O35   D    
C28   C73   S    
C49   C50   A    
O1    V2    S    
C11   C15   A    
O7    V1    S    
C36   C75   S    
C23   C27   S    
C35   C39   S    
H9    C40   S    
C36   F6    S    
C62   H12   S    
C39   C45   S    
C24   C70   S    
O14   C66   A    
O9    C4    A    
O11   V4    S    
C84   O36   D    
C52   C54   A    
C37   C76   S    
C24   C27   S    
C78   H22   S    
C38   C66   S    
C42   C80   S    
C60   C62   A    
C71   H15   S    
C29   C32   S    
C27   C33   S    
C22   F4    S    
C23   F1    S    
C33   C34   T    
C45   C46   T    
C55   C56   A    
C79   O31   D    
C55   C61   A    
O4    C2    A    
C59   C60   A    
C13   C14   A    
C42   C43   S    
C60   C61   A    
C36   C39   S    
C82   H26   S    
O11   C66   A    
C7    C11   A    
C54   C55   A    
C64   C81   S    
C30   C74   S    
C41   C42   S    
C40   C79   S    
O12   C65   A    
O18   C67   A    
O15   C67   A    
C47   C51   A    
C27   C31   S    
C25   C29   S    
C19   C22   A    
C12   C13   A    
C58   F14   S    
C6    C22   A    
C73   H17   S    
O17   V4    S    
O3    C4    A    
C23   C28   S    
C77   O29   D    
C30   C31   S    
C35   F5    S    
O6    V2    S    
C20   H4    S    
O9    V2    S    
H5    C28   S    
C76   H20   S    
C10   C12   A    
O13   C68   A    
O2    V1    S    
C48   C64   A    
C57   F10   S    
C59   F12   S    
C74   O26   D    
C75   H19   S    
C26   C32   T    
C28   C29   S    
C14   C84   S    
C41   C44   S    
O1    C2    A    
C12   C16   A    
C25   F3    S    
C51   C52   A    
C5    C67   S    
O5    V1    S    
C1    C46   S    
C71   O23   D    
O8    C3    A    
C30   C72   S    
C51   H10   S    
C61   C64   A    
C69   H13   S    
C39   C43   S    
C79   H23   S    
C20   C21   A    
C72   O24   D    
C2    C48   S    
O7    V2    S    
O4    V1    S    
C3    C26   S    
O3    V1    S    
V1    O10   S    
C72   H16   S    
C38   C44   T    
C18   C20   A    
C24   F2    S    
C84   H28   S    
C16   H3    S    
C47   C50   A    
V3    O20   S    
C70   O22   D    
C82   O34   D    
C21   H1    S    
C31   C71   S    
C7    F15   S    
C81   O33   D    
O13   V3    S    
C40   C41   S    
C6    C21   A    
C5    C9    A    
C73   O25   D    
C58   C59   A    
C56   H11   S    
O19   V4    S    
C53   C57   A    
O16   V4    S    
C70   H14   S    
V4    O20   S    
C48   C63   A    
C76   O28   D    
O15   V3    S    
C10   C11   A    
C77   H21   S    
C9    C10   A    
C54   C58   A    
O14   V3    S    
O12   V3    S    
C74   H18   S    
C75   O27   D    
C43   F8    S    
