data_mof_unit_6693.cif
_audit_creation_date              2012-12-11T14:49:55-0500
_audit_creation_method            fapswitch 2.2
_symmetry_space_group_name_H-M    P1
_symmetry_Int_Tables_number       1
_space_group_crystal_system       triclinic
_cell_length_a                    16.853728
_cell_length_b                    16.759837
_cell_length_c                    19.533958
_cell_angle_alpha                 116.295677
_cell_angle_beta                  62.35297
_cell_angle_gamma                 100.147878
_cell_volume                      4378.90569607

loop_
_atom_site_label
_atom_site_type_symbol
_atom_type_description
_atom_site_fract_x
_atom_site_fract_y
_atom_site_fract_z
_atom_type_partial_charge
C1    C     C_R   0.037126 0.759136 0.012820 -0.088247
C2    C     C_R   0.251145 0.518114 0.829838 -0.125150
C3    C     C_R   0.182265 0.490761 0.089032 -0.131502
C4    C     C_R   0.759863 0.427325 0.170338 -0.131949
C5    C     C_R   0.990609 0.340488 0.759722 -0.142181
C6    C     C_R   0.255590 0.542195 0.067494 0.094231
C7    C     C_R   0.946276 0.264269 0.761431 0.079067
C8    C     C_R   0.258095 0.455862 0.750579 0.073539
C9    C     C_R   0.029179 0.224283 0.005645 0.079292
C10   C     C_R   0.994123 0.116695 0.659249 -0.251551
C11   C     C_R   0.942528 0.191227 0.690522 0.088843
C12   C     C_R   0.761416 0.452702 0.248491 0.095353
C13   C     C_R   0.894053 0.197542 0.651874 -0.214482
C14   C     C_R   0.897243 0.126192 0.577820 0.045264
C15   C     C_R   0.949969 0.049104 0.545586 0.056724
C16   C     C_R   0.804738 0.560300 0.960653 -0.112549
C17   C     C_R   0.999295 0.045856 0.586410 0.145268
C18   C     C_R   0.849277 0.128785 0.535578 -0.107020
C19   C     C_R   0.850279 0.052729 0.465451 -0.195759
C20   C     C_R   0.901579 0.975888 0.433710 0.028923
C21   C     C_R   0.954561 0.975586 0.472440 0.051099
C22   C     C_R   0.013326 0.902382 0.437765 0.045941
C23   C     C_R   0.723321 0.548739 0.021369 0.054432
C24   C     C_R   0.063183 0.902299 0.478810 -0.155594
C25   C     C_R   0.054794 0.972934 0.553480 -0.207314
C26   C     C_R   0.904127 0.900410 0.361944 -0.126123
C27   C     C_R   0.966784 0.831451 0.326115 -0.086683
C28   C     C_R   0.957564 0.671253 0.247708 -0.113095
C29   C     C_R   0.022780 0.832041 0.361662 -0.108085
C30   C     C_R   0.341304 0.356269 0.596490 -0.239959
C31   C     C_R   0.341417 0.410880 0.675716 0.109286
C32   C     C_R   0.423354 0.434631 0.680355 -0.238662
C33   C     C_R   0.501464 0.424394 0.607030 0.142471
C34   C     C_R   0.974233 0.755844 0.251250 0.078326
C35   C     C_R   0.499063 0.382145 0.527645 0.044025
C36   C     C_R   0.420280 0.341799 0.521869 0.130380
C37   C     C_R   0.578663 0.465949 0.613236 -0.212048
C38   C     C_R   0.648199 0.477072 0.543674 -0.151486
C39   C     C_R   0.643047 0.443606 0.465651 0.040297
C40   C     C_R   0.738222 0.483214 0.039466 -0.112598
C41   C     C_R   0.571588 0.389020 0.455971 0.039228
C42   C     C_R   0.567270 0.349894 0.377460 0.139011
C43   C     C_R   0.493332 0.299727 0.370069 -0.186378
C44   C     C_R   0.419444 0.296946 0.442264 -0.179393
C45   C     C_R   0.249169 0.570146 0.013357 -0.129870
C46   C     C_R   0.701901 0.470367 0.400501 -0.113235
C47   C     C_R   0.698713 0.429347 0.320300 0.021034
C48   C     C_R   0.633590 0.366421 0.309158 -0.236002
C49   C     C_R   0.636803 0.592868 0.056354 0.120443
C50   C     C_R   0.321489 0.570567 0.102384 0.144935
C51   C     C_R   0.399987 0.539939 0.166304 -0.093998
C52   C     C_R   0.031323 0.751221 0.171511 0.014924
C53   C     C_R   0.323475 0.534399 0.154027 -0.235310
C54   C     C_R   0.389831 0.625473 0.074988 -0.222897
C55   C     C_R   0.468320 0.627904 0.081996 0.179413
C56   C     C_R   0.924902 0.261043 0.836543 -0.144490
C57   C     C_R   0.475818 0.581424 0.124271 0.076734
C58   C     C_R   0.560605 0.571050 0.116029 -0.223561
C59   C     C_R   0.627443 0.647498 0.022989 -0.156418
C60   C     C_R   0.542869 0.667078 0.037882 -0.197683
C61   C     C_R   0.832720 0.180842 0.139922 0.108260
C62   C     C_R   0.954987 0.862780 0.998458 0.107968
C63   C     C_R   0.872549 0.948559 0.977524 -0.206601
C64   C     C_R   0.842121 0.492435 0.241192 -0.107552
C65   C     C_R   0.912013 0.868362 0.953905 -0.163868
C66   C     C_R   0.960050 0.940582 0.066023 -0.215879
C67   C     C_R   0.172897 0.449153 0.754129 -0.119937
C68   C     C_R   0.918191 0.021994 0.092552 0.081594
C69   C     C_R   0.874008 0.024983 0.046958 0.194969
C70   C     C_R   0.831291 0.104249 0.071476 -0.275527
C71   C     C_R   0.876768 0.179564 0.184603 -0.204924
C72   C     C_R   0.919070 0.100873 0.162708 -0.114101
C73   C     C_R   0.960775 0.691189 0.936164 -0.130009
C74   C     C_R   0.985749 0.774638 0.980760 0.058496
C75   C     C_2   0.799303 0.209274 0.560176 1.014876
C76   C     C_2   0.840099 0.891145 0.325944 1.057863
C77   C     C_2   0.091566 0.759055 0.318169 0.980317
C78   C     C_R   0.051605 0.308130 0.052538 -0.114904
C79   C     C_2   0.753321 0.551661 0.422798 0.949361
C80   C     C_2   0.400303 0.492896 0.215030 1.005822
C81   C     C_2   0.961389 0.104496 0.215769 1.002022
C82   C     C_R   0.973635 0.239994 0.977283 -0.127939
H1    H     H_    0.883874 0.213269 0.860245 0.102322
H2    H     H_    0.425749 0.471313 0.740849 0.118921
H3    H     H_    0.703615 0.515601 0.553183 0.177699
H4    H     H_    0.815955 0.601833 0.928391 0.089737
H5    H     H_    0.630231 0.334402 0.248866 0.125092
H6    H     H_    0.489845 0.268205 0.309704 0.136150
H7    H     H_    0.360016 0.264071 0.436540 0.140557
H8    H     H_    0.568465 0.538188 0.149049 0.158511
H9    H     H_    0.684896 0.670160 0.980811 0.116834
H10   H     H_    0.537071 0.704510 0.007090 0.127176
H11   H     H_    0.268805 0.495455 0.179316 0.137632
H12   H     H_    0.153635 0.406552 0.704246 0.101151
H13   H     H_    0.387441 0.658255 0.039186 0.114154
H14   H     H_    0.796951 0.107263 0.037537 0.123596
H15   H     H_    0.921951 0.651751 0.299996 0.144465
H16   H     H_    0.690285 0.454645 0.081777 0.117520
H17   H     H_    0.065385 0.805590 0.155366 0.106129
H18   H     H_    0.876800 0.501420 0.278422 0.118411
H19   H     H_    0.930666 0.677297 0.894197 0.089301
H20   H     H_    0.076560 0.807267 0.041392 0.089067
H21   H     H_    0.158426 0.468473 0.139191 0.101473
H22   H     H_    0.032432 0.115322 0.690734 0.133659
H23   H     H_    0.091928 0.321228 0.085936 0.117986
H24   H     H_    0.853618 0.257443 0.681359 0.164052
H25   H     H_    0.690579 0.259050 0.572203 0.330929
H26   H     H_    0.821447 0.861501 0.222454 0.333938
H27   H     H_    0.130226 0.650830 0.316569 0.332315
H28   H     H_    0.108802 0.847887 0.454179 0.163054
H29   H     H_    0.279183 0.332391 0.591997 0.123964
H30   H     H_    0.582007 0.496979 0.673685 0.138699
H31   H     H_    0.855811 0.608537 0.451925 0.339008
H32   H     H_    0.457943 0.399193 0.217760 0.323985
H33   H     H_    0.876275 0.240308 0.237760 0.159168
H34   H     H_    0.941373 0.189930 0.941250 0.100293
H35   H     H_    0.839354 0.950420 0.942168 0.128396
H36   H     H_    0.978192 0.049121 0.281433 0.321541
H37   H     H_    0.907566 0.810499 0.901150 0.119670
H38   H     H_    0.994830 0.936447 0.098806 0.171345
H39   H     H_    0.286650 0.621206 0.993143 0.092548
H40   H     H_    0.303549 0.539322 0.850397 0.096891
H41   H     H_    0.010387 0.366009 0.712197 0.116370
H42   H     H_    0.713979 0.382537 0.148255 0.096685
H43   H     H_    0.814274 0.055991 0.433025 0.190470
H44   H     H_    0.093136 0.971273 0.584672 0.140651
N1    N     N_R   0.036080 0.671900 0.995420 -0.046872
N2    N     N_R   0.867430 0.509300 0.948100 -0.040683
N3    N     N_R   0.003360 0.617250 0.167070 -0.050198
N4    N     N_R   0.825450 0.461270 0.995400 -0.043770
N5    N     N_R   0.045340 0.665280 0.119770 -0.055744
N6    N     N_R   0.883740 0.497640 0.167070 -0.045715
N7    N     N_R   0.987050 0.628910 0.948110 -0.040943
N8    N     N_R   0.174550 0.538730 0.004600 -0.044680
N9    N     N_R   0.954660 0.334720 0.880230 -0.040208
N10   N     N_R   0.116260 0.502360 0.832930 -0.044177
N11   N     N_R   0.012950 0.371090 0.051890 -0.048609
N12   N     N_R   0.963920 0.328100 0.004580 -0.045441
N13   N     N_R   0.165290 0.545350 0.880240 -0.045729
N14   N     N_R   0.132570 0.490700 0.051900 -0.042801
N15   N     N_R   0.996640 0.382750 0.832930 -0.043391
N16   N     N_R   0.834710 0.454650 0.119760 -0.043391
Ni1   Ni    Ni4+2 0.104370 0.604370 0.000010 0.225634
Ni2   Ni    Ni4+2 0.895630 0.395630 0.999990 0.215274
Ni3   Ni    Ni4+2 0.991920 0.505780 0.891500 0.224035
Ni4   Ni    Ni4+2 0.008080 0.494220 0.108500 0.231319
O1    O     O_2   0.831119 0.282820 0.580389 -0.644160
O2    O     O_R   0.465919 0.426771 0.178170 -0.824033
O3    O     O_2   0.006213 0.168055 0.237244 -0.629385
O4    O     O_R   0.946600 0.038208 0.244925 -0.800934
O5    O     O_R   0.717548 0.200021 0.555639 -0.780882
O6    O     O_2   0.759752 0.904666 0.372657 -0.616226
O7    O     O_R   0.871410 0.865627 0.238894 -0.788123
O8    O     O_2   0.157346 0.752361 0.252100 -0.646699
O9    O     O_R   0.079728 0.697760 0.352374 -0.801630
O10   O     O_2   0.732672 0.620308 0.426438 -0.616899
O11   O     O_R   0.825746 0.549258 0.438350 -0.805304
O12   O     O_2   0.340081 0.509169 0.286385 -0.618665

loop_
_geom_bond_atom_site_label_1
_geom_bond_atom_site_label_2
_ccdc_geom_bond_type
C61   C70   A    
C28   H15   S    
C66   C68   A    
C63   C65   A    
C18   C75   S    
C6    C45   A    
C27   C29   A    
C41   C42   A    
C14   C18   A    
H32   O2    S    
C35   C36   A    
C43   C44   A    
C3    C6    A    
C39   C41   A    
C7    C11   S    
C55   C60   A    
C45   N8    A    
C50   C54   A    
C78   H23   S    
C1    C74   A    
C22   C29   A    
C18   C19   A    
C72   C81   S    
N10   N13   A    
C4    N16   A    
C46   C79   S    
C63   H35   S    
N2    Ni3   S    
C23   C49   S    
N3    Ni4   S    
C76   O6    D    
C10   C17   A    
C23   C40   A    
C76   O7    S    
C4    H42   S    
C28   N3    A    
C73   C74   A    
H36   O4    S    
C51   C80   S    
C37   H30   S    
C79   O10   D    
C46   C47   A    
N13   Ni1   S    
H26   O7    S    
C63   C69   A    
C75   O5    S    
C68   C69   A    
C67   H12   S    
C26   C76   S    
C51   C57   A    
C4    C12   A    
N4    Ni2   S    
N10   Ni3   S    
N15   Ni3   S    
C9    C82   A    
H25   O5    S    
C61   C71   A    
C73   H19   S    
N8    Ni1   S    
C28   C34   A    
C59   C60   A    
C66   H38   S    
C13   C14   A    
C16   H4    S    
C8    C31   S    
C7    C56   A    
C12   C47   S    
C43   H6    S    
C2    H40   S    
C27   C34   S    
N6    N16   A    
C32   H2    S    
C50   C53   A    
C62   C66   A    
C38   H3    S    
C53   H11   S    
C64   N6    A    
N11   Ni4   S    
C24   H28   S    
C24   C25   A    
N1    N7    A    
N14   Ni4   S    
C5    C7    A    
C42   C48   A    
C45   H39   S    
C19   H43   S    
C33   C37   A    
C49   C58   A    
C51   C53   A    
C70   H14   S    
C25   H44   S    
C37   C38   A    
C77   O8    D    
C16   N2    A    
C80   O12   D    
C47   C48   A    
C80   O2    S    
C30   C31   A    
C68   C72   A    
C26   C27   A    
C48   H5    S    
C71   H33   S    
N1    Ni1   S    
C6    C50   S    
C58   H8    S    
C75   O1    D    
C54   H13   S    
C35   C41   A    
C39   C46   A    
N9    Ni2   S    
C73   N7    A    
C16   C23   A    
C55   C57   A    
N16   Ni2   S    
C36   C44   A    
N7    Ni3   S    
C42   C43   A    
C2    N13   A    
C78   N11   A    
C56   N9    A    
N5    Ni1   S    
C56   H1    S    
C59   H9    S    
C3    H21   S    
C15   C17   A    
C12   C64   A    
C40   N4    A    
C54   C55   A    
C62   C65   A    
C52   N5    A    
C31   C32   A    
C2    C8    A    
C5    N15   A    
C1    N1    A    
C13   H24   S    
N2    N4    A    
C79   O11   S    
N8    N14   A    
N11   N12   A    
C5    H41   S    
C52   H17   S    
C34   C52   A    
C49   C59   A    
C30   C36   A    
C30   H29   S    
N6    Ni4   S    
C32   C33   A    
C19   C20   A    
C10   H22   S    
C67   N10   A    
C64   H18   S    
C17   C25   A    
C71   C72   A    
C82   N12   A    
N12   Ni2   S    
C77   O9    S    
C40   H16   S    
C11   C13   A    
C57   C58   A    
C38   C39   A    
C15   C21   A    
C20   C26   A    
C81   O3    D    
C33   C35   A    
C22   C24   A    
C9    C78   A    
C69   C70   A    
H27   O9    S    
C65   H37   S    
C10   C11   A    
C82   H34   S    
N9    N15   A    
C29   C77   S    
C20   C21   A    
C8    C67   A    
C14   C15   A    
C62   C74   S    
C3    N14   A    
H31   O11   S    
C21   C22   A    
C60   H10   S    
C1    H20   S    
C44   H7    S    
C81   O4    S    
N3    N5    A    
