data_mof_unit_47887.cif
_audit_creation_date              2012-10-26T18:50:27-0400
_audit_creation_method            fapswitch 2.2
_symmetry_space_group_name_H-M    P1
_symmetry_Int_Tables_number       1
_space_group_crystal_system       triclinic
_cell_length_a                    9.636409
_cell_length_b                    10.757423
_cell_length_c                    15.466777
_cell_angle_alpha                 86.243755
_cell_angle_beta                  73.804397
_cell_angle_gamma                 89.819862
_cell_volume                      1536.20424116

loop_
_atom_site_label
_atom_site_type_symbol
_atom_type_description
_atom_site_fract_x
_atom_site_fract_y
_atom_site_fract_z
_atom_type_partial_charge
C1    C     C_R   0.999052 0.262646 0.502707 0.532597
C2    C     C_R   0.245919 0.593727 0.047273 0.066668
C3    C     C_R   0.338275 0.539874 0.096143 0.018447
C4    C     C_R   0.917911 0.498290 0.672172 0.525588
C5    C     C_R   0.098942 0.611166 0.090143 -0.097545
C6    C     C_R   0.041840 0.574947 0.181215 -0.154291
C7    C     C_R   0.273355 0.490261 0.184455 -0.130736
C8    C     C_R   0.065598 0.115262 0.651229 -0.120986
C9    C     C_R   0.098587 0.043460 0.721038 -0.132158
C10   C     C_R   0.097803 0.914101 0.721250 -0.126523
C11   C     C_R   0.064079 0.855748 0.651635 -0.114954
C12   C     C_R   0.683053 0.521116 0.911060 -0.014838
C13   C     C_R   0.032349 0.926674 0.579430 0.016820
C14   C     C_R   0.033098 0.058128 0.579235 0.016406
C15   C     C_R   0.997224 0.128295 0.508118 0.002532
C16   C     C_R   0.998803 0.736903 0.502519 0.551314
C17   C     C_R   0.958602 0.069910 0.440142 -0.153181
C18   C     C_R   0.959308 0.941735 0.439918 -0.155957
C19   C     C_R   0.996616 0.870197 0.508218 0.013725
C20   C     C_R   0.694274 0.684397 0.397083 -0.161737
C21   C     C_R   0.643906 0.798534 0.374637 -0.193448
C22   C     C_R   0.497653 0.813516 0.387467 0.242417
C23   C     C_R   0.782460 0.486309 0.960363 0.040673
C24   C     C_R   0.408863 0.704670 0.401839 0.316343
C25   C     C_R   0.448590 0.596950 0.451084 0.119276
C26   C     C_R   0.598504 0.592339 0.449798 0.099221
C27   C     C_R   0.552530 0.411336 0.547585 -0.004617
C28   C     C_R   0.082231 0.499961 0.327921 0.555608
C29   C     C_R   0.405344 0.410659 0.546908 -0.020106
C30   C     C_R   0.873293 0.495598 0.771159 -0.054002
C31   C     C_R   0.129741 0.515941 0.229145 -0.010150
C32   C     C_R   0.926482 0.457723 0.914838 0.259330
C33   C     C_R   0.971808 0.466658 0.820531 -0.124668
C34   C     C_R   0.538864 0.551739 0.957636 0.023341
C35   C     C_R   0.730048 0.520481 0.816387 -0.152362
C36   C     C_3   0.422900 0.994912 0.449859 -0.119055
C37   C     C_3   0.300128 0.785642 0.288981 -0.089386
C38   C     C_3   0.051651 0.300570 0.961895 -0.130122
C39   C     C_3   0.574552 0.533394 0.199636 -0.411315
C40   C     C_R   0.490192 0.532347 0.053528 0.040006
C41   C     C_R   0.596573 0.510254 0.101452 -0.032402
C42   C     C_R   0.738276 0.483339 0.054284 -0.109317
C43   C     C_R   0.443081 0.605132 0.911308 -0.137408
C44   C     C_R   0.300548 0.628637 0.955990 -0.107871
Cu1   Cu    Cu3+1 0.140660 0.499990 0.500010 0.961614
Cu2   Cu    Cu3+1 0.859340 0.500010 0.499990 0.922668
H1    H     H_    0.816164 0.463436 0.092001 0.162480
H2    H     H_    0.808467 0.674186 0.375584 0.188457
H3    H     H_    0.718311 0.875023 0.345281 0.132810
H4    H     H_    0.333242 0.432186 0.220305 0.133383
H5    H     H_    0.333463 0.337361 0.585620 0.104491
H6    H     H_    0.930604 0.596065 0.214516 0.108885
H7    H     H_    0.231422 0.670970 0.918065 0.115992
H8    H     H_    0.083554 0.448288 0.786238 0.132213
H9    H     H_    0.656153 0.536606 0.776074 0.137444
H10   H     H_    0.476651 0.634903 0.840588 0.104605
H11   H     H_    0.526492 0.015594 0.464955 0.121691
H12   H     H_    0.028862 0.655038 0.053559 0.125389
H13   H     H_    0.347658 0.942268 0.508633 0.133704
H14   H     H_    0.371799 0.085082 0.439288 0.152431
H15   H     H_    0.410064 0.804231 0.242477 0.130073
H16   H     H_    0.247428 0.872081 0.316429 0.172862
H17   H     H_    0.233497 0.749922 0.247912 0.108656
H18   H     H_    0.107023 0.273211 0.892739 0.104594
H19   H     H_    0.949747 0.245318 0.990645 0.114898
H20   H     H_    0.124253 0.277452 0.004908 0.148184
H21   H     H_    0.669849 0.583215 0.208699 0.118425
H22   H     H_    0.482820 0.595072 0.224768 0.166633
H23   H     H_    0.931114 0.124122 0.385808 0.123568
H24   H     H_    0.560397 0.443731 0.241178 0.140233
H25   H     H_    0.063880 0.215267 0.655159 0.124089
H26   H     H_    0.123346 0.088376 0.775699 0.099007
H27   H     H_    0.122025 0.858638 0.776056 0.109598
H28   H     H_    0.061530 0.755104 0.655760 0.137595
H29   H     H_    0.934573 0.897974 0.384828 0.097441
H30   H     H_    0.589753 0.338617 0.587001 0.115968
N1    N     N_R   0.648320 0.501210 0.499140 -0.230357
N2    N     N_R   0.352470 0.501290 0.499110 -0.232594
O1    O     O_R   0.118810 0.319640 0.500010 -0.516521
O2    O     O_3   0.299361 0.695350 0.359933 -0.525521
O3    O     O_3   0.025749 0.429569 0.962512 -0.585307
O4    O     O_R   0.881240 0.319660 0.500000 -0.501083
O5    O     O_R   0.055570 0.499980 0.629840 -0.523267
O6    O     O_R   0.818000 0.500010 0.629830 -0.498414
O7    O     O_R   0.118760 0.680340 0.500000 -0.451388
O8    O     O_R   0.881190 0.680360 0.499990 -0.516588
O9    O     O_R   0.182000 0.499990 0.370170 -0.436054
O10   O     O_R   0.944430 0.500020 0.370160 -0.525120
O11   O     O_3   0.447217 0.930388 0.370697 -0.589043

loop_
_geom_bond_atom_site_label_1
_geom_bond_atom_site_label_2
_ccdc_geom_bond_type
C36   O11   S    
C17   H23   S    
C18   H29   S    
C27   C29   A    
C41   C42   A    
C9    H26   S    
C36   H13   S    
C21   H3    S    
C37   H16   S    
C39   C41   S    
Cu1   Cu2   S    
C32   O3    S    
C12   C23   A    
C23   C42   A    
C5    H12   S    
C34   C40   A    
Cu1   O9    S    
C3    C7    A    
C5    C6    A    
C10   H27   S    
C18   C19   A    
C39   H22   S    
Cu2   O4    S    
C44   H7    S    
C24   O2    S    
C29   N2    A    
C38   H20   S    
C2    C44   A    
C8    C9    A    
C28   O10   A    
Cu1   N2    S    
C1    C15   S    
C9    C10   A    
Cu2   O10   S    
C6    C31   A    
C13   C14   A    
C16   O8    A    
Cu1   O5    S    
C37   H17   S    
C38   H18   S    
C37   O2    S    
C26   N1    A    
C7    C31   A    
C13   C19   A    
C35   H9    S    
C25   N2    A    
C24   C25   A    
C36   H11   S    
C36   H14   S    
C1    O4    A    
Cu1   O7    S    
C43   C44   A    
C4    O6    A    
C38   H19   S    
C22   O11   S    
C28   O9    A    
C17   C18   A    
Cu1   O1    S    
C12   C35   A    
C20   H2    S    
Cu2   O6    S    
C30   C35   A    
C40   C41   A    
C3    C40   A    
C38   O3    S    
C16   O7    A    
C1    O1    A    
C22   C24   A    
C2    C5    A    
C12   C34   A    
C27   H30   S    
C29   H5    S    
C33   H8    S    
C15   C17   A    
C8    H25   S    
C8    C14   A    
C30   C33   A    
C39   H21   S    
C28   C31   S    
C34   C43   A    
C7    H4    S    
C27   N1    A    
C11   H28   S    
Cu2   N1    S    
C37   H15   S    
C23   C32   A    
C2    C3    A    
C25   C26   A    
C32   C33   A    
C11   C13   A    
C4    O5    A    
C20   C26   A    
C16   C19   S    
C39   H24   S    
C42   H1    S    
C10   C11   A    
C43   H10   S    
C20   C21   A    
C14   C15   A    
C6    H6    S    
C21   C22   A    
C4    C30   S    
Cu2   O8    S    
