data_mof_unit_49160.cif
_audit_creation_date              2012-12-10T17:02:05-0500
_audit_creation_method            fapswitch 2.2
_symmetry_space_group_name_H-M    P1
_symmetry_Int_Tables_number       1
_space_group_crystal_system       triclinic
_cell_length_a                    10.839173
_cell_length_b                    10.782861
_cell_length_c                    9.924072
_cell_angle_alpha                 108.211126
_cell_angle_beta                  101.133644
_cell_angle_gamma                 90.490918
_cell_volume                      1078.10523245

loop_
_atom_site_label
_atom_site_type_symbol
_atom_type_description
_atom_site_fract_x
_atom_site_fract_y
_atom_site_fract_z
_atom_type_partial_charge
C1    C     C_R   0.501816 0.253729 0.444718 0.834341
C2    C     C_2   0.602624 0.941815 0.532777 0.355160
C3    C     C_2   0.512346 0.508656 0.078754 0.362405
C4    C     C_R   0.262875 0.511745 0.499663 0.804672
C5    C     C_2   0.505368 0.475083 0.917742 0.036100
C6    C     C_R   0.509231 0.745922 0.555608 0.822493
C7    C     C_R   0.738433 0.496085 0.502899 0.879556
C8    C     C_R   0.161566 0.694951 0.737819 -0.232149
C9    C     C_R   0.116998 0.760627 0.861960 0.332718
C10   C     C_R   0.009254 0.709104 0.888996 0.305095
C11   C     C_R   0.940277 0.598945 0.784156 0.289601
C12   C     C_R   0.087649 0.590237 0.627555 0.004917
C13   C     C_R   0.965893 0.556461 0.641755 -0.022012
C14   C     C_2   0.059717 0.463735 0.225412 0.956095
C15   C     C_2   0.463365 0.013755 0.281538 1.008782
C16   C     C_2   0.454335 0.341673 0.826243 0.886044
C17   C     C_2   0.325170 0.380841 0.059784 0.978508
C18   C     C_2   0.702618 0.168820 0.637855 0.997774
C19   C     C_2   0.402603 0.954400 0.622785 0.805853
C20   C     C_R   0.127873 0.528342 0.497532 -0.099640
C21   C     C_R   0.036841 0.471676 0.369463 -0.041656
C22   C     C_R   0.913053 0.450686 0.378570 -0.158941
C23   C     C_R   0.875069 0.493091 0.511521 -0.029133
C24   C     C_2   0.522371 0.112896 0.423719 -0.293590
C25   C     C_2   0.600077 0.077949 0.530381 -0.169490
C26   C     C_2   0.511966 0.885821 0.576156 -0.152169
Cl1   Cl    Cl    0.631951 0.628381 0.190028 -0.463726
Cl2   Cl    Cl    0.198393 0.905859 0.983098 -0.444736
Cl3   Cl    Cl    0.961460 0.780852 0.054983 -0.373229
Cl4   Cl    Cl    0.863108 0.493131 0.851505 -0.504331
Cl5   Cl    Cl    0.740963 0.861986 0.499941 -0.478760
Cu1   Cu    Cu3+1 0.521920 0.521810 0.644910 1.080272
Cu2   Cu    Cu3+1 0.478080 0.478190 0.355090 1.117774
H1    H     H_    0.587721 0.647191 0.930278 0.274274
H2    H     H_    0.248596 0.733198 0.722405 0.202431
H3    H     H_    0.843792 0.409530 0.278522 0.205152
H4    H     H_    0.109425 0.566963 0.103882 0.375603
H5    H     H_    0.404013 0.825316 0.166076 0.371165
H6    H     H_    0.309702 0.227359 0.678751 0.355480
H7    H     H_    0.165278 0.375877 0.914190 0.369644
H8    H     H_    0.816993 0.217374 0.835905 0.390898
H9    H     H_    0.303030 0.015584 0.779985 0.378764
N1    N     N_2   0.445130 0.445430 0.137370 -0.283506
N2    N     N_2   0.554930 0.554500 0.862630 -0.277351
O1    O     O_R   0.511700 0.332330 0.577400 -0.568751
O2    O     O_R   0.116878 0.573258 0.208906 -0.692863
O3    O     O_2   0.439139 0.046979 0.172920 -0.464626
O4    O     O_R   0.439017 0.882706 0.269367 -0.698545
O5    O     O_2   0.507226 0.247620 0.846743 -0.564140
O6    O     O_R   0.339929 0.322820 0.726698 -0.700140
O7    O     O_2   0.288247 0.283540 0.082860 -0.473569
O8    O     O_R   0.247199 0.431698 0.963204 -0.796201
O9    O     O_2   0.757865 0.249723 0.603545 -0.570491
O10   O     O_R   0.743152 0.153655 0.774040 -0.667365
O11   O     O_2   0.328962 0.994779 0.539084 -0.565360
O12   O     O_R   0.474680 0.295500 0.332650 -0.515997
O13   O     O_R   0.380755 0.967125 0.760448 -0.675055
O14   O     O_R   0.338160 0.518420 0.622400 -0.540367
O15   O     O_R   0.301140 0.481590 0.377650 -0.576307
O16   O     O_R   0.525320 0.704500 0.667350 -0.567503
O17   O     O_R   0.488300 0.667670 0.422600 -0.510192
O18   O     O_R   0.698860 0.518410 0.622350 -0.524657
O19   O     O_R   0.661840 0.481580 0.377600 -0.550112
O20   O     O_2   0.019738 0.367482 0.120198 -0.534911

loop_
_geom_bond_atom_site_label_1
_geom_bond_atom_site_label_2
_ccdc_geom_bond_type
C17   N1    S    
C7    O18   A    
C4    C20   S    
C15   O3    D    
C8    C12   A    
C22   H3    S    
C9    C10   A    
H5    O4    S    
H4    O2    S    
Cu1   O14   S    
Cu2   O19   S    
C14   O20   D    
Cu1   Cu2   S    
C17   O7    D    
Cu2   O12   S    
C3    Cl1   S    
Cu2   O15   S    
Cu1   N2    S    
C3    C5    S    
Cu1   O18   S    
C2    C26   D    
Cu1   O1    S    
C21   C22   A    
C24   C25   D    
C12   C13   A    
C11   C13   A    
C10   Cl3   S    
C3    N1    D    
C6    C26   S    
C18   C25   S    
C12   C20   A    
C11   Cl4   S    
C17   O8    S    
C7    C23   S    
C15   O4    S    
H9    O13   S    
C15   C24   S    
C1    O12   A    
C16   O6    S    
C2    C25   S    
H8    O10   S    
C10   C11   A    
C18   O10   S    
C14   C21   S    
C4    O15   A    
C6    O16   A    
H6    O6    S    
H1    N2    S    
C16   O5    D    
C6    O17   A    
C1    C24   S    
Cu2   O17   S    
C13   C23   A    
C7    O19   A    
C1    O1    A    
C19   O11   D    
C19   C26   S    
Cu1   O16   S    
C22   C23   A    
C8    C9    A    
C5    C16   S    
C18   O9    D    
C4    O14   A    
C20   C21   A    
H7    O8    S    
C5    N2    D    
C19   O13   S    
C9    Cl2   S    
C2    Cl5   S    
C14   O2    S    
C8    H2    S    
Cu2   N1    S    
