data_mof_unit_14827.cif
_audit_creation_date              2012-12-11T16:29:26-0500
_audit_creation_method            fapswitch 2.2
_symmetry_space_group_name_H-M    P1
_symmetry_Int_Tables_number       1
_space_group_crystal_system       triclinic
_cell_length_a                    6.963588
_cell_length_b                    17.382253
_cell_length_c                    18.662716
_cell_angle_alpha                 106.248692
_cell_angle_beta                  89.232435
_cell_angle_gamma                 90.134265
_cell_volume                      2168.55889233

loop_
_atom_site_label
_atom_site_type_symbol
_atom_type_description
_atom_site_fract_x
_atom_site_fract_y
_atom_site_fract_z
_atom_type_partial_charge
O1    O     O_R   0.494360 0.415680 0.413760 -0.531932
O2    O     O_R   0.818810 0.432910 0.557230 -0.532195
O3    O     O_R   0.994290 0.584320 0.586240 -0.543265
C1    C     C_R   0.649719 0.416143 0.580747 0.715121
O4    O     O_R   0.823740 0.406440 0.412520 -0.537899
O5    O     O_R   0.999250 0.557660 0.440500 -0.522846
C2    C     C_R   0.655945 0.383368 0.384934 0.681474
O6    O     O_R   0.489400 0.442340 0.559500 -0.510293
O7    O     O_3   0.662500 0.549650 0.509350 -0.359146
V1    V     V_3+5 0.935340 0.490790 0.498270 1.450734
O8    O     O_R   0.329270 0.567090 0.442770 -0.528260
C3    C     C_R   0.161303 0.584310 0.419665 0.704578
O9    O     O_R   0.324340 0.593560 0.587480 -0.524364
C4    C     C_R   0.154148 0.615599 0.615581 0.784569
V2    V     V_3+5 0.435970 0.509210 0.501730 1.477494
O10   O     O_3   0.158940 0.450350 0.490650 -0.355151
C5    C     C_R   0.259935 0.599441 0.763365 0.338827
C6    C     C_R   0.339696 0.595222 0.830648 -0.247603
C7    C     C_R   0.348544 0.662244 0.891630 0.407529
C8    C     C_R   0.271939 0.734550 0.886185 -0.260265
C9    C     C_R   0.201787 0.743117 0.817928 -0.039682
C10   C     C_R   0.203315 0.675098 0.754041 -0.020703
C11   C     C_R   0.123180 0.817379 0.814216 -0.134155
C12   C     C_R   0.050462 0.825202 0.745202 0.003959
C13   C     C_R   0.058207 0.757524 0.680785 -0.012070
C14   C     C_R   0.139244 0.683673 0.684582 -0.142411
C15   C     C_R   0.974343 0.899110 0.737530 0.386056
C16   C     C_R   0.881327 0.899577 0.670909 -0.247424
C17   C     C_R   0.889702 0.833675 0.608048 -0.035859
C18   C     C_R   0.984069 0.764669 0.612646 -0.209976
H1    H     H_    0.385748 0.537979 0.836756 0.140567
H2    H     H_    0.264742 0.783028 0.937091 0.111716
H3    H     H_    0.804180 0.952032 0.667090 0.161522
H4    H     H_    0.994931 0.715826 0.562167 0.150676
C19   C     C_1   0.112425 0.865876 0.134263 -0.138984
C20   C     C_1   0.120951 0.824333 0.178743 0.040679
C21   C     C_1   0.130787 0.774664 0.231096 0.030890
C22   C     C_1   0.138608 0.732176 0.274777 0.020627
C23   C     C_1   0.147224 0.680975 0.325834 0.031295
C24   C     C_1   0.153971 0.637348 0.368523 -0.162891
C25   C     C_1   0.641306 0.364938 0.633452 -0.214815
C26   C     C_1   0.638261 0.323014 0.677679 0.002647
C27   C     C_1   0.636719 0.273525 0.730210 -0.008132
C28   C     C_1   0.635087 0.231531 0.774347 -0.010241
C29   C     C_1   0.630696 0.180978 0.825968 -0.006190
C30   C     C_1   0.624956 0.137570 0.868837 -0.231700
C31   C     C_R   0.564204 0.405093 0.241325 -0.289963
C32   C     C_R   0.522369 0.418736 0.172892 0.376373
C33   C     C_R   0.497615 0.353119 0.109637 0.355420
C34   C     C_R   0.534359 0.275843 0.114197 -0.291653
C35   C     C_R   0.581151 0.260897 0.182641 0.016709
C36   C     C_R   0.595347 0.326821 0.247531 0.007710
C37   C     C_R   0.612573 0.181602 0.186792 -0.126285
C38   C     C_R   0.654120 0.167802 0.257255 0.013211
C39   C     C_R   0.686493 0.235038 0.320165 0.060354
C40   C     C_R   0.647785 0.314111 0.316423 -0.118226
C41   C     C_R   0.663808 0.089208 0.267745 -0.101160
C42   C     C_R   0.741768 0.078051 0.333936 -0.087533
C43   C     C_R   0.787407 0.145357 0.393697 -0.042589
C44   C     C_R   0.753340 0.222102 0.386867 -0.201870
H5    H     H_    0.577698 0.457160 0.289019 0.142450
H6    H     H_    0.523565 0.227877 0.063027 0.137403
H7    H     H_    0.779303 0.272129 0.435262 0.139452
O11   O     O_R   0.775690 0.057750 0.940570 -0.508492
O12   O     O_R   0.441200 0.093570 0.087490 -0.522890
O13   O     O_R   0.265840 0.942320 0.059480 -0.521419
C45   C     C_R   0.608345 0.114674 0.116534 0.714629
O14   O     O_R   0.446270 0.067110 0.942790 -0.533058
O15   O     O_R   0.270950 0.915660 0.913750 -0.544695
C46   C     C_R   0.615514 0.084526 0.919849 0.723496
O16   O     O_R   0.770580 0.084400 0.086300 -0.531951
O17   O     O_3   0.602640 0.950400 0.990690 -0.371072
V3    V     V_3+5 0.329740 0.009200 0.001730 1.453090
O18   O     O_R   0.940900 0.906360 0.912450 -0.525633
C47   C     C_R   0.110733 0.884889 0.883892 0.785666
O19   O     O_R   0.935830 0.932820 0.057160 -0.520575
C48   C     C_R   0.103908 0.916430 0.080961 0.754468
V4    V     V_3+5 0.829130 0.990680 0.998180 1.464065
O20   O     O_3   0.106100 0.049590 0.009310 -0.359877
C49   C     C_2   0.801868 0.836998 0.536739 0.809906
O21   O     O_2   0.723417 0.898343 0.532199 -0.526815
O22   O     O_R   0.808622 0.769876 0.474342 -0.673989
H8    H     H_    0.744733 0.779697 0.429183 0.295706
O23   O     O_3   0.496003 0.496915 0.170440 -0.577847
C50   C     C_3   0.649338 0.520821 0.130801 0.086989
H9    H     H_    0.608781 0.579411 0.122327 0.153765
H10   H     H_    0.671347 0.479019 0.074138 0.150326
C51   C     C_3   0.837900 0.531742 0.174412 -0.366809
H11   H     H_    0.813565 0.572345 0.231457 0.213505
H12   H     H_    0.888638 0.472927 0.179404 0.184813
C52   C     C_3   0.994022 0.566788 0.134875 -0.812271
H13   H     H_    0.012266 0.530009 0.076078 0.224164
H14   H     H_    0.132462 0.568180 0.163986 0.264345
H15   H     H_    0.955162 0.628768 0.135656 0.236720
O24   O     O_3   0.451501 0.363957 0.041272 -0.577378
C53   C     C_3   0.250999 0.374795 0.037914 0.094300
H16   H     H_    0.226452 0.412489 0.999640 0.146370
H17   H     H_    0.185071 0.407492 0.092801 0.130195
C54   C     C_3   0.150657 0.294045 0.006321 -0.350201
H18   H     H_    0.217576 0.261796 0.951790 0.206080
H19   H     H_    0.166951 0.256661 0.045380 0.197907
C55   C     C_3   0.937168 0.305656 0.995602 -0.784375
H20   H     H_    0.870412 0.340626 0.049054 0.233830
H21   H     H_    0.865696 0.246396 0.977297 0.233347
H22   H     H_    0.915656 0.337869 0.952631 0.230893
C56   C     C_2   0.568246 0.019710 0.216051 0.774286
O25   O     O_2   0.394882 0.021708 0.207373 -0.543299
O26   O     O_R   0.673858 0.951231 0.180099 -0.661484
H23   H     H_    0.591252 0.907581 0.147346 0.283540
C57   C     C_2   0.775076 0.995853 0.340500 0.889935
O27   O     O_2   0.937265 0.975075 0.351326 -0.524224
O28   O     O_R   0.621285 0.942694 0.334769 -0.633965
H24   H     H_    0.662610 0.888688 0.340089 0.303659
O29   O     O_3   0.224640 0.528040 0.709497 -0.565132
C58   C     C_3   0.065887 0.488345 0.732133 0.100806
H25   H     H_    0.950222 0.482697 0.690853 0.137929
H26   H     H_    0.999398 0.521152 0.787058 0.062133
C59   C     C_3   0.125487 0.404973 0.736522 -0.342933
H27   H     H_    0.260155 0.409386 0.768633 0.196152
H28   H     H_    0.011909 0.380950 0.766708 0.158157
C60   C     C_3   0.155023 0.346227 0.659430 -0.642632
H29   H     H_    0.017614 0.333760 0.629556 0.225263
H30   H     H_    0.213535 0.288896 0.665131 0.202030
H31   H     H_    0.255207 0.371115 0.625351 0.256670
O30   O     O_3   0.401405 0.652472 0.959737 -0.579375
C61   C     C_3   0.560951 0.701097 0.988777 0.078926
H32   H     H_    0.538932 0.724111 0.050171 0.137056
H33   H     H_    0.579519 0.754700 0.967578 0.112119
C62   C     C_3   0.743709 0.650409 0.972978 -0.319032
H34   H     H_    0.726205 0.597635 0.995046 0.197817
H35   H     H_    0.770123 0.628605 0.911734 0.189064
C63   C     C_3   0.915487 0.699164 0.009761 -0.827269
H36   H     H_    0.943748 0.748900 0.984545 0.222966
H37   H     H_    0.043590 0.659890 0.002188 0.270039
H38   H     H_    0.886813 0.724528 0.070357 0.222912
O31   O     O_3   0.986916 0.968908 0.796535 -0.579670
C64   C     C_3   0.033643 0.038649 0.774530 0.069103
H39   H     H_    0.045960 0.088797 0.826426 0.147473
H40   H     H_    0.915454 0.056704 0.743412 0.126879
C65   C     C_3   0.227141 0.032337 0.732367 -0.339236
H41   H     H_    0.345171 0.027395 0.770305 0.192222
H42   H     H_    0.232059 0.978477 0.683458 0.210785
C66   C     C_3   0.259431 0.105694 0.704057 -0.766208
H43   H     H_    0.148069 0.108686 0.662836 0.238391
H44   H     H_    0.402588 0.101553 0.676313 0.250798
H45   H     H_    0.252620 0.161357 0.751117 0.222275
C67   C     C_2   0.858474 0.138406 0.466577 0.808482
O32   O     O_2   0.808913 0.082439 0.490265 -0.522386
O33   O     O_R   0.978945 0.197636 0.509325 -0.672824
H46   H     H_    0.017699 0.186339 0.557575 0.290264

loop_
_geom_bond_atom_site_label_1
_geom_bond_atom_site_label_2
_ccdc_geom_bond_type
C66   H45   S    
C39   C40   A    
C61   H32   S    
C25   C26   T    
O24   C53   S    
C12   C15   A    
C1    O6    A    
O29   C58   S    
C50   H9    S    
C64   H40   S    
C21   C22   T    
C44   H7    S    
C15   O31   S    
C16   C17   A    
C67   O33   S    
O19   V4    S    
O5    C3    A    
C22   C23   S    
C1    C25   S    
C66   H43   S    
C53   C54   S    
O12   V3    S    
O26   H23   S    
C55   H22   S    
C6    C7    A    
C57   O27   D    
C60   H31   S    
O17   V4    S    
C59   H27   S    
O8    V2    S    
C67   O32   D    
C63   H36   S    
O12   C45   A    
C53   H17   S    
C11   C12   A    
C65   C66   S    
O15   V3    S    
O1    V2    S    
O11   C46   A    
O7    V1    S    
C62   C63   S    
C39   C44   A    
C51   H11   S    
C41   C56   S    
C43   C44   A    
O1    C2    A    
O9    C4    A    
C2    C40   S    
O28   H24   S    
C6    H1    S    
C5    O29   S    
C5    C6    A    
C59   H28   S    
O19   C48   A    
C50   H10   S    
C65   H41   S    
C64   C65   S    
C30   C46   S    
O18   C47   A    
C18   H4    S    
C35   C36   A    
C12   C13   A    
C49   O22   S    
C23   C24   T    
O4    C2    A    
V4    O20   S    
C49   O21   D    
C61   C62   S    
C58   H26   S    
C13   C14   A    
C29   C30   T    
O13   V3    S    
C7    O30   S    
C33   O24   S    
C32   O23   S    
C35   C37   A    
C59   C60   S    
C3    C24   S    
O2    C1    A    
C27   C28   T    
C31   H5    S    
C17   C18   A    
C52   H14   S    
C31   C32   A    
C51   C52   S    
C58   C59   S    
C53   H16   S    
C4    C14   S    
C34   C35   A    
V3    O20   S    
O23   C50   S    
C55   H21   S    
C60   H29   S    
O3    C4    A    
O14   C46   A    
C32   C33   A    
C54   H19   S    
C51   H12   S    
C16   H3    S    
O22   H8    S    
O6    V2    S    
C9    C11   A    
O18   V4    S    
O30   C61   S    
C34   H6    S    
C42   C43   A    
C26   C27   S    
O2    V1    S    
C52   H13   S    
C28   C29   S    
C62   H34   S    
C8    H2    S    
C50   C51   S    
C13   C18   A    
C66   H44   S    
O13   C48   A    
C38   C39   A    
C20   C21   S    
C61   H33   S    
C42   C57   S    
O11   V4    S    
C11   C47   S    
O17   V3    S    
O5    V1    S    
O8    C3    A    
C37   C38   A    
C31   C36   A    
C65   H42   S    
C64   H39   S    
C5    C10   A    
C54   H18   S    
C7    C8    A    
O9    V2    S    
O14   V3    S    
O4    V1    S    
O3    V1    S    
V1    O10   S    
O33   H46   S    
C52   H15   S    
C41   C42   A    
C17   C49   S    
C56   O26   S    
C63   H38   S    
C19   C48   S    
O15   C47   A    
C45   O16   A    
O7    V2    S    
C55   H20   S    
C37   C45   S    
C57   O28   S    
C60   H30   S    
C10   C14   A    
C36   C40   A    
C54   C55   S    
C8    C9    A    
C63   H37   S    
C33   C34   A    
C56   O25   D    
C15   C16   A    
O31   C64   S    
C19   C20   T    
C58   H25   S    
C9    C10   A    
O16   V4    S    
V2    O10   S    
C62   H35   S    
C38   C41   A    
C43   C67   S    
