data_mof_unit_13457.cif
_audit_creation_date              2012-12-10T17:26:25-0500
_audit_creation_method            fapswitch 2.2
_symmetry_space_group_name_H-M    P1
_symmetry_Int_Tables_number       1
_space_group_crystal_system       triclinic
_cell_length_a                    10.091432
_cell_length_b                    10.742228
_cell_length_c                    27.749596
_cell_angle_alpha                 89.905771
_cell_angle_beta                  81.175731
_cell_angle_gamma                 96.817851
_cell_volume                      2950.9489421

loop_
_atom_site_label
_atom_site_type_symbol
_atom_type_description
_atom_site_fract_x
_atom_site_fract_y
_atom_site_fract_z
_atom_type_partial_charge
C1    C     C_R   0.558459 0.733471 0.498087 0.849703
C2    C     C_R   0.576595 0.595360 0.123207 -0.022528
C3    C     C_R   0.501753 0.501135 0.646502 -0.041861
C4    C     C_R   0.498276 0.498907 0.353502 -0.041966
C5    C     C_R   0.576427 0.599700 0.021346 0.045083
C6    C     C_R   0.429855 0.397952 0.978230 0.045021
C7    C     C_R   0.422788 0.401137 0.029588 0.044390
C8    C     C_R   0.571977 0.603034 0.970582 0.044483
C9    C     C_R   0.499007 0.500346 0.050715 0.071301
C10   C     C_R   0.501525 0.500543 0.949157 0.071568
C11   C     C_R   0.656822 0.692092 0.043914 -0.213957
C12   C     C_R   0.441541 0.266530 0.501911 0.850065
C13   C     C_R   0.368466 0.294800 0.954684 -0.214820
C14   C     C_R   0.656393 0.689925 0.093879 -0.134897
C15   C     C_R   0.371868 0.295210 0.904563 -0.134962
C16   C     C_R   0.500512 0.500194 0.593924 0.881861
C17   C     C_R   0.499488 0.499803 0.406077 0.881991
C18   C     C_R   0.634868 0.706188 0.940315 -0.214679
C19   C     C_R   0.340910 0.308731 0.060830 -0.213872
C20   C     C_2   0.597583 0.866773 0.490789 0.280896
C21   C     C_2   0.402412 0.133228 0.509199 0.281084
C22   C     C_2   0.512658 0.943656 0.513213 0.337042
C23   C     C_R   0.502681 0.500672 0.898037 -0.051530
C24   C     C_2   0.487335 0.056345 0.486775 0.337381
C25   C     C_2   0.927705 0.510480 0.503867 -0.126805
C26   C     C_2   0.072289 0.489506 0.496139 -0.126967
C27   C     C_R   0.568519 0.602063 0.818490 0.504771
C28   C     C_R   0.418911 0.405978 0.182058 0.505236
C29   C     C_R   0.439349 0.400065 0.825477 0.507784
C30   C     C_R   0.574270 0.593200 0.173723 0.507809
C31   C     C_R   0.621483 0.485434 0.715011 -0.097475
C32   C     C_R   0.381534 0.523413 0.284795 -0.096453
C33   C     C_R   0.620713 0.484901 0.664992 -0.205398
C34   C     C_R   0.497868 0.500147 0.101835 -0.051799
C35   C     C_R   0.382137 0.523611 0.334823 -0.205730
C36   C     C_R   0.383939 0.518394 0.678686 -0.212321
C37   C     C_R   0.613326 0.473288 0.321517 -0.214032
C38   C     C_R   0.385028 0.518671 0.728669 -0.095655
C39   C     C_R   0.612316 0.472999 0.271531 -0.093319
C40   C     C_R   0.503638 0.502026 0.746787 0.318745
C41   C     C_R   0.496634 0.498341 0.253174 0.314737
C42   C     C_3   0.182963 0.066448 0.536138 -0.338892
C43   C     C_3   0.817024 0.933531 0.463821 -0.338294
C44   C     C_3   0.627613 0.143542 0.417774 -0.173680
C45   C     C_R   0.569270 0.603589 0.868849 -0.022051
C46   C     C_3   0.372334 0.856480 0.582209 -0.171366
C47   C     C_R   0.418095 0.404673 0.131701 -0.021224
C48   C     C_R   0.633696 0.706043 0.890432 -0.134604
C49   C     C_R   0.339134 0.310490 0.110866 -0.134154
C50   C     C_R   0.437142 0.397927 0.875985 -0.023283
H1    H     H_    0.291057 0.531459 0.665338 0.161506
H2    H     H_    0.275150 0.237317 0.133206 0.191894
H3    H     H_    0.292166 0.543587 0.358746 0.164055
H4    H     H_    0.712913 0.471639 0.640925 0.162287
H5    H     H_    0.292105 0.543274 0.270496 0.144128
H6    H     H_    0.713198 0.472412 0.729177 0.140838
H7    H     H_    0.719496 0.762986 0.109418 0.190811
H8    H     H_    0.322873 0.214156 0.888289 0.191513
H9    H     H_    0.723979 0.766406 0.023936 0.143641
H10   H     H_    0.319051 0.210516 0.973755 0.143917
H11   H     H_    0.683738 0.790323 0.954063 0.144493
H12   H     H_    0.703883 0.453394 0.335036 0.160267
H13   H     H_    0.274322 0.234679 0.047986 0.144267
H14   H     H_    0.183491 0.990439 0.508862 0.148224
H15   H     H_    0.147249 0.150850 0.521479 0.178883
H16   H     H_    0.109449 0.032062 0.568677 0.196707
H17   H     H_    0.852766 0.849118 0.478459 0.178743
H18   H     H_    0.816529 0.009516 0.491104 0.148266
H19   H     H_    0.890503 0.967941 0.431277 0.196717
H20   H     H_    0.678974 0.104929 0.383830 0.206833
H21   H     H_    0.703086 0.158359 0.443228 0.154331
H22   H     H_    0.596174 0.234257 0.407651 0.151319
H23   H     H_    0.107584 0.421175 0.469949 0.157188
H24   H     H_    0.296893 0.841646 0.556743 0.153529
H25   H     H_    0.320945 0.895134 0.616138 0.207267
H26   H     H_    0.403737 0.765765 0.592353 0.152035
H27   H     H_    0.892406 0.578800 0.530062 0.156343
H28   H     H_    0.120999 0.615530 0.544558 0.150158
H29   H     H_    0.879005 0.384481 0.455438 0.150578
H30   H     H_    0.293959 0.531809 0.753395 0.141032
H31   H     H_    0.701213 0.453153 0.246981 0.143548
H32   H     H_    0.683576 0.787175 0.868820 0.192567
N1    N     N_R   0.504094 0.501291 0.798075 -0.358077
N2    N     N_R   0.496404 0.499279 0.201834 -0.357193
N3    N     N_2   0.842700 0.448890 0.480020 -0.194771
N4    N     N_2   0.157300 0.551110 0.519980 -0.195180
O1    O     O_R   0.431060 0.692470 0.504020 -0.639722
O2    O     O_2   0.343992 0.314325 0.211062 -0.557762
O3    O     O_2   0.648386 0.684501 0.194737 -0.551633
O4    O     O_2   0.377872 0.301810 0.803777 -0.549206
O5    O     O_3   0.310997 0.095617 0.550458 -0.580259
O6    O     O_3   0.688967 0.904372 0.449521 -0.580206
O7    O     O_3   0.512364 0.059329 0.435929 -0.622868
O8    O     O_3   0.487615 0.940662 0.564059 -0.622488
O9    O     O_R   0.568940 0.307530 0.495980 -0.639520
O10   O     O_R   0.651120 0.659650 0.491200 -0.591572
O11   O     O_R   0.348880 0.340350 0.508800 -0.591629
O12   O     O_R   0.389980 0.516390 0.577660 -0.621217
O13   O     O_R   0.610020 0.483610 0.422340 -0.620327
O14   O     O_R   0.610040 0.483570 0.564830 -0.612537
O15   O     O_R   0.389960 0.516430 0.435170 -0.612968
O16   O     O_2   0.630752 0.700578 0.790101 -0.555091
Zn1   Zn    Zn3+2 0.353060 0.521910 0.508560 0.946594
Zn2   Zn    Zn3+2 0.646940 0.478090 0.491440 0.947365

loop_
_geom_bond_atom_site_label_1
_geom_bond_atom_site_label_2
_ccdc_geom_bond_type
C1    O1    A    
C28   C47   A    
C23   C45   A    
C28   N2    A    
C46   H24   S    
C16   O12   A    
C46   H26   S    
C37   H12   S    
C39   C41   A    
C13   H10   S    
C20   O6    S    
C25   H27   S    
C29   N1    A    
C11   C14   A    
C35   H3    S    
C3    C33   A    
O12   Zn1   S    
O14   Zn2   S    
C26   H23   S    
C31   C40   A    
C44   H21   S    
C42   O5    S    
C15   C50   A    
C17   O15   A    
C46   H25   S    
C44   O7    S    
C19   H13   S    
C43   H18   S    
C28   O2    S    
C42   H15   S    
C32   C41   A    
C31   C33   A    
C12   O9    A    
C44   H20   S    
C31   H6    S    
C32   H5    S    
C27   C45   A    
O13   Zn2   S    
C4    C35   A    
O15   Zn1   S    
C22   O8    S    
C40   N1    S    
C30   O3    S    
C11   H9    S    
N4    Zn1   S    
C29   O4    S    
C29   C50   A    
C32   C35   A    
C39   H31   S    
C47   C49   A    
C16   O14   A    
C23   C50   A    
C25   C26   S    
C41   N2    S    
C12   C21   S    
C8    C18   A    
C5    C9    A    
C17   O13   A    
C19   C49   A    
C46   O8    S    
C26   N4    D    
C49   H2    S    
C25   N3    D    
N3    Zn2   S    
C12   O11   A    
O11   Zn1   S    
C36   H1    S    
O1    Zn1   S    
C4    C17   S    
C8    C10   A    
C20   C22   D    
C7    C19   A    
O10   Zn2   S    
C9    C34   A    
C15   H8    S    
C22   C24   S    
C36   C38   A    
C42   H14   S    
H29   N3    S    
O9    Zn2   S    
C21   O5    S    
C45   C48   A    
C33   H4    S    
C7    C9    A    
C14   H7    S    
C1    C20   S    
C2    C34   A    
C18   C48   A    
C6    C10   A    
C5    C8    A    
C18   H11   S    
C5    C11   A    
C6    C7    A    
C10   C23   A    
C27   O16   S    
C43   O6    S    
C2    C30   A    
C13   C15   A    
C37   C39   A    
C24   O7    S    
C6    C13   A    
C38   C40   A    
H28   N4    S    
C38   H30   S    
C3    C36   A    
C1    O10   A    
C27   N1    A    
C48   H32   S    
C44   H22   S    
C30   N2    A    
C2    C14   A    
C4    C37   A    
C43   H17   S    
C21   C24   D    
C42   H16   S    
C34   C47   A    
C43   H19   S    
C3    C16   S    
