data_mof_unit_9236.cif
_audit_creation_date              2013-03-05T15:52:54-0500
_audit_creation_method            fapswitch 2.2
_symmetry_space_group_name_H-M    P1
_symmetry_Int_Tables_number       1
_space_group_crystal_system       triclinic
_cell_length_a                    14.888335
_cell_length_b                    10.834332
_cell_length_c                    10.142293
_cell_angle_alpha                 91.936392
_cell_angle_beta                  91.39272
_cell_angle_gamma                 93.885447
_cell_volume                      1630.73150788

loop_
_atom_site_label
_atom_site_type_symbol
_atom_site_description
_atom_site_fract_x
_atom_site_fract_y
_atom_site_fract_z
_atom_type_partial_charge
O1    O     O_R   0.500000 0.316780 0.614690 -0.675214
O2    O     O_R   0.499990 0.316750 0.385360 -0.575108
C1    C     C_R   0.505432 0.262304 0.498899 0.970468
O3    O     O_R   0.367850 0.499980 0.614680 -0.647486
O4    O     O_R   0.367840 0.499960 0.385350 -0.545970
C2    C     C_R   0.327782 0.499224 0.498820 0.949674
Zn1   Zn    Zn3+2 0.500010 0.500020 0.653130 1.024453
Zn2   Zn    Zn3+2 0.499990 0.499980 0.346870 1.093698
O5    O     O_R   0.500010 0.683250 0.614640 -0.597486
O6    O     O_R   0.500000 0.683220 0.385310 -0.555206
O7    O     O_R   0.632160 0.500040 0.614650 -0.569598
O8    O     O_R   0.632150 0.500020 0.385320 -0.606435
C3    C     C_R   0.494354 0.739906 0.501883 0.879668
C4    C     C_R   0.672194 0.500113 0.501342 0.939282
C5    C     C_R   0.819118 0.604479 0.492072 -0.226545
C6    C     C_R   0.767475 0.494599 0.504612 -0.130007
C7    C     C_R   0.805640 0.380738 0.516953 0.373549
C8    C     C_R   0.899952 0.378835 0.529733 -0.052159
C9    C     C_R   0.952648 0.490783 0.508808 -0.018264
C10   C     C_R   0.911565 0.603058 0.489126 0.133848
C11   C     C_R   0.944398 0.271303 0.561290 0.434306
C12   C     C_R   0.037707 0.273579 0.559098 -0.181425
C13   C     C_R   0.089394 0.381227 0.529435 -0.029749
C14   C     C_R   0.046565 0.491072 0.505818 0.031775
C15   C     C_R   0.097785 0.601734 0.478799 0.135036
C16   C     C_R   0.055996 0.711588 0.459564 -0.142208
C17   C     C_R   0.963213 0.712531 0.466095 -0.123256
C18   C     C_R   0.183334 0.382817 0.526012 0.380949
C19   C     C_R   0.232053 0.493182 0.496652 -0.100658
C20   C     C_R   0.190399 0.601241 0.472644 -0.283641
H1    H     H_    0.786698 0.690404 0.480173 0.179461
H2    H     H_    0.069275 0.189878 0.583217 0.234668
H3    H     H_    0.230654 0.685493 0.452280 0.168992
H4    H     H_    0.095118 0.796758 0.440016 0.181553
H5    H     H_    0.931670 0.798483 0.451333 0.190555
H6    H     H_    0.471899 0.108030 0.292577 0.223278
C21   C     C_R   0.580229 0.131453 0.723565 -0.185618
H7    H     H_    0.615505 0.221165 0.714832 0.234118
C22   C     C_R   0.584848 0.075338 0.844964 0.221283
C23   C     C_R   0.539986 0.958149 0.856249 0.290114
C24   C     C_R   0.492724 0.900558 0.748549 -0.196028
H8    H     H_    0.451699 0.816737 0.763835 0.222019
C25   C     C_R   0.501478 0.947448 0.623245 0.001613
C26   C     C_R   0.532072 0.071345 0.614784 0.051765
C27   C     C_R   0.511214 0.131091 0.498281 -0.087477
C28   C     C_R   0.482790 0.063482 0.385058 -0.134586
C29   C     C_R   0.474764 0.936915 0.386261 0.307979
C30   C     C_R   0.485055 0.875058 0.505422 -0.213469
H9    H     H_    0.611023 0.627161 0.133595 0.204707
C31   C     C_R   0.394954 0.301728 0.112961 0.326096
C32   C     C_R   0.365217 0.201318 0.027041 0.387898
C33   C     C_R   0.360282 0.217021 0.893607 -0.284240
H10   H     H_    0.329044 0.144664 0.827978 0.231533
C34   C     C_R   0.392112 0.327000 0.843574 -0.155245
H11   H     H_    0.380345 0.335492 0.741192 0.265609
C35   C     C_R   0.444165 0.415697 0.920847 0.043656
C36   C     C_R   0.445261 0.409910 0.064097 0.029333
N1    N     N_R   0.499150 0.498800 0.142780 -0.125888
C37   C     C_R   0.560851 0.569811 0.076617 0.023380
C38   C     C_R   0.564020 0.566299 0.935107 0.365269
N2    N     N_R   0.499120 0.498720 0.857170 -0.168516
N3    N     N_R   0.629931 0.140652 0.956443 0.236012
O9    O     O_R   0.692195 0.228279 0.938487 -0.320853
O10   O     O_R   0.601449 0.123986 0.075277 -0.338242
N4    N     N_R   0.553872 0.886062 0.967608 0.262494
O11   O     O_R   0.636088 0.877922 0.011693 -0.256503
O12   O     O_R   0.492655 0.799058 0.991963 -0.364121
N5    N     N_R   0.474985 0.874138 0.262560 0.251567
O13   O     O_R   0.552787 0.841043 0.225074 -0.299570
O14   O     O_R   0.401075 0.816605 0.214911 -0.295491
Cl1   Cl    Cl    0.337025 0.289980 0.259190 -0.493721
Cl2   Cl    Cl    0.320365 0.057678 0.082904 -0.461188
Cl3   Cl    Cl    0.733768 0.244482 0.492573 -0.537507
N6    N     N_R   0.641457 0.626347 0.876990 0.233790
O15   O     O_R   0.632847 0.699220 0.779326 -0.332772
O16   O     O_R   0.720404 0.622418 0.934150 -0.333734
Cl4   Cl    Cl    0.891214 0.134329 0.620891 -0.457332
Cl5   Cl    Cl    0.240867 0.248016 0.556920 -0.612932

loop_
_geom_bond_atom_site_label_1
_geom_bond_atom_site_label_2
_geom_bond_distance
_ccdc_geom_bond_type
C8    C11   1.420222 A    
C24   H8    1.077393 S    
C9    C10   1.415967 A    
C31   Cl1   1.737722 S    
C27   C28   1.382696 A    
C26   C27   1.404544 A    
Zn1   O7    2.015098 S    
C16   C17   1.385289 A    
N3    O9    1.301718 A    
C12   H2    1.081794 S    
C18   C19   1.400568 A    
C21   H7    1.080417 S    
O4    C2    1.309024 A    
O7    C4    1.307371 A    
C5    C6    1.384028 A    
C35   C36   1.456090 A    
C8    C9    1.424145 A    
O5    C3    1.319652 A    
Zn1   N2    2.070316 S    
N3    O10   1.301616 A    
Zn2   N1    2.069277 S    
C34   H11   1.056987 S    
C16   H4    1.084063 S    
C6    C7    1.400816 A    
N4    O12   1.300188 A    
C13   C14   1.412440 A    
H6    C28   1.082973 S    
C18   Cl5   1.775506 S    
C25   C30   1.413998 A    
C37   C38   1.436469 A    
C11   C12   1.388486 A    
C7    Cl3   1.770272 S    
C24   C25   1.390283 A    
O3    Zn1   1.996562 S    
C33   C34   1.370363 A    
C7    C8    1.408579 A    
C5    C10   1.378551 A    
C34   C35   1.398901 A    
N6    O15   1.296667 A    
C32   C33   1.370498 A    
C14   C15   1.415121 A    
O3    C2    1.304360 A    
C22   C23   1.403526 A    
N5    O13   1.297434 A    
C17   H5    1.084171 S    
C15   C16   1.397097 A    
C1    C27   1.429835 S    
C38   N2    1.386522 A    
O1    C1    1.303193 A    
C25   C26   1.394107 A    
C19   C20   1.387388 A    
C3    C30   1.479440 S    
C29   C30   1.411705 A    
Zn2   O8    1.996564 S    
C31   C32   1.410947 A    
C35   N2    1.364124 A    
C13   C18   1.398830 A    
N6    O16   1.301834 A    
N5    O14   1.301472 A    
C23   C24   1.390930 A    
O8    C4    1.306090 A    
C23   N4    1.413677 S    
C4    C6    1.423501 S    
C32   Cl2   1.768033 S    
C29   N5    1.406945 S    
C33   H10   1.083615 S    
C15   C20   1.382165 A    
Zn1   O5    2.036094 S    
C22   N3    1.440247 S    
C28   C29   1.368871 A    
C20   H3    1.086142 S    
O1    Zn1   2.010224 S    
C31   C36   1.455571 A    
O2    Zn2   2.036094 S    
O6    C3    1.320943 A    
O4    Zn2   2.015098 S    
C5    H1    1.086206 S    
C10   C17   1.398729 A    
H9    C37   1.081605 S    
C21   C26   1.416021 A    
O2    C1    1.314697 A    
N1    C37   1.362033 A    
C21   C22   1.393737 A    
C36   N1    1.421368 A    
C38   N6    1.434279 S    
C9    C14   1.399127 A    
C2    C19   1.421919 S    
Zn2   O6    2.010224 S    
N4    O11   1.302583 A    
C11   Cl4   1.766169 S    
C12   C13   1.398673 A    
