data_mof_unit_23755.cif
_audit_creation_date              2013-03-05T16:08:51-0500
_audit_creation_method            fapswitch 2.2
_symmetry_space_group_name_H-M    P1
_symmetry_Int_Tables_number       1
_space_group_crystal_system       triclinic
_cell_length_a                    27.308561
_cell_length_b                    11.564732
_cell_length_c                    10.767171
_cell_angle_alpha                 89.580281
_cell_angle_beta                  89.481379
_cell_angle_gamma                 90.35748
_cell_volume                      3400.14877359

loop_
_atom_site_label
_atom_site_type_symbol
_atom_site_description
_atom_site_fract_x
_atom_site_fract_y
_atom_site_fract_z
_atom_type_partial_charge
O1    O     O_R   0.500000 0.334450 0.602530 -0.601815
O2    O     O_R   0.500000 0.665550 0.397470 -0.616619
O3    O     O_R   0.500000 0.665550 0.602530 -0.605086
O4    O     O_R   0.500000 0.334450 0.397470 -0.601896
C1    C     C_R   0.500174 0.281151 0.500376 0.904664
C2    C     C_R   0.500340 0.718856 0.499606 0.899830
O5    O     O_R   0.428750 0.500000 0.602520 -0.617932
O6    O     O_R   0.571250 0.500000 0.397480 -0.618316
O7    O     O_R   0.571250 0.500000 0.602520 -0.610747
O8    O     O_R   0.428750 0.500000 0.397480 -0.616201
C3    C     C_R   0.405368 0.500503 0.500364 0.895231
C4    C     C_R   0.594689 0.503814 0.499146 0.870985
Zn1   Zn    Zn3+2 0.500000 0.500000 0.636920 0.970548
Zn2   Zn    Zn3+2 0.500000 0.500000 0.363080 0.967239
C5    C     C_R   0.178645 0.380728 0.405815 0.530070
C6    C     C_R   0.826215 0.582538 0.366660 0.524792
C7    C     C_R   0.170093 0.578492 0.459927 0.537177
C8    C     C_R   0.819671 0.379004 0.394965 0.539643
O9    O     O_2   0.208868 0.294716 0.371401 -0.592570
O10   O     O_2   0.809097 0.688510 0.394244 -0.598869
O11   O     O_2   0.188906 0.670769 0.518885 -0.583136
O12   O     O_2   0.790631 0.284683 0.404389 -0.583595
N1    N     N_R   0.198237 0.482265 0.446680 -0.333027
N2    N     N_R   0.799137 0.486661 0.398097 -0.332497
C9    C     C_R   0.277325 0.578179 0.409519 -0.140578
C10   C     C_R   0.729268 0.440909 0.538039 -0.140928
C11   C     C_R   0.273236 0.411311 0.545937 -0.136856
C12   C     C_R   0.718081 0.571926 0.365129 -0.121968
C13   C     C_R   0.327698 0.587710 0.426983 0.100147
C14   C     C_R   0.679072 0.443729 0.565804 0.098486
C15   C     C_R   0.324100 0.414121 0.560323 0.091497
C16   C     C_R   0.669268 0.587831 0.399234 0.101504
C17   C     C_R   0.250003 0.490775 0.468263 0.238601
C18   C     C_R   0.748465 0.499545 0.433975 0.220438
C19   C     C_R   0.099801 0.472262 0.385800 -0.130441
C20   C     C_R   0.897218 0.463848 0.334794 -0.134915
C21   C     C_R   0.127645 0.369473 0.391134 -0.119840
C22   C     C_R   0.873204 0.570406 0.314925 -0.111989
C23   C     C_R   0.121883 0.580086 0.414326 -0.080468
C24   C     C_R   0.870769 0.367112 0.379835 -0.064418
C25   C     C_R   0.104231 0.261590 0.371075 0.063854
C26   C     C_R   0.898230 0.660895 0.250235 0.069349
C27   C     C_R   0.094879 0.684002 0.399015 0.043035
C28   C     C_R   0.896367 0.264937 0.412707 0.049231
C29   C     C_R   0.351772 0.502331 0.499044 -0.090781
C30   C     C_R   0.648262 0.514931 0.492619 -0.120095
H1    H     H_    0.251573 0.344396 0.591643 0.150325
H2    H     H_    0.732802 0.617845 0.284946 0.160332
H3    H     H_    0.258872 0.639693 0.350118 0.142454
H4    H     H_    0.753265 0.388217 0.594104 0.150796
C31   C     C_R   0.973888 0.353406 0.339154 -0.025750
C32   C     C_R   0.023067 0.569848 0.339552 -0.053551
C33   C     C_R   0.974287 0.562163 0.298650 -0.070384
C34   C     C_R   0.026424 0.358351 0.334995 -0.061873
C35   C     C_R   0.948401 0.458571 0.321505 -0.077956
C36   C     C_R   0.049800 0.466854 0.353554 -0.079363
C37   C     C_R   0.946157 0.253093 0.375682 0.467427
C38   C     C_R   0.044590 0.676661 0.373234 0.510599
C39   C     C_R   0.949538 0.654896 0.239898 0.574010
C40   C     C_R   0.056757 0.260392 0.322707 0.589824
C41   C     C_1   0.500381 0.161043 0.500964 -0.198041
C42   C     C_1   0.500542 0.838964 0.499000 -0.191942
C43   C     C_1   0.500508 0.059150 0.500494 0.004696
C44   C     C_1   0.500582 0.940861 0.499466 0.000813
N3    N     N_1   0.500000 0.500000 0.180630 -0.082176
N4    N     N_1   0.500000 0.500000 0.819370 -0.082052
C45   C     C_1   0.500004 0.500005 0.069731 0.031717
C46   C     C_1   0.500004 0.499999 0.930269 0.029678
C47   C     C_3   0.347473 0.317474 0.634405 -0.414835
C48   C     C_3   0.367663 0.224140 0.548842 -0.815104
H5    H     H_    0.337420 0.183987 0.495588 0.270690
H6    H     H_    0.394961 0.261069 0.482553 0.247215
H7    H     H_    0.385652 0.155951 0.605072 0.246553
H8    H     H_    0.376716 0.351082 0.695267 0.230433
H9    H     H_    0.320057 0.276276 0.697926 0.204571
C49   C     C_3   0.641204 0.683474 0.333600 -0.403348
C50   C     C_3   0.664524 0.802109 0.355349 -0.835735
H10   H     H_    0.667042 0.819186 0.456512 0.268081
H11   H     H_    0.701668 0.807537 0.312900 0.271964
H12   H     H_    0.641577 0.870200 0.312315 0.248864
H13   H     H_    0.640327 0.665844 0.232320 0.210498
H14   H     H_    0.602900 0.690277 0.366982 0.224539
C51   C     C_3   0.354064 0.691790 0.370397 -0.411683
C52   C     C_3   0.368922 0.777754 0.470414 -0.827046
H15   H     H_    0.335914 0.809380 0.520402 0.270907
H16   H     H_    0.393932 0.737174 0.538367 0.248434
H17   H     H_    0.388022 0.852865 0.426599 0.248507
H18   H     H_    0.386524 0.665538 0.315279 0.232191
H19   H     H_    0.329964 0.738031 0.304051 0.204646
C53   C     C_3   0.659973 0.365343 0.669037 -0.403537
C54   C     C_3   0.637298 0.254852 0.617342 -0.793820
H20   H     H_    0.623811 0.199399 0.695168 0.243883
H21   H     H_    0.606042 0.274658 0.555957 0.246502
H22   H     H_    0.665175 0.206076 0.563635 0.266739
H23   H     H_    0.690322 0.339818 0.731522 0.197799
H24   H     H_    0.633387 0.411256 0.729082 0.228582
C55   C     C_3   0.125197 0.146240 0.413498 -0.318424
C56   C     C_3   0.092220 0.089974 0.512964 -0.877839
H25   H     H_    0.083927 0.152718 0.587827 0.257756
H26   H     H_    0.057390 0.058889 0.472294 0.316628
H27   H     H_    0.111130 0.015041 0.555403 0.233013
H28   H     H_    0.129085 0.087668 0.332834 0.229236
H29   H     H_    0.161301 0.154351 0.457802 0.247971
C57   C     C_3   0.871607 0.758315 0.182966 -0.311504
C58   C     C_3   0.873170 0.742880 0.042052 -0.893305
H30   H     H_    0.910457 0.758004 0.003983 0.284685
H31   H     H_    0.860626 0.654513 0.017167 0.255046
H32   H     H_    0.848477 0.806593 0.997577 0.248815
H33   H     H_    0.832373 0.762990 0.207165 0.242364
H34   H     H_    0.888144 0.842997 0.207791 0.216356
C59   C     C_3   0.118661 0.803819 0.398599 -0.315340
C60   C     C_3   0.154785 0.818828 0.290185 -0.821191
H35   H     H_    0.184397 0.753912 0.293307 0.264653
H36   H     H_    0.135195 0.810270 0.200699 0.249419
H37   H     H_    0.171877 0.906030 0.293737 0.244991
H38   H     H_    0.091169 0.872950 0.386803 0.247592
H39   H     H_    0.136021 0.823148 0.488586 0.239028
C61   C     C_3   0.874470 0.176249 0.504302 -0.320991
C62   C     C_3   0.863104 0.230046 0.630689 -0.844348
H40   H     H_    0.896743 0.269991 0.669289 0.250057
H41   H     H_    0.834336 0.296770 0.624180 0.263221
H42   H     H_    0.849955 0.161727 0.696126 0.245081
H43   H     H_    0.841747 0.132912 0.465737 0.245193
H44   H     H_    0.900325 0.105303 0.524857 0.224059
O13   O     O_3   0.968877 0.147841 0.394670 -0.608641
C63   C     C_3   0.950714 0.066819 0.307739 -0.201001
H45   H     H_    0.950605 0.102394 0.211304 0.164507
H46   H     H_    0.913363 0.035706 0.332312 0.114700
H47   H     H_    0.974991 0.990287 0.307890 0.255957
O14   O     O_3   0.016104 0.774693 0.385003 -0.587028
C64   C     C_3   0.997550 0.778896 0.507501 -0.366392
H48   H     H_    0.975240 0.858227 0.517271 0.207386
H49   H     H_    0.027654 0.783867 0.576398 0.160536
H50   H     H_    0.973241 0.703420 0.528327 0.171133
O15   O     O_3   0.974490 0.741864 0.175244 -0.573676
C65   C     C_3   0.002579 0.694041 0.077564 -0.327599
H51   H     H_    0.982391 0.625137 0.026894 0.140016
H52   H     H_    0.037905 0.660229 0.112063 0.174023
H53   H     H_    0.011331 0.763790 0.009525 0.187427
O16   O     O_3   0.042561 0.164786 0.255644 -0.577808
C66   C     C_3   0.045381 0.192532 0.128008 -0.371379
H54   H     H_    0.082953 0.221401 0.100479 0.166679
H55   H     H_    0.018035 0.259391 0.102593 0.160771
H56   H     H_    0.036768 0.113640 0.074241 0.201358

loop_
_geom_bond_atom_site_label_1
_geom_bond_atom_site_label_2
_geom_bond_distance
_ccdc_geom_bond_type
O5    Zn1   1.983966 S    
N4    C46   1.194069 T    
C63   H45   1.114104 S    
C33   C35   1.406230 A    
C59   C60   1.529689 S    
C52   H17   1.110426 S    
C14   C53   1.515951 S    
C64   H50   1.113582 S    
C60   H36   1.111044 S    
C55   C56   1.531799 S    
C33   C39   1.419133 A    
O15   C65   1.414076 S    
C34   C40   1.413849 A    
C50   H10   1.111091 S    
C11   C17   1.397195 A    
O5    C3    1.276813 A    
C58   H31   1.111216 S    
C7    N1    1.363992 A    
O1    C1    1.264759 A    
C19   C21   1.416199 A    
C52   H16   1.109087 S    
C13   C51   1.519513 S    
C10   H4    1.082562 S    
C37   O13   1.384350 S    
C57   H33   1.102116 S    
C62   H42   1.110559 S    
C7    C23   1.409457 A    
C39   O15   1.390350 S    
C41   C43   1.178442 T    
O7    Zn1   1.977379 S    
C61   C62   1.530501 S    
C60   H35   1.107421 S    
C42   C44   1.178460 T    
C27   C38   1.405725 A    
C5    O9    1.348348 S    
C10   C18   1.401393 A    
C5    C21   1.408414 A    
N3    C45   1.194065 T    
N2    C18   1.442234 S    
O6    Zn2   1.983966 S    
C59   H38   1.107560 S    
C31   C37   1.432102 A    
C24   C28   1.420852 A    
C31   C35   1.417481 A    
C55   H28   1.110086 S    
O3    Zn1   1.947355 S    
C6    O10   1.348578 S    
O3    C2    1.264109 A    
C62   H41   1.106949 S    
C51   H18   1.107546 S    
C12   C18   1.396188 A    
C6    N2    1.367682 A    
C21   C25   1.417254 A    
O2    C2    1.264727 A    
C27   C59   1.526584 S    
C65   H53   1.109154 S    
C12   C16   1.393122 A    
C57   C58   1.529249 S    
Zn1   N4    1.964469 S    
C50   H11   1.110011 S    
C9    C13   1.393875 A    
C51   H19   1.112079 S    
C58   H32   1.110788 S    
C34   C36   1.420552 A    
C11   C15   1.399222 A    
C45   C46   1.501615 S    
C20   C24   1.408561 A    
C49   C50   1.529455 S    
C4    C30   1.468846 S    
O8    Zn2   1.977379 S    
C66   H56   1.109238 S    
C49   H14   1.106408 S    
C54   H20   1.110282 S    
O4    C1    1.264027 A    
C23   C27   1.423227 A    
C63   H47   1.109146 S    
N1    C17   1.437570 S    
C7    O11   1.347129 S    
C13   C29   1.419607 A    
C26   C39   1.406746 A    
C19   C23   1.418620 A    
C54   H21   1.108298 S    
C51   C52   1.526848 S    
C28   C61   1.532659 S    
C28   C37   1.421195 A    
O6    C4    1.273955 A    
C48   H7    1.110399 S    
C1    C41   1.389034 S    
C47   H8    1.107955 S    
C61   H44   1.108192 S    
C52   H15   1.110935 S    
C55   H29   1.102916 S    
C32   C38   1.415710 A    
C40   O16   1.380426 S    
C65   H52   1.109318 S    
C10   C14   1.401000 A    
C56   H26   1.109624 S    
O13   C63   1.419709 S    
C8    N2    1.369181 A    
C3    C29   1.464113 S    
O1    Zn1   1.952683 S    
C64   H48   1.109584 S    
C48   H5    1.110946 S    
C32   C33   1.409268 A    
C50   H12   1.110655 S    
C11   H1    1.083714 S    
C12   H2    1.083205 S    
C63   H46   1.108589 S    
C19   C36   1.413058 A    
C8    O12   1.347278 S    
C16   C30   1.421949 A    
C14   C30   1.420572 A    
C25   C40   1.401521 A    
C65   H51   1.114865 S    
C64   H49   1.113798 S    
C26   C57   1.526524 S    
C49   H13   1.111309 S    
C16   C49   1.522870 S    
C62   H40   1.111055 S    
C53   H24   1.108326 S    
C56   H27   1.109275 S    
C58   H30   1.106618 S    
C59   H39   1.106185 S    
C31   C34   1.435765 A    
C2    C42   1.388956 S    
C66   H55   1.112746 S    
O14   C64   1.409925 S    
C20   C35   1.405500 A    
C66   H54   1.113931 S    
C20   C22   1.415337 A    
C57   H34   1.111298 S    
C53   C54   1.527359 S    
C38   O14   1.384873 S    
O16   C66   1.410260 S    
C5    N1    1.364811 A    
Zn2   N3    1.964470 S    
C47   H9    1.112118 S    
C25   C55   1.523596 S    
C61   H43   1.107404 S    
C60   H37   1.109654 S    
O4    Zn2   1.947356 S    
C47   C48   1.526628 S    
O2    Zn2   1.952681 S    
O7    C4    1.279283 A    
C9    H3    1.082930 S    
O8    C3    1.273671 A    
C43   C44   1.368117 S    
C22   C26   1.420952 A    
C15   C47   1.515914 S    
C8    C24   1.411117 A    
C56   H25   1.111245 S    
C15   C29   1.420755 A    
C9    C17   1.396849 A    
C48   H6    1.108826 S    
C53   H23   1.112158 S    
C32   C36   1.408786 A    
C6    C22   1.402508 A    
C54   H22   1.110985 S    
