data_mof_unit_7261.cif
_audit_creation_date              2012-12-10T18:11:45-0500
_audit_creation_method            fapswitch 2.2
_symmetry_space_group_name_H-M    P1
_symmetry_Int_Tables_number       1
_space_group_crystal_system       triclinic
_cell_length_a                    10.493377
_cell_length_b                    12.621793
_cell_length_c                    13.075027
_cell_angle_alpha                 82.242945
_cell_angle_beta                  90.237712
_cell_angle_gamma                 102.10797
_cell_volume                      1677.18528935

loop_
_atom_site_label
_atom_site_type_symbol
_atom_type_description
_atom_site_fract_x
_atom_site_fract_y
_atom_site_fract_z
_atom_type_partial_charge
C1    C     C_R   0.488835 0.438787 0.691402 0.846918
C2    C     C_R   0.500288 0.449857 0.973858 0.089421
C3    C     C_R   0.546873 0.466629 0.871080 0.097482
C4    C     C_R   0.742177 0.500282 0.499953 0.845881
C5    C     C_R   0.543554 0.532859 0.036201 0.062298
C6    C     C_R   0.657538 0.614119 0.005136 0.142357
C7    C     C_R   0.714803 0.620297 0.907902 -0.246920
C8    C     C_R   0.658148 0.549131 0.840453 -0.213859
C9    C     C_R   0.478141 0.538409 0.128481 0.145223
C10   C     C_R   0.662306 0.675351 0.172177 -0.252605
C11   C     C_R   0.481096 0.399504 0.801670 -0.115517
C12   C     C_3   0.066254 0.599041 0.517431 -0.134898
C13   C     C_R   0.318573 0.088853 0.347230 -0.309575
C14   C     C_R   0.654734 0.799293 0.629189 0.030528
C15   C     C_R   0.686851 0.903471 0.657543 -0.249686
C16   C     C_R   0.515939 0.561140 0.308922 0.870929
C17   C     C_R   0.627995 0.985059 0.608775 -0.196840
C18   C     C_R   0.536621 0.962487 0.530600 0.015891
C19   C     C_R   0.507539 0.854830 0.504474 0.231470
C20   C     C_R   0.473324 0.041903 0.477499 -0.014772
C21   C     C_R   0.382428 0.012021 0.400006 0.195322
C22   C     C_R   0.356413 0.905933 0.375583 -0.292888
C23   C     C_3   0.963930 0.521042 0.592094 -0.183942
C24   C     C_R   0.418681 0.828747 0.426796 -0.213095
C25   C     C_R   0.496376 0.150566 0.497724 -0.056720
C26   C     C_R   0.345445 0.194652 0.371238 0.015425
C27   C     C_R   0.257885 0.499900 0.499633 0.853871
C28   C     C_3   0.933972 0.401564 0.481527 -0.131557
C29   C     C_3   0.022949 0.422593 0.574076 -0.175763
C30   C     C_3   0.122588 0.500351 0.499406 0.031232
C31   C     C_3   0.036311 0.479575 0.406875 -0.186362
C32   C     C_3   0.977209 0.578010 0.424896 -0.180151
C33   C     C_3   0.332309 0.496565 0.146077 -0.960363
C34   C     C_3   0.877591 0.500201 0.499610 0.034426
C35   C     C_R   0.713953 0.686869 0.072645 -0.211446
C36   C     C_R   0.546893 0.598531 0.200703 -0.052148
C37   C     C_R   0.393725 0.301707 0.839047 -0.195339
C38   C     C_R   0.366926 0.274214 0.944477 -0.157897
C39   C     C_R   0.418096 0.348275 0.011610 -0.188776
H1    H     H_    0.046304 0.359396 0.634614 0.133435
H2    H     H_    0.700489 0.735668 0.666433 0.131390
H3    H     H_    0.876294 0.320859 0.466937 0.145174
H4    H     H_    0.656125 0.064397 0.633778 0.135912
H5    H     H_    0.757087 0.920943 0.717123 0.146052
H6    H     H_    0.395700 0.749201 0.403586 0.214339
H7    H     H_    0.070647 0.462692 0.331695 0.134995
H8    H     H_    0.953788 0.641181 0.364352 0.131448
H9    H     H_    0.124020 0.679760 0.531919 0.151632
H10   H     H_    0.929772 0.537999 0.667293 0.126012
H11   H     H_    0.715158 0.722801 0.227989 0.163036
H12   H     H_    0.344197 0.247916 0.786725 0.156069
H13   H     H_    0.801995 0.681397 0.883270 0.139881
H14   H     H_    0.802505 0.747445 0.050841 0.141927
H15   H     H_    0.289474 0.559104 0.177728 0.229664
H16   H     H_    0.281786 0.482288 0.072905 0.254209
H17   H     H_    0.311115 0.420564 0.202096 0.242434
H18   H     H_    0.395640 0.324045 0.092999 0.157027
H19   H     H_    0.302306 0.197451 0.973802 0.140806
H20   H     H_    0.705140 0.556248 0.765589 0.145710
H21   H     H_    0.296988 0.255316 0.331477 0.123515
H22   H     H_    0.287808 0.882462 0.316243 0.152846
H23   H     H_    0.248903 0.067323 0.288093 0.139269
H24   H     H_    0.563758 0.181170 0.554473 0.126099
N1    N     N_R   0.432930 0.222190 0.444670 -0.100699
N2    N     N_R   0.566370 0.776980 0.554790 -0.130004
O1    O     O_R   0.467970 0.366730 0.627150 -0.616029
O2    O     O_R   0.510820 0.544830 0.662520 -0.607008
O3    O     O_R   0.664630 0.410960 0.482340 -0.623418
O4    O     O_R   0.707470 0.589060 0.517710 -0.629225
O5    O     O_R   0.489180 0.455170 0.337480 -0.603500
O6    O     O_R   0.532030 0.633270 0.372850 -0.640238
O7    O     O_R   0.292530 0.410940 0.482290 -0.617772
O8    O     O_R   0.335370 0.589040 0.517660 -0.638900
Zn1   Zn    Zn3+2 0.471390 0.381080 0.476380 0.933340
Zn2   Zn    Zn3+2 0.528610 0.618920 0.523620 0.923013

loop_
_geom_bond_atom_site_label_1
_geom_bond_atom_site_label_2
_ccdc_geom_bond_type
C33   H16   S    
C35   H14   S    
C1    C11   S    
C12   H9    S    
C7    C8    A    
C12   C23   S    
C37   C38   A    
C24   H6    S    
C23   C29   S    
C28   C29   S    
C7    H13   S    
C2    C3    A    
C8    H20   S    
C5    C6    A    
C37   H12   S    
C23   H10   S    
C20   C25   A    
O3    Zn1   S    
C39   H18   S    
C6    C35   A    
C18   C19   A    
C25   H24   S    
C11   C37   A    
C26   N1    A    
C38   H19   S    
C2    C39   A    
C13   H23   S    
C31   H7    S    
O5    Zn1   S    
C9    C36   A    
O4    Zn2   S    
C10   C35   A    
C33   H17   S    
C28   C34   S    
C21   C22   A    
C12   C32   S    
C27   C30   S    
C9    C33   S    
O8    Zn2   S    
C16   O6    A    
C4    O4    A    
C1    O1    A    
C38   C39   A    
C4    C34   S    
C16   O5    A    
O7    Zn1   S    
C3    C8    A    
C4    O3    A    
C25   N1    A    
C32   C34   S    
C17   H4    S    
C5    C9    A    
C29   C30   S    
C31   C32   S    
C23   C34   S    
C17   C18   A    
C13   C21   A    
C14   H2    S    
C32   H8    S    
C22   C24   A    
C13   C26   A    
C2    C5    A    
O2    Zn2   S    
C10   H11   S    
C33   H15   S    
C15   C17   A    
C12   C30   S    
C28   C31   S    
C15   H5    S    
C6    C7    A    
N2    Zn2   S    
C19   C24   A    
C16   C36   S    
C22   H22   S    
O6    Zn2   S    
C30   C31   S    
C29   H1    S    
C28   H3    S    
C1    O2    A    
C14   N2    A    
C19   N2    A    
C18   C20   A    
C3    C11   A    
C20   C21   A    
N1    Zn1   S    
C14   C15   A    
C10   C36   A    
C27   O8    A    
C26   H21   S    
C27   O7    A    
O1    Zn1   S    
