data_mof_unit_48025.cif
_audit_creation_date              2012-12-10T17:14:25-0500
_audit_creation_method            fapswitch 2.2
_symmetry_space_group_name_H-M    P1
_symmetry_Int_Tables_number       1
_space_group_crystal_system       triclinic
_cell_length_a                    14.357575
_cell_length_b                    16.176845
_cell_length_c                    10.802473
_cell_angle_alpha                 89.432742
_cell_angle_beta                  88.916896
_cell_angle_gamma                 88.093133
_cell_volume                      2507.03990919

loop_
_atom_site_label
_atom_site_type_symbol
_atom_type_description
_atom_site_fract_x
_atom_site_fract_y
_atom_site_fract_z
_atom_type_partial_charge
C1    C     C_R   0.385532 0.119599 0.548131 0.790377
C2    C     C_2   0.510483 0.006748 0.071784 0.324916
C3    C     C_2   0.987379 0.507836 0.925987 0.357416
C4    C     C_2   0.010490 0.506751 0.071791 0.325068
C5    C     C_2   0.313209 0.821136 0.571006 0.287584
C6    C     C_2   0.686583 0.176470 0.436745 0.287849
C7    C     C_2   0.650681 0.792073 0.445785 0.179477
C8    C     C_2   0.311516 0.183834 0.569520 0.285903
C9    C     C_2   0.813205 0.321141 0.571020 0.287528
C10   C     C_2   0.186582 0.676461 0.436745 0.288104
C11   C     C_2   0.150669 0.292064 0.445783 0.178997
C12   C     C_R   0.605867 0.875074 0.455331 0.858520
C13   C     C_2   0.811520 0.683833 0.569515 0.285914
C14   C     C_2   0.243820 0.810125 0.488768 0.077331
C15   C     C_2   0.677969 0.245338 0.506024 0.034127
C16   C     C_2   0.650598 0.737359 0.543152 0.056307
C17   C     C_2   0.220676 0.168015 0.549270 0.149730
C18   C     C_2   0.743800 0.310140 0.488804 0.077370
C19   C     C_2   0.177971 0.745340 0.505996 0.032636
C20   C     C_2   0.150589 0.237353 0.543154 0.056277
C21   C     C_2   0.720680 0.668019 0.549269 0.149673
C22   C     C_3   0.591036 0.267647 0.580016 -0.691297
C23   C     C_R   0.616025 0.115017 0.451439 0.840080
C24   C     C_3   0.219609 0.865669 0.381543 -0.730726
C25   C     C_3   0.184942 0.080941 0.551970 -0.797706
C26   C     C_3   0.578295 0.742808 0.646426 -0.648590
C27   C     C_3   0.091040 0.767670 0.579979 -0.688368
C28   C     C_3   0.719571 0.365699 0.381607 -0.730733
C29   C     C_3   0.684942 0.580947 0.551968 -0.797629
C30   C     C_3   0.078295 0.242801 0.646440 -0.648641
C31   C     C_R   0.384653 0.883061 0.548994 0.750122
C32   C     C_R   0.885531 0.619597 0.548130 0.790541
C33   C     C_R   0.105864 0.375071 0.455331 0.858459
C34   C     C_R   0.116015 0.615023 0.451442 0.839969
C35   C     C_R   0.884652 0.383063 0.548996 0.750134
C36   C     C_2   0.487372 0.007836 0.925981 0.357478
H1    H     H_    0.222300 0.027675 0.306998 0.383083
H2    H     H_    0.277080 0.868583 0.312092 0.313230
H3    H     H_    0.148582 0.069048 0.641452 0.258391
H4    H     H_    0.134178 0.073182 0.477247 0.263277
H5    H     H_    0.241191 0.032876 0.543915 0.232668
H6    H     H_    0.583234 0.688797 0.710084 0.255214
H7    H     H_    0.586127 0.797672 0.705116 0.297441
H8    H     H_    0.508402 0.743735 0.604791 0.239075
H9    H     H_    0.090298 0.833100 0.610593 0.259084
H10   H     H_    0.029497 0.759329 0.521732 0.235377
H11   H     H_    0.087285 0.727766 0.663562 0.317609
H12   H     H_    0.774788 0.019509 0.668338 0.406374
H13   H     H_    0.659055 0.343574 0.329882 0.249960
H14   H     H_    0.695929 0.424942 0.422102 0.216037
H15   H     H_    0.777027 0.368615 0.312136 0.313221
H16   H     H_    0.648562 0.569056 0.641438 0.258340
H17   H     H_    0.634193 0.573184 0.477228 0.263379
H18   H     H_    0.741193 0.532881 0.543940 0.232624
H19   H     H_    0.083259 0.188800 0.710123 0.255256
H20   H     H_    0.086117 0.297677 0.705111 0.297435
H21   H     H_    0.008396 0.243705 0.604814 0.239078
H22   H     H_    0.860386 0.038043 0.289192 0.405497
H23   H     H_    0.722301 0.527665 0.306998 0.383099
H24   H     H_    0.406714 0.743353 0.868714 0.415573
H25   H     H_    0.440416 0.311514 0.779884 0.403348
H26   H     H_    0.545754 0.765460 0.215995 0.374012
H27   H     H_    0.359537 0.537716 0.288339 0.405581
H28   H     H_    0.906728 0.243358 0.868721 0.415621
H29   H     H_    0.938993 0.811187 0.781942 0.404062
H30   H     H_    0.045564 0.265871 0.216511 0.373774
H31   H     H_    0.732088 0.897034 0.081310 0.433310
H32   H     H_    0.267822 0.904563 0.914459 0.424352
H33   H     H_    0.232089 0.397023 0.081359 0.433326
H34   H     H_    0.274806 0.519482 0.668363 0.406447
H35   H     H_    0.767828 0.404576 0.914481 0.424343
H36   H     H_    0.590283 0.333080 0.610622 0.258796
H37   H     H_    0.529497 0.259295 0.521768 0.235604
H38   H     H_    0.587281 0.227744 0.663601 0.317478
H39   H     H_    0.159110 0.843532 0.329794 0.249888
H40   H     H_    0.195947 0.924914 0.422014 0.216025
N1    N     N_2   0.549450 0.000000 0.831550 -0.006729
N2    N     N_2   0.450550 1.000000 0.168450 -0.002116
N3    N     N_2   0.049450 0.500000 0.831550 -0.006735
N4    N     N_2   0.950550 0.500000 0.168450 -0.002110
O1    O     O_R   0.398960 0.091100 0.433300 -0.540519
O2    O     O_R   0.569290 0.908910 0.353790 -0.532631
O3    O     O_R   0.569290 0.091090 0.353790 -0.555005
O4    O     O_R   0.430710 0.908910 0.646210 -0.518153
O5    O     O_R   0.930710 0.591090 0.646210 -0.529495
O6    O     O_R   0.069290 0.408910 0.353790 -0.532943
O7    O     O_R   0.069290 0.591090 0.353790 -0.554985
O8    O     O_R   0.930710 0.408910 0.646210 -0.518154
O9    O     O_2   0.332454 0.128603 0.146697 -0.146324
O10   O     O_2   0.265245 0.992621 0.105159 -0.240265
O11   O     O_3   0.290426 0.024629 0.318164 -0.529426
O12   O     O_R   0.601040 0.908900 0.566700 -0.569661
O13   O     O_2   0.671169 0.120466 0.825059 -0.194755
O14   O     O_2   0.740001 0.986777 0.889756 -0.194256
O15   O     O_3   0.709219 0.002335 0.671328 -0.445547
O16   O     O_2   0.832492 0.628630 0.146741 -0.146588
O17   O     O_2   0.765233 0.492684 0.105144 -0.240149
O18   O     O_3   0.790428 0.524627 0.318165 -0.529391
O19   O     O_2   0.171202 0.620446 0.825110 -0.194769
O20   O     O_2   0.239989 0.486719 0.889750 -0.194051
O21   O     O_3   0.209221 0.502342 0.671323 -0.445441
O22   O     O_2   0.769949 0.177062 0.213245 -0.214337
O23   O     O_R   0.601040 0.091100 0.566700 -0.572350
O24   O     O_2   0.872358 0.193932 0.388682 -0.328333
O25   O     O_3   0.810392 0.048691 0.351967 -0.483349
O26   O     O_2   0.230672 0.776459 0.784253 -0.259688
O27   O     O_2   0.326770 0.670792 0.675967 -0.268633
O28   O     O_3   0.409393 0.782908 0.798251 -0.519026
O29   O     O_2   0.376721 0.336806 0.543085 -0.302658
O30   O     O_2   0.262034 0.317833 0.710129 -0.233957
O31   O     O_3   0.427108 0.257265 0.743541 -0.533034
O32   O     O_2   0.777567 0.789170 0.260952 -0.206364
O33   O     O_2   0.684036 0.666423 0.290629 -0.275797
O34   O     O_R   0.398960 0.908900 0.433300 -0.614856
O35   O     O_3   0.604368 0.792559 0.191842 -0.451436
O36   O     O_2   0.270107 0.676885 0.213353 -0.215021
O37   O     O_2   0.372403 0.693820 0.388876 -0.327484
O38   O     O_3   0.310375 0.548595 0.352313 -0.483160
O39   O     O_2   0.730679 0.276454 0.784267 -0.259691
O40   O     O_2   0.826788 0.170798 0.675972 -0.268834
O41   O     O_3   0.909397 0.282919 0.798264 -0.518963
O42   O     O_2   0.876650 0.836858 0.543169 -0.301731
O43   O     O_2   0.762049 0.817738 0.710275 -0.235195
O44   O     O_3   0.927203 0.757230 0.743447 -0.533953
O45   O     O_R   0.898960 0.591100 0.433300 -0.540540
O46   O     O_2   0.277518 0.289137 0.260926 -0.206243
O47   O     O_2   0.183991 0.166406 0.290643 -0.275570
O48   O     O_3   0.104323 0.292506 0.191831 -0.451107
O49   O     O_2   0.676287 0.074063 0.057949 -0.188253
O50   O     O_2   0.662425 0.994514 0.237799 -0.222149
O51   O     O_3   0.669266 0.907865 0.046992 -0.457392
O52   O     O_2   0.314762 0.077842 0.929287 -0.185511
O53   O     O_2   0.334421 0.999375 0.754304 -0.311604
O54   O     O_3   0.331966 0.911175 0.944291 -0.481127
O55   O     O_2   0.176318 0.574041 0.057947 -0.188563
O56   O     O_R   0.101040 0.408900 0.566700 -0.569556
O57   O     O_2   0.162438 0.494522 0.237821 -0.222895
O58   O     O_3   0.169265 0.407846 0.047043 -0.457176
O59   O     O_2   0.814795 0.577871 0.929279 -0.185847
O60   O     O_2   0.834427 0.499372 0.754319 -0.311613
O61   O     O_3   0.831964 0.411198 0.944334 -0.481088
O62   O     O_R   0.101040 0.591100 0.566700 -0.572313
O63   O     O_R   0.898960 0.408900 0.433300 -0.614887
O64   O     O_R   0.430710 0.091090 0.646210 -0.529510
S1    S     S_3+6 0.335002 0.037747 0.177200 0.204874
S2    S     S_3+6 0.818690 0.260579 0.709829 0.063451
S3    S     S_3+6 0.842866 0.777687 0.640900 0.037908
S4    S     S_3+6 0.182841 0.258391 0.295383 0.108370
S5    S     S_3+6 0.631048 0.998384 0.108188 0.127791
S6    S     S_3+6 0.366360 0.001825 0.883776 0.116846
S7    S     S_3+6 0.131058 0.498377 0.108209 0.127337
S8    S     S_3+6 0.866370 0.501836 0.883788 0.116722
S9    S     S_3+6 0.667213 0.028469 0.811933 0.233106
S10   S     S_3+6 0.835009 0.537770 0.177206 0.204862
S11   S     S_3+6 0.167219 0.528451 0.811941 0.233142
S12   S     S_3+6 0.787842 0.151225 0.344781 0.083953
S13   S     S_3+6 0.318683 0.760575 0.709817 0.063475
S14   S     S_3+6 0.342857 0.277703 0.640864 0.038214
S15   S     S_3+6 0.682881 0.758416 0.295390 0.108199
S16   S     S_3+6 0.287892 0.651127 0.344944 0.084071
Zn1   Zn    Zn3+2 0.478810 0.000000 0.357840 1.164576
Zn2   Zn    Zn3+2 0.521190 0.000000 0.642160 1.179560
Zn3   Zn    Zn3+2 0.978810 0.500000 0.357840 1.164429
Zn4   Zn    Zn3+2 0.021190 0.500000 0.642160 1.179620

loop_
_geom_bond_atom_site_label_1
_geom_bond_atom_site_label_2
_ccdc_geom_bond_type
C15   C18   S    
O7    Zn3   S    
O18   S10   S    
O21   S11   S    
O40   S2    D    
C16   C21   S    
H12   O15   S    
C10   S16   S    
C1    C8    S    
O52   S6    D    
C9    S2    S    
C13   C32   S    
O38   S16   S    
N3    Zn4   S    
C3    N3    D    
H34   O21   S    
C26   H8    S    
C20   C30   S    
O39   S2    D    
O9    S1    D    
C3    S8    S    
C23   O3    A    
O32   S15   D    
O31   S14   S    
C4    N4    D    
O10   S1    D    
C36   N1    D    
C22   H36   S    
C25   H4    S    
O62   Zn4   S    
C28   H15   S    
C11   S4    S    
C7    S15   S    
C29   H18   S    
C6    C23   S    
C1    O1    A    
H28   O41   S    
O54   S6    S    
C30   H21   S    
O59   S8    D    
N1    Zn2   S    
C17   C20   S    
C28   H13   S    
H29   O44   S    
C14   C24   S    
N2    S1    S    
N1    S9    S    
C6    C15   D    
C28   H14   S    
C15   C22   S    
O16   S10   D    
O19   S11   D    
C24   H2    S    
O12   Zn2   S    
C19   C27   S    
O60   S8    D    
C31   O34   A    
O30   S14   D    
O47   S4    D    
H35   O61   S    
C27   H9    S    
C2    S5    S    
O3    Zn1   S    
C8    S14   S    
O37   S16   D    
O45   Zn3   S    
O29   S14   D    
O63   Zn3   S    
O27   S13   D    
C26   H7    S    
C29   H17   S    
C16   C26   S    
C7    C12   S    
O44   S3    S    
C23   O23   A    
C11   C20   D    
H1    O11   S    
C12   O2    A    
C11   C33   S    
C18   C28   S    
C25   H5    S    
H27   O38   S    
O46   S4    D    
C24   H40   S    
O34   Zn1   S    
O28   S13   S    
O17   S10   D    
C21   C29   S    
O33   S15   D    
C31   O4    A    
O35   S15   S    
O15   S9    S    
C32   O45   A    
C33   O6    A    
N4    Zn3   S    
O49   S5    D    
C2    N2    D    
C35   O8    A    
C10   C19   D    
O50   S5    D    
C13   C21   D    
C10   C34   S    
O42   S3    D    
O24   S12   D    
C5    C14   D    
C27   H10   S    
C27   H11   S    
C7    C16   D    
O43   S3    D    
C5    S13   S    
O36   S16   D    
O51   S5    S    
C13   S3    S    
C3    C4    S    
H25   O31   S    
O22   S12   D    
O11   S1    S    
O4    Zn2   S    
C26   H6    S    
O56   Zn4   S    
C2    C36   S    
H33   O58   S    
O5    Zn4   S    
C4    S7    S    
C34   O62   A    
O23   Zn2   S    
O64   Zn2   S    
O1    Zn1   S    
C14   C19   S    
C12   O12   A    
H31   O51   S    
O53   S6    D    
H24   O28   S    
C24   H39   S    
N4    S10   S    
O2    Zn1   S    
O58   S7    S    
O26   S13   D    
C30   H19   S    
C8    C17   D    
H22   O25   S    
C17   C25   S    
O13   S9    D    
H26   O35   S    
C1    O64   A    
O8    Zn4   S    
C25   H3    S    
C33   O56   A    
C36   S6    S    
C30   H20   S    
O14   S9    D    
O55   S7    D    
C32   O5    A    
H32   O54   S    
H30   O48   S    
O48   S4    S    
C34   O7    A    
N3    S11   S    
C9    C18   D    
O25   S12   S    
O20   S11   D    
N2    Zn1   S    
C9    C35   S    
H23   O18   S    
C22   H38   S    
O41   S2    S    
O57   S7    D    
O6    Zn3   S    
C22   H37   S    
C6    S12   S    
O61   S8    S    
C35   O63   A    
C5    C31   S    
C29   H16   S    
