data_mof_unit_5008.cif
_audit_creation_date              2012-12-10T20:34:52-0500
_audit_creation_method            fapswitch 2.2
_symmetry_space_group_name_H-M    P1
_symmetry_Int_Tables_number       1
_space_group_crystal_system       triclinic
_cell_length_a                    10.77298
_cell_length_b                    10.709707
_cell_length_c                    9.88447
_cell_angle_alpha                 89.274106
_cell_angle_beta                  91.042204
_cell_angle_gamma                 91.73187
_cell_volume                      1139.63194351

loop_
_atom_site_label
_atom_site_type_symbol
_atom_type_description
_atom_site_fract_x
_atom_site_fract_y
_atom_site_fract_z
_atom_type_partial_charge
C1    C     C_R   0.507930 0.259827 0.500100 0.904396
C2    C     C_R   0.542069 0.933845 0.622048 0.110271
C3    C     C_3   0.465886 0.917132 0.746325 -0.111065
C4    C     C_R   0.257754 0.496339 0.498618 0.833665
C5    C     C_3   0.451250 0.057412 0.740984 -0.131555
C6    C     C_R   0.396609 0.462123 0.069606 0.213699
C7    C     C_R   0.596680 0.552919 0.072635 0.143977
C8    C     C_R   0.597161 0.550061 0.928506 -0.201182
C9    C     C_R   0.396095 0.463656 0.927197 0.203044
C10   C     C_3   0.334252 0.338520 0.921374 -0.483074
C11   C     C_3   0.335305 0.336096 0.073910 -0.482005
C12   C     C_3   0.877935 0.493526 0.504989 -0.035018
C13   C     C_R   0.508106 0.739797 0.499566 0.858412
C14   C     C_R   0.741788 0.496623 0.501648 0.897692
C15   C     C_3   0.073343 0.403992 0.613842 -0.178835
C16   C     C_3   0.928203 0.406675 0.626764 0.082424
C17   C     C_3   0.074586 0.628266 0.533462 -0.207014
C18   C     C_3   0.063802 0.446031 0.353786 -0.022285
C19   C     C_3   0.120858 0.494077 0.495477 -0.057712
C20   C     C_2   0.146127 0.741927 0.478616 0.546188
C21   C     C_2   0.882169 0.716641 0.403648 0.532065
C22   C     C_2   0.614249 0.132021 0.254846 0.460229
C23   C     C_3   0.930738 0.631427 0.516144 -0.234030
C24   C     C_2   0.869003 0.274569 0.627863 0.405774
C25   C     C_2   0.093728 0.525585 0.227941 0.473414
C26   C     C_2   0.109769 0.317114 0.319433 0.291371
C27   C     C_3   0.920939 0.439659 0.367473 -0.405708
C28   C     C_R   0.534162 0.060746 0.620445 0.094701
C29   C     C_R   0.535982 0.128786 0.499185 -0.160474
C30   C     C_R   0.570917 0.066301 0.379554 0.009924
C31   C     C_R   0.564848 0.935651 0.380453 -0.183023
C32   C     C_R   0.536704 0.870641 0.500304 -0.193809
H1    H     H_    0.113822 0.443570 0.709286 0.188313
H2    H     H_    0.395013 0.263423 0.119779 0.232344
H3    H     H_    0.093449 0.639042 0.643920 0.116953
H4    H     H_    0.894073 0.674177 0.608486 0.101034
H5    H     H_    0.882487 0.343390 0.355179 0.247007
H6    H     H_    0.233123 0.733003 0.427101 0.107893
H7    H     H_    0.794939 0.762583 0.417409 0.027909
H8    H     H_    0.658173 0.224308 0.260132 0.117618
H9    H     H_    0.570726 0.788942 0.845794 0.203833
H10   H     H_    0.484200 0.874000 0.946800 0.221705
H11   H     H_    0.291319 0.041941 0.621678 0.225082
H12   H     H_    0.877458 0.490483 0.280999 0.193554
H13   H     H_    0.322902 0.183846 0.683362 0.214427
H14   H     H_    0.663695 0.694906 0.185068 0.203099
H15   H     H_    0.768030 0.640907 0.078461 0.183735
H16   H     H_    0.114385 0.236245 0.704436 0.192383
H17   H     H_    0.073303 0.219696 0.542465 0.229330
H18   H     H_    0.892681 0.210890 0.710031 0.101161
H19   H     H_    0.927415 0.551050 0.773485 0.182187
H20   H     H_    0.812889 0.438490 0.794479 0.218220
H21   H     H_    0.053075 0.497289 0.131224 0.070954
H22   H     H_    0.199820 0.287321 0.356155 0.110897
H23   H     H_    0.578574 0.885351 0.287773 0.194494
H24   H     H_    0.378905 0.859349 0.732334 0.175585
H25   H     H_    0.492719 0.106233 0.829957 0.210946
H26   H     H_    0.675229 0.589817 0.873934 0.141662
H27   H     H_    0.239543 0.341129 0.875847 0.203668
H28   H     H_    0.396191 0.270273 0.879237 0.222864
H29   H     H_    0.240450 0.338702 0.112318 0.218558
N1    N     N_R   0.499150 0.499140 0.142800 -0.115347
N2    N     N_R   0.499150 0.499180 0.857150 -0.118122
N3    N     N_3   0.541737 0.879291 0.862742 -0.406886
N4    N     N_3   0.322888 0.089311 0.708336 -0.451107
N5    N     N_3   0.697502 0.613247 0.144707 -0.405395
N6    N     N_3   0.123496 0.277838 0.608682 -0.496062
N7    N     N_3   0.903386 0.456853 0.762234 -0.507931
O1    O     O_R   0.500020 0.316790 0.614690 -0.606802
O2    O     O_2   0.936047 0.732332 0.297038 -0.529369
O3    O     O_2   0.604700 0.082049 0.144590 -0.595457
O4    O     O_2   0.793948 0.238379 0.542256 -0.630111
O5    O     O_2   0.161270 0.618795 0.229592 -0.556002
O6    O     O_2   0.050746 0.247587 0.243121 -0.558548
O7    O     O_R   0.500000 0.316760 0.385350 -0.656118
O8    O     O_R   0.314800 0.500000 0.614670 -0.624921
O9    O     O_R   0.314790 0.499960 0.385330 -0.599410
O10   O     O_R   0.500000 0.683240 0.614650 -0.632996
O11   O     O_R   0.499980 0.683210 0.385310 -0.617659
O12   O     O_R   0.685210 0.500040 0.614670 -0.635379
O13   O     O_R   0.685200 0.500000 0.385330 -0.620919
O14   O     O_2   0.111945 0.846992 0.502382 -0.575292
Zn1   Zn    Zn3+2 0.500010 0.500020 0.653130 0.940068
Zn2   Zn    Zn3+2 0.499990 0.499980 0.346870 0.967895

loop_
_geom_bond_atom_site_label_1
_geom_bond_atom_site_label_2
_ccdc_geom_bond_type
C13   O11   A    
C20   O14   D    
C13   C32   S    
C18   C26   S    
C6    C9    A    
C7    C8    A    
C3    N3    S    
C15   C19   S    
C12   C23   S    
C17   C23   S    
C28   C29   A    
C25   H21   S    
H14   N5    S    
O11   Zn2   S    
O7    Zn2   S    
C15   C16   S    
C17   C20   S    
C2    C32   A    
C18   C19   S    
C17   C19   S    
C4    C19   S    
O10   Zn1   S    
C12   C16   S    
C16   N7    S    
C14   O12   A    
H17   N6    S    
C9    C10   S    
H15   N5    S    
H20   N7    S    
C8    H26   S    
C22   H8    S    
C16   C24   S    
C18   C25   S    
O12   Zn1   S    
C26   H22   S    
O8    Zn1   S    
C24   H18   S    
C12   C27   S    
C1    O7    A    
C5    N4    S    
C6    C11   S    
O9    Zn2   S    
C3    C5    S    
C1    O1    A    
N2    Zn1   S    
C10   H28   S    
C7    N1    A    
C29   C30   A    
O1    Zn1   S    
C5    C28   S    
C20   H6    S    
C3    H24   S    
C31   C32   A    
C21   H7    S    
H11   N4    S    
C15   N6    S    
C1    C29   S    
C12   C14   S    
C21   C23   S    
H13   N4    S    
H10   N3    S    
C22   O3    D    
O13   Zn2   S    
C24   O4    D    
N1    Zn2   S    
C13   O10   A    
C22   C30   S    
C9    N2    A    
C11   H2    S    
C18   C27   S    
C11   H29   S    
H9    N3    S    
C5    H25   S    
C21   O2    D    
C6    N1    A    
C2    C3    S    
C4    O9    A    
C7    N5    S    
C30   C31   A    
C27   H5    S    
C26   O6    D    
C10   H27   S    
C25   O5    D    
H19   N7    S    
H16   N6    S    
C4    O8    A    
C10   C11   S    
C8    N2    A    
C23   H4    S    
C2    C28   A    
C17   H3    S    
C14   O13   A    
C31   H23   S    
C27   H12   S    
C15   H1    S    
