data_mof_unit_47720.cif
_audit_creation_date              2012-10-26T19:04:42-0400
_audit_creation_method            fapswitch 2.2
_symmetry_space_group_name_H-M    P1
_symmetry_Int_Tables_number       1
_space_group_crystal_system       triclinic
_cell_length_a                    9.677191
_cell_length_b                    10.861901
_cell_length_c                    13.436846
_cell_angle_alpha                 92.613216
_cell_angle_beta                  73.199576
_cell_angle_gamma                 91.629136
_cell_volume                      1350.52093892

loop_
_atom_site_label
_atom_site_type_symbol
_atom_type_description
_atom_site_fract_x
_atom_site_fract_y
_atom_site_fract_z
_atom_type_partial_charge
C1    C     C_R   0.503303 0.737046 0.495325 0.543262
C2    C     C_R   0.385229 0.449631 0.808109 -0.002801
C3    C     C_R   0.324178 0.868831 0.394206 -0.125262
C4    C     C_R   0.423945 0.484549 0.697890 0.543659
C5    C     C_R   0.190524 0.912508 0.393430 -0.000650
C6    C     C_R   0.142995 0.024522 0.447560 0.299409
C7    C     C_R   0.239102 0.098813 0.485133 -0.104899
C8    C     C_R   0.377247 0.056409 0.480820 -0.032891
C9    C     C_R   0.405889 0.931814 0.452246 0.000734
C10   C     C_R   0.505986 0.871330 0.490742 -0.000603
C11   C     C_R   0.588655 0.939598 0.543813 -0.087163
C12   C     C_R   0.448828 0.443112 0.970761 0.032928
C13   C     C_R   0.581376 0.067404 0.551547 -0.118825
C14   C     C_R   0.481560 0.127894 0.514732 -0.026045
C15   C     C_R   0.911847 0.348089 0.353198 -0.066459
C16   C     C_R   0.494445 0.262581 0.506070 0.523229
C17   C     C_R   0.011197 0.276089 0.280026 -0.153605
C18   C     C_R   0.151927 0.271922 0.283443 -0.155571
C19   C     C_R   0.195515 0.343058 0.357641 -0.092504
C20   C     C_R   0.100837 0.424424 0.428915 0.166664
C21   C     C_R   0.952345 0.425835 0.427789 0.195636
C22   C     C_R   0.901462 0.571923 0.567813 -0.005929
C23   C     C_R   0.492249 0.436973 0.860969 0.024908
C24   C     C_R   0.048931 0.572255 0.567508 0.001594
C25   C     C_R   0.577324 0.502321 0.300186 0.532863
C26   C     C_R   0.805248 0.457359 0.022417 -0.137028
C27   C     C_R   0.621169 0.496446 0.185362 0.012864
C28   C     C_R   0.239945 0.427585 0.863011 -0.130976
C29   C     C_R   0.202598 0.401750 0.968371 -0.143826
C30   C     C_R   0.303991 0.415853 0.022864 -0.127476
C31   C     C_3   0.096485 0.832831 0.343865 -0.331324
C32   C     C_3   0.391779 0.592580 0.172688 -0.387134
C33   C     C_R   0.553757 0.464226 0.024636 0.045069
C34   C     C_R   0.700556 0.446492 0.970059 0.039010
C35   C     C_R   0.741337 0.416765 0.863743 -0.139697
C36   C     C_R   0.638922 0.412003 0.809746 -0.114932
C37   C     C_R   0.518357 0.507376 0.129746 -0.014423
C38   C     C_R   0.765717 0.474610 0.130017 -0.152069
Cu1   Cu    Cu3+1 0.359340 0.500010 0.500010 0.917168
Cu2   Cu    Cu3+1 0.640660 0.499990 0.499990 0.938003
H1    H     H_    0.848654 0.472752 0.169428 0.127245
H2    H     H_    0.852947 0.397650 0.821974 0.119770
H3    H     H_    0.082951 0.631818 0.623058 0.133711
H4    H     H_    0.916854 0.449830 0.979036 0.104789
H5    H     H_    0.156431 0.426223 0.823945 0.128110
H6    H     H_    0.269807 0.399301 0.104986 0.121270
H7    H     H_    0.095333 0.371805 0.009791 0.110792
H8    H     H_    0.676377 0.379753 0.729548 0.176276
H9    H     H_    0.657195 0.893091 0.580283 0.194572
H10   H     H_    0.150506 0.746063 0.308296 0.088171
H11   H     H_    0.994841 0.806859 0.403075 0.205090
H12   H     H_    0.358337 0.780784 0.356707 0.141002
H13   H     H_    0.071740 0.883249 0.281255 0.173014
H14   H     H_    0.821966 0.103656 0.395172 0.359550
H15   H     H_    0.428496 0.674744 0.210106 0.126596
H16   H     H_    0.352097 0.629068 0.110340 0.131472
H17   H     H_    0.300815 0.546210 0.229091 0.148811
H18   H     H_    0.196930 0.181166 0.530020 0.190674
H19   H     H_    0.651831 0.119315 0.588090 0.205936
H20   H     H_    0.826545 0.631112 0.623666 0.134029
H21   H     H_    0.803935 0.335062 0.350418 0.173916
H22   H     H_    0.976799 0.218461 0.223396 0.126200
H23   H     H_    0.227550 0.211326 0.229391 0.121221
H24   H     H_    0.303808 0.328871 0.357090 0.183634
N1    N     N_R   0.852480 0.498790 0.499000 -0.249033
N2    N     N_R   0.148360 0.498710 0.498970 -0.253969
O1    O     O_R   0.381190 0.680360 0.500010 -0.501154
O2    O     O_2   0.935403 0.189188 0.532319 -0.336603
O3    O     O_3   0.882026 0.031277 0.394175 -0.565064
O4    O     O_R   0.618760 0.680340 0.500000 -0.492033
O5    O     O_R   0.323240 0.499990 0.650990 -0.498210
O6    O     O_R   0.560820 0.499960 0.650980 -0.514898
O7    O     O_R   0.381240 0.319660 0.500000 -0.535108
O8    O     O_R   0.618810 0.319640 0.499990 -0.511570
O9    O     O_R   0.439180 0.500040 0.349020 -0.529862
O10   O     O_R   0.676760 0.500010 0.349010 -0.527808
O11   O     O_2   0.891573 0.974335 0.578373 -0.318282
S1    S     S_3+6 0.958427 0.058218 0.491022 -0.057163

loop_
_geom_bond_atom_site_label_1
_geom_bond_atom_site_label_2
_ccdc_geom_bond_type
C35   C36   A    
C26   H4    S    
C7    C8    A    
O11   S1    D    
C12   C23   A    
Cu2   O4    S    
C29   H7    S    
C3    C9    A    
C22   C24   A    
C20   N2    A    
C28   C29   A    
C18   C19   A    
C22   H20   S    
C5    C6    A    
C18   H23   S    
C6    S1    S    
C27   C38   A    
C34   C35   A    
C35   H2    S    
C26   C34   A    
C19   C20   A    
C8    C9    A    
Cu1   O9    S    
C9    C10   A    
C7    H18   S    
C24   N2    A    
C12   C30   A    
C13   C14   A    
O3    S1    S    
C32   H17   S    
C17   C18   A    
O2    S1    D    
C28   H5    S    
C16   O7    A    
C38   H1    S    
Cu1   Cu2   S    
C26   C38   A    
C33   C37   A    
Cu2   O10   S    
C25   O9    A    
C2    C4    S    
C22   N1    A    
C29   C30   A    
C11   H9    S    
C17   H22   S    
C19   H24   S    
C33   C34   A    
C15   H21   S    
C32   C37   S    
C31   H13   S    
C32   H15   S    
Cu2   N1    S    
Cu1   N2    S    
C16   O8    A    
C31   H10   S    
C4    O6    A    
C15   C17   A    
C8    C14   A    
Cu2   O6    S    
C21   N1    A    
Cu1   O1    S    
C30   H6    S    
C1    C10   S    
C31   H11   S    
C3    C5    A    
C3    H12   S    
C6    C7    A    
C13   H19   S    
C25   C27   S    
C1    O4    A    
C25   O10   A    
C11   C13   A    
H14   O3    S    
C27   C37   A    
C1    O1    A    
Cu2   O8    S    
C36   H8    S    
C14   C16   S    
Cu1   O7    S    
C10   C11   A    
C15   C21   A    
C20   C21   A    
C23   C36   A    
C2    C23   A    
C24   H3    S    
Cu1   O5    S    
C2    C28   A    
C12   C33   A    
C32   H16   S    
C4    O5    A    
C5    C31   S    
