data_mof_unit_16620.cif
_audit_creation_date              2012-12-10T17:33:43-0500
_audit_creation_method            fapswitch 2.2
_symmetry_space_group_name_H-M    P1
_symmetry_Int_Tables_number       1
_space_group_crystal_system       triclinic
_cell_length_a                    11.69995
_cell_length_b                    12.370103
_cell_length_c                    13.298674
_cell_angle_alpha                 116.948658
_cell_angle_beta                  77.465673
_cell_angle_gamma                 101.254902
_cell_volume                      1664.42123596

loop_
_atom_site_label
_atom_site_type_symbol
_atom_type_description
_atom_site_fract_x
_atom_site_fract_y
_atom_site_fract_z
_atom_type_partial_charge
C1    C     C_R   0.514332 0.854759 0.286519 0.777542
C2    C     C_R   0.496860 0.228590 0.831125 -0.043018
C3    C     C_R   0.453471 0.812730 0.104555 -0.160353
C4    C     C_R   0.423586 0.731718 0.997631 0.198805
C5    C     C_R   0.442663 0.609094 0.951915 -0.241796
C6    C     C_R   0.497838 0.566911 0.010229 0.056691
C7    C     C_R   0.538757 0.653701 0.113476 0.085835
C8    C     C_R   0.515066 0.442049 0.969634 0.090364
C9    C     C_R   0.579195 0.408925 0.028770 0.159553
C10   C     C_R   0.632299 0.498762 0.119984 -0.223558
C11   C     C_R   0.613232 0.619695 0.161289 -0.185798
C12   C     C_R   0.715672 0.999761 0.499750 0.807180
C13   C     C_R   0.473221 0.349001 0.871050 -0.239198
C14   C     C_R   0.552913 0.196458 0.894704 -0.186789
C15   C     C_R   0.507583 0.774001 0.164952 -0.151383
C16   C     C_R   0.697128 0.355588 0.345231 -0.305711
C17   C     C_R   0.335688 0.759963 0.638249 0.064288
C18   C     C_R   0.290691 0.662030 0.664094 -0.324054
C19   C     C_R   0.347190 0.555927 0.612697 0.156446
C20   C     C_R   0.455339 0.550113 0.536336 -0.004514
C21   C     C_R   0.495246 0.653739 0.511113 0.241050
C22   C     C_R   0.524809 0.447701 0.480782 -0.020101
C23   C     C_R   0.486313 0.145235 0.712710 0.789593
C24   C     C_R   0.629344 0.453707 0.404347 0.168758
C25   C     C_R   0.666288 0.557329 0.386148 -0.289414
C26   C     C_R   0.597881 0.652076 0.434233 -0.160391
C27   C     C_R   0.499080 0.339931 0.497751 0.044643
C28   C     C_R   0.663083 0.251193 0.362494 0.080457
C29   C     C_R   0.284330 0.000192 0.500188 0.819942
C30   C     C_1   0.837454 0.999613 0.499746 -0.181557
C31   C     C_1   0.940025 0.999708 0.499790 -0.001283
C32   C     C_1   0.059967 0.999982 0.499901 -0.000170
C33   C     C_1   0.162542 0.000178 0.500028 -0.176679
C34   C     C_R   0.594305 0.286466 0.993083 -0.192340
Cu1   Cu    Cu3+1 0.526510 0.098270 0.475420 0.942885
Cu2   Cu    Cu3+1 0.473490 0.901730 0.524580 0.935219
H1    H     H_    0.572546 0.103670 0.863876 0.156961
H2    H     H_    0.748127 0.564344 0.331521 0.144166
H3    H     H_    0.775891 0.359707 0.285982 0.134655
H4    H     H_    0.429457 0.327297 0.559481 0.180445
H5    H     H_    0.289590 0.840369 0.677810 0.146751
H6    H     H_    0.209610 0.667531 0.723073 0.150808
H7    H     H_    0.627318 0.722338 0.407182 0.197695
H8    H     H_    0.690384 0.474669 0.157682 0.141849
H9    H     H_    0.642398 0.261070 0.038794 0.137299
H10   H     H_    0.426384 0.367619 0.820245 0.135501
H11   H     H_    0.430437 0.905223 0.142201 0.168988
H12   H     H_    0.415229 0.550388 0.870101 0.129796
H13   H     H_    0.660462 0.687768 0.228333 0.126224
H14   H     H_    0.715037 0.174989 0.318033 0.127649
N1    N     N_R   0.566700 0.246290 0.438210 -0.195310
N2    N     N_R   0.434010 0.754320 0.561170 -0.206711
O1    O     O_R   0.533340 0.972510 0.318140 -0.582910
O2    O     O_R   0.488570 0.806530 0.359650 -0.579575
O3    O     O_R   0.685190 0.083000 0.479260 -0.571222
O4    O     O_R   0.640410 0.917020 0.520770 -0.597779
O5    O     O_R   0.511430 0.193470 0.640350 -0.582173
O6    O     O_R   0.466660 0.027490 0.681860 -0.587524
O7    O     O_R   0.359590 0.082980 0.479230 -0.575888
O8    O     O_R   0.314810 0.917000 0.520740 -0.579376
N3    N     N_3   0.289570 0.455430 0.636762 -0.637067
H15   H     H_    0.205995 0.431970 0.611764 0.234529
H16   H     H_    0.278609 0.483540 0.724881 0.206204
N4    N     N_3   0.369748 0.774088 0.937267 -0.597702
H17   H     H_    0.288143 0.722215 0.921439 0.213408
H18   H     H_    0.422727 0.757262 0.858619 0.229165

loop_
_geom_bond_atom_site_label_1
_geom_bond_atom_site_label_2
_ccdc_geom_bond_type
C16   C28   A    
C23   O6    A    
C6    C8    A    
C1    O2    A    
C24   C25   A    
C14   C34   A    
C6    C7    A    
Cu2   O4    S    
C25   H2    S    
Cu1   O1    S    
C9    C10   A    
C4    N4    S    
C19   C20   A    
Cu2   N2    S    
C29   O8    A    
C27   H4    S    
Cu1   O5    S    
C9    C34   A    
C32   C33   T    
C7    C15   A    
C17   C18   A    
C16   C24   A    
C34   H9    S    
N4    H17   S    
C14   H1    S    
C7    C11   A    
C30   C31   T    
C12   O4    A    
C28   H14   S    
C19   N3    S    
Cu2   O8    S    
C1    C15   S    
C5    C6    A    
C17   N2    A    
C3    H11   S    
C5    H12   S    
C21   C26   A    
C20   C22   A    
C26   H7    S    
Cu2   O6    S    
C22   C27   A    
C18   H6    S    
Cu1   N1    S    
N3    H15   S    
C2    C14   A    
C28   N1    A    
C22   C24   A    
C17   H5    S    
Cu2   O2    S    
C10   C11   A    
C16   H3    S    
Cu1   O3    S    
C3    C4    A    
C12   O3    A    
C8    C13   A    
C29   C33   S    
C3    C15   A    
C20   C21   A    
Cu1   O7    S    
C18   C19   A    
C2    C23   S    
C23   O5    A    
C2    C13   A    
C1    O1    A    
C13   H10   S    
C8    C9    A    
C11   H13   S    
Cu1   Cu2   S    
C12   C30   S    
C25   C26   A    
C10   H8    S    
C21   N2    A    
C31   C32   S    
C27   N1    A    
C4    C5    A    
N3    H16   S    
C29   O7    A    
N4    H18   S    
