data_mof_unit_34027.cif
_audit_creation_date              2012-12-11T15:57:07-0500
_audit_creation_method            fapswitch 2.2
_symmetry_space_group_name_H-M    P1
_symmetry_Int_Tables_number       1
_space_group_crystal_system       triclinic
_cell_length_a                    17.788869
_cell_length_b                    24.68596
_cell_length_c                    15.087501
_cell_angle_alpha                 89.930644
_cell_angle_beta                  126.444288
_cell_angle_gamma                 89.769122
_cell_volume                      5329.64972883

loop_
_atom_site_label
_atom_site_type_symbol
_atom_type_description
_atom_site_fract_x
_atom_site_fract_y
_atom_site_fract_z
_atom_type_partial_charge
C1    C     C_R   0.360563 0.154252 0.912745 0.143222
C2    C     C_R   0.347067 0.849358 0.914234 -0.001305
C3    C     C_R   0.860564 0.654253 0.912746 0.143226
C4    C     C_R   0.847066 0.349358 0.914234 -0.001310
C5    C     C_R   0.643234 0.152485 0.090280 -0.093784
C6    C     C_R   0.651061 0.848916 0.091273 -0.063556
C7    C     C_R   0.143235 0.652485 0.090281 -0.093785
C8    C     C_R   0.151060 0.348915 0.091273 -0.063559
C9    C     C_R   0.566691 0.851801 0.908618 0.439651
C10   C     C_R   0.564917 0.148892 0.908157 0.431142
C11   C     C_R   0.066690 0.351801 0.908618 0.439646
C12   C     C_R   0.064918 0.648892 0.908157 0.431142
C13   C     C_R   0.411697 0.001882 0.622455 -0.002112
C14   C     C_R   0.911697 0.501882 0.622455 -0.002112
C15   C     C_R   0.811541 0.000129 0.358176 -0.143017
C16   C     C_R   0.311541 0.500130 0.358176 -0.143015
C17   C     C_R   0.623177 0.181330 0.999450 -0.116711
C18   C     C_R   0.635563 0.822844 0.000744 -0.092438
C19   C     C_R   0.123178 0.681330 0.999450 -0.116709
C20   C     C_R   0.135561 0.322843 0.000744 -0.092426
C21   C     C_3   0.005325 0.954292 0.610320 -0.083901
C22   C     C_3   0.001982 0.043677 0.617158 -0.048214
C23   C     C_3   0.505325 0.454292 0.610318 -0.083900
C24   C     C_3   0.501982 0.543676 0.617160 -0.048213
C25   C     C_3   0.929498 0.997457 0.580772 -0.072860
C26   C     C_3   0.429498 0.497456 0.580772 -0.072863
C27   C     C_3   0.903252 0.001005 0.463448 0.093032
C28   C     C_3   0.403252 0.501005 0.463448 0.093032
C29   C     C_3   0.977787 0.958661 0.492545 -0.023337
C30   C     C_3   0.974175 0.046629 0.498949 -0.058511
C31   C     C_3   0.477787 0.458662 0.492543 -0.023336
C32   C     C_3   0.474174 0.546630 0.498950 -0.058510
C33   C     C_3   0.047096 0.004155 0.526432 -0.147659
C34   C     C_3   0.547096 0.504157 0.526432 -0.147660
C35   C     C_R   0.436868 0.853098 0.096976 -0.049343
C36   C     C_R   0.442234 0.150109 0.094557 -0.109083
C37   C     C_R   0.936867 0.353099 0.096977 -0.049343
C38   C     C_R   0.942235 0.650109 0.094558 -0.109077
C39   C     C_3   0.075606 0.000497 0.643985 0.136551
C40   C     C_3   0.575606 0.500497 0.643985 0.136550
C41   C     C_3   0.317871 0.789229 0.126825 0.286636
C42   C     C_3   0.257179 0.187716 0.029376 0.310594
C43   C     C_3   0.817871 0.289229 0.126826 0.286635
C44   C     C_3   0.757179 0.687717 0.029374 0.310588
C45   C     C_3   0.740513 0.255053 0.117031 0.294256
C46   C     C_3   0.681418 0.725135 0.017750 0.296870
C47   C     C_3   0.240514 0.755053 0.117031 0.294257
C48   C     C_3   0.181419 0.225135 0.017757 0.296864
C49   C     C_3   0.820030 0.232261 0.989011 -0.514131
C50   C     C_3   0.875373 0.764658 0.092291 -0.462476
C51   C     C_3   0.320031 0.732260 0.989011 -0.514134
C52   C     C_3   0.375371 0.264658 0.092287 -0.462478
C53   C     C_3   0.199130 0.807730 0.923469 -0.368483
C54   C     C_3   0.257320 0.249035 0.892966 -0.404911
C55   C     C_3   0.699129 0.307731 0.923470 -0.368484
C56   C     C_3   0.757324 0.749037 0.892968 -0.404908
C57   C     C_3   0.302150 0.789859 0.012632 0.130322
C58   C     C_3   0.319609 0.220048 0.004663 0.116985
C59   C     C_3   0.802149 0.289859 0.012633 0.130320
C60   C     C_3   0.819612 0.720049 0.004664 0.116986
C61   C     C_3   0.687333 0.222274 0.006635 0.099174
C62   C     C_3   0.702871 0.784291 0.005229 0.063615
C63   C     C_3   0.187334 0.722274 0.006635 0.099174
C64   C     C_3   0.202868 0.284290 0.005229 0.063605
C65   C     C_3   0.759697 0.191519 0.996889 -0.181067
C66   C     C_3   0.807928 0.797938 0.103798 -0.223906
C67   C     C_3   0.259698 0.691518 0.996890 -0.181064
C68   C     C_3   0.307926 0.297939 0.103793 -0.223897
C69   C     C_3   0.632637 0.264341 0.910700 -0.332985
C70   C     C_3   0.695049 0.789370 0.896349 -0.316926
C71   C     C_3   0.132638 0.764340 0.910699 -0.332986
C72   C     C_3   0.195041 0.289365 0.896344 -0.316916
C73   C     C_3   0.503771 0.048769 0.568353 -0.512967
C74   C     C_3   0.483993 0.948240 0.550300 -0.454466
C75   C     C_3   0.003772 0.548769 0.568354 -0.512967
C76   C     C_3   0.983993 0.448240 0.550300 -0.454468
C77   C     C_R   0.519270 0.045922 0.285398 0.031545
C78   C     C_R   0.514816 0.954585 0.282141 0.074648
C79   C     C_R   0.019271 0.545922 0.285398 0.031549
C80   C     C_R   0.014817 0.454585 0.282141 0.074645
C81   C     C_3   0.540871 0.044986 0.499192 0.399110
C82   C     C_3   0.498708 0.944371 0.461274 0.340838
C83   C     C_3   0.040872 0.544987 0.499193 0.399110
C84   C     C_3   0.998708 0.444371 0.461275 0.340839
C85   C     C_3   0.342984 0.008866 0.416437 0.699059
C86   C     C_3   0.842985 0.508867 0.416437 0.699059
C87   C     C_3   0.432889 0.002242 0.539478 -0.123357
C88   C     C_3   0.932889 0.502242 0.539479 -0.123357
C89   C     C_3   0.483075 0.001593 0.407091 -0.301291
C90   C     C_3   0.983075 0.501593 0.407092 -0.301291
C91   C     C_3   0.375493 0.017772 0.339716 0.532985
C92   C     C_3   0.875494 0.517772 0.339716 0.532984
C93   C     C_R   0.230721 0.954662 0.749401 0.418815
C94   C     C_R   0.231042 0.045492 0.752607 0.487961
C95   C     C_R   0.730721 0.454662 0.749401 0.418813
C96   C     C_R   0.731042 0.545492 0.752608 0.487963
C97   C     C_R   0.383922 0.182420 0.005171 -0.038479
C98   C     C_R   0.365152 0.826187 0.008865 -0.019052
C99   C     C_R   0.883923 0.682420 0.005172 -0.038482
C100  C     C_R   0.865151 0.326188 0.008865 -0.019046
C101  C     C_R   0.509998 0.000522 0.331793 0.173779
C102  C     C_R   0.009999 0.500523 0.331794 0.173779
C103  C     C_R   0.176535 0.000086 0.728985 -0.176428
C104  C     C_R   0.676535 0.500086 0.728985 -0.176429
C105  C     C_R   0.431475 0.045455 0.689048 0.469968
C106  C     C_R   0.429809 0.957005 0.686821 0.391589
C107  C     C_R   0.931475 0.545455 0.689048 0.469969
C108  C     C_R   0.929809 0.457005 0.686821 0.391588
C109  C     C_R   0.760936 0.954686 0.302442 0.385576
C110  C     C_R   0.759247 0.045224 0.303308 0.371643
C111  C     C_R   0.260936 0.454687 0.302442 0.385577
C112  C     C_R   0.259246 0.545224 0.303308 0.371640
H1    H     H_    0.017524 0.916574 0.657401 0.187106
H2    H     H_    0.012542 0.078374 0.670139 0.221363
H3    H     H_    0.517525 0.416573 0.657397 0.187106
H4    H     H_    0.512541 0.578373 0.670143 0.221364
H5    H     H_    0.386439 0.769195 0.188092 0.051559
H6    H     H_    0.303715 0.174409 0.117040 0.107561
H7    H     H_    0.886438 0.269195 0.188092 0.051559
H8    H     H_    0.803714 0.674411 0.117039 0.107561
H9    H     H_    0.777364 0.227417 0.189385 0.058590
H10   H     H_    0.685884 0.721357 0.094198 0.075461
H11   H     H_    0.277365 0.727417 0.189385 0.058589
H12   H     H_    0.185892 0.221358 0.094210 0.075463
H13   H     H_    0.895875 0.221916 0.046801 0.202789
H14   H     H_    0.934123 0.747097 0.172594 0.187602
H15   H     H_    0.395877 0.721915 0.046802 0.202788
H16   H     H_    0.434121 0.247097 0.172591 0.187602
H17   H     H_    0.184339 0.814446 0.841615 0.191491
H18   H     H_    0.300195 0.270949 0.873051 0.185418
H19   H     H_    0.684337 0.314447 0.841615 0.191488
H20   H     H_    0.800200 0.770950 0.873053 0.185417
H21   H     H_    0.478277 0.841693 0.182942 0.134964
H22   H     H_    0.477010 0.159392 0.180518 0.120959
H23   H     H_    0.978275 0.341694 0.182942 0.134963
H24   H     H_    0.977012 0.659392 0.180518 0.120959
H25   H     H_    0.184405 0.846800 0.947248 0.249777
H26   H     H_    0.213132 0.219087 0.826334 0.246687
H27   H     H_    0.684404 0.346800 0.947250 0.249778
H28   H     H_    0.713133 0.719090 0.826336 0.246691
H29   H     H_    0.073703 0.783093 0.906546 0.221710
H30   H     H_    0.125341 0.279572 0.822487 0.272546
H31   H     H_    0.573702 0.283094 0.906547 0.221710
H32   H     H_    0.625350 0.779583 0.822486 0.272541
H33   H     H_    0.602004 0.246292 0.829557 0.241710
H34   H     H_    0.712476 0.831301 0.887108 0.180589
H35   H     H_    0.102006 0.746291 0.829557 0.241710
H36   H     H_    0.212457 0.331297 0.887091 0.180592
H37   H     H_    0.801407 0.230200 0.904602 0.208559
H38   H     H_    0.908991 0.791949 0.066546 0.224972
H39   H     H_    0.301409 0.730199 0.904602 0.208559
H40   H     H_    0.408988 0.291949 0.066541 0.224971
H41   H     H_    0.722980 0.167098 0.920557 0.215946
H42   H     H_    0.820811 0.841778 0.101056 0.172347
H43   H     H_    0.222982 0.667097 0.920559 0.215945
H44   H     H_    0.320807 0.341779 0.101044 0.172346
H45   H     H_    0.468870 0.088780 0.553046 0.259009
H46   H     H_    0.444720 0.911737 0.543726 0.254853
H47   H     H_    0.968871 0.588781 0.553048 0.259009
H48   H     H_    0.944720 0.411737 0.543725 0.254853
H49   H     H_    0.563445 0.047281 0.657456 0.240693
H50   H     H_    0.552303 0.946505 0.633548 0.238455
H51   H     H_    0.063446 0.547280 0.657457 0.240693
H52   H     H_    0.052303 0.446504 0.633548 0.238454
H53   H     H_    0.532532 0.085693 0.463224 0.131255
H54   H     H_    0.445606 0.916125 0.397091 0.169365
H55   H     H_    0.032533 0.585693 0.463225 0.131255
H56   H     H_    0.945607 0.416125 0.397091 0.169365
H57   H     H_    0.522934 0.087937 0.307200 0.130970
H58   H     H_    0.511387 0.912576 0.298694 0.152643
H59   H     H_    0.022935 0.587937 0.307200 0.130971
H60   H     H_    0.011388 0.412576 0.298695 0.152643
H61   H     H_    0.878633 0.994804 0.600503 0.214687
H62   H     H_    0.378633 0.494802 0.600503 0.214687
N1    N     N_R   0.392450 0.103580 0.942190 -0.056439
N2    N     N_R   0.392450 0.896420 0.942190 -0.058719
N3    N     N_R   0.892450 0.603580 0.942190 -0.056439
N4    N     N_R   0.892450 0.396420 0.942190 -0.058719
N5    N     N_R   0.450490 0.896000 0.057360 -0.060105
N6    N     N_R   0.450490 0.104000 0.057360 -0.050110
N7    N     N_R   0.950490 0.396000 0.057360 -0.060106
N8    N     N_R   0.950490 0.604000 0.057360 -0.050109
N9    N     N_R   0.525490 0.028390 0.207550 -0.061093
N10   N     N_R   0.525490 0.971610 0.207550 -0.068758
N11   N     N_R   0.025490 0.528390 0.207550 -0.061093
N12   N     N_R   0.025490 0.471610 0.207550 -0.068758
N13   N     N_R   0.317450 0.971190 0.792000 -0.096440
N14   N     N_R   0.317450 0.028810 0.792000 -0.111257
N15   N     N_R   0.817450 0.471190 0.792000 -0.096439
N16   N     N_R   0.817450 0.528810 0.792000 -0.111258
N17   N     N_R   0.473900 0.028390 0.792280 -0.129437
N18   N     N_R   0.473900 0.971610 0.792280 -0.131169
N19   N     N_R   0.973900 0.528390 0.792280 -0.129437
N20   N     N_R   0.973900 0.471610 0.792280 -0.131169
N21   N     N_R   0.682310 0.971180 0.208170 -0.109644
N22   N     N_R   0.682310 0.028820 0.208170 -0.110402
N23   N     N_R   0.182310 0.471180 0.208170 -0.109644
N24   N     N_R   0.182310 0.528820 0.208170 -0.110402
N25   N     N_R   0.606470 0.103570 0.057210 -0.091218
N26   N     N_R   0.606470 0.896430 0.057210 -0.092979
N27   N     N_R   0.106470 0.603570 0.057210 -0.091218
N28   N     N_R   0.106470 0.396430 0.057210 -0.092979
N29   N     N_R   0.549740 0.896000 0.943240 -0.103583
N30   N     N_R   0.549740 0.104000 0.943240 -0.096597
N31   N     N_R   0.049740 0.396000 0.943240 -0.103582
N32   N     N_R   0.049740 0.604000 0.943240 -0.096597
Ni1   Ni    Ni4+2 0.433780 0.065390 0.868430 0.300985
Ni2   Ni    Ni4+2 0.433780 0.934610 0.868430 0.310916
Ni3   Ni    Ni4+2 0.933780 0.565390 0.868430 0.300985
Ni4   Ni    Ni4+2 0.933780 0.434610 0.868430 0.310917
Ni5   Ni    Ni4+2 0.565800 0.934190 0.131570 0.263400
Ni6   Ni    Ni4+2 0.565800 0.065810 0.131570 0.254188
Ni7   Ni    Ni4+2 0.065800 0.434190 0.131570 0.263399
Ni8   Ni    Ni4+2 0.065800 0.565810 0.131570 0.254188
C113  C     C_1   0.355091 0.181517 0.824425 0.180361
N33   N     N_1   0.350572 0.204315 0.754317 0.043939
C114  C     C_1   0.327802 0.816150 0.824534 0.309385
N34   N     N_1   0.311159 0.788676 0.752854 0.073562
C115  C     C_1   0.855091 0.681517 0.824425 0.180360
N35   N     N_1   0.850571 0.704315 0.754316 0.043939
C116  C     C_1   0.827799 0.316150 0.824534 0.309389
N36   N     N_1   0.811155 0.288676 0.752854 0.073561
C117  C     C_1   0.972076 0.913259 0.425990 0.277185
N37   N     N_1   0.968769 0.877834 0.373753 -0.032726
C118  C     C_1   0.964655 0.097816 0.443204 0.298864
N38   N     N_1   0.957811 0.138355 0.400342 -0.024742
C119  C     C_1   0.472077 0.413261 0.425986 0.277182
N39   N     N_1   0.468771 0.377838 0.373747 -0.032725
C120  C     C_1   0.464653 0.597818 0.443207 0.298865
N40   N     N_1   0.457809 0.638357 0.400346 -0.024742
C121  C     C_1   0.109827 0.006413 0.493511 0.277166
N41   N     N_1   0.159316 0.007570 0.467840 0.074586
C122  C     C_1   0.609827 0.506416 0.493511 0.277165
N42   N     N_1   0.659315 0.507575 0.467840 0.074585
Cl1   Cl    Cl    0.326368 0.855029 0.183480 -0.521861
Cl2   Cl    Cl    0.209729 0.125513 0.952881 -0.482567
Cl3   Cl    Cl    0.826368 0.355029 0.183481 -0.521860
Cl4   Cl    Cl    0.709732 0.625513 0.952882 -0.482568
Cl5   Cl    Cl    0.158520 0.795307 0.124364 -0.527965
Cl6   Cl    Cl    0.062928 0.206396 0.908819 -0.480036
Cl7   Cl    Cl    0.658519 0.295307 0.124366 -0.527965
Cl8   Cl    Cl    0.562929 0.706398 0.908802 -0.480029
C123  C     C_1   0.818853 0.152667 0.087973 0.118084
N43   N     N_1   0.864945 0.121939 0.158594 -0.057556
C124  C     C_1   0.832334 0.786190 0.214341 0.122716
N44   N     N_1   0.852768 0.776215 0.301129 0.009003
C125  C     C_1   0.318854 0.652667 0.087975 0.118081
N45   N     N_1   0.364947 0.621939 0.158597 -0.057558
C126  C     C_1   0.332335 0.286195 0.214339 0.122715
N46   N     N_1   0.352772 0.276223 0.301129 0.009001
Cl9   Cl    Cl    0.665055 0.034171 0.584042 -0.502161
Cl10  Cl    Cl    0.610519 0.912331 0.519689 -0.515567
Cl11  Cl    Cl    0.165056 0.534171 0.584042 -0.502160
Cl12  Cl    Cl    0.110519 0.412331 0.519690 -0.515568
Cl13  Cl    Cl    0.268136 0.063243 0.399916 -0.438603
Cl14  Cl    Cl    0.270427 0.949705 0.377972 -0.428559
Cl15  Cl    Cl    0.768138 0.563244 0.399917 -0.438605
Cl16  Cl    Cl    0.770426 0.449706 0.377971 -0.428557
Cl17  Cl    Cl    0.356972 0.087187 0.290349 -0.583762
Cl18  Cl    Cl    0.303778 0.981202 0.212189 -0.405701
Cl19  Cl    Cl    0.856973 0.587187 0.290349 -0.583762
Cl20  Cl    Cl    0.803778 0.481202 0.212189 -0.405703
Cl21  Cl    Cl    0.183558 0.893818 0.677281 -0.667754
Cl22  Cl    Cl    0.185297 0.110203 0.697990 -0.628199
Cl23  Cl    Cl    0.683557 0.393818 0.677278 -0.667749
Cl24  Cl    Cl    0.685296 0.610203 0.697992 -0.628195
Cl25  Cl    Cl    0.350397 0.098944 0.638130 -0.504184
Cl26  Cl    Cl    0.341569 0.908029 0.626357 -0.469603
Cl27  Cl    Cl    0.850397 0.598944 0.638130 -0.504187
Cl28  Cl    Cl    0.841569 0.408029 0.626356 -0.469599
Cl29  Cl    Cl    0.771252 0.894065 0.369401 -0.638916
Cl30  Cl    Cl    0.760745 0.100963 0.375952 -0.647436
Cl31  Cl    Cl    0.271254 0.394065 0.369401 -0.638918
Cl32  Cl    Cl    0.260743 0.600962 0.375953 -0.647434
C127  C     C_1   0.648810 0.177840 0.179803 0.266186
N47   N     N_1   0.651755 0.198974 0.250298 0.021217
C128  C     C_1   0.652231 0.817892 0.172922 0.200058
N48   N     N_1   0.651805 0.792353 0.237034 -0.011597
C129  C     C_1   0.148812 0.677840 0.179803 0.266183
N49   N     N_1   0.151757 0.698975 0.250299 0.021217
C130  C     C_1   0.152230 0.317892 0.172922 0.200064
N50   N     N_1   0.151805 0.292353 0.237035 -0.011596
Cl33  Cl    Cl    0.485809 0.825196 0.777271 -0.562874
Cl34  Cl    Cl    0.540252 0.153807 0.777125 -0.675927
Cl35  Cl    Cl    0.985806 0.325195 0.777272 -0.562878
Cl36  Cl    Cl    0.040254 0.653806 0.777126 -0.675928

loop_
_geom_bond_atom_site_label_1
_geom_bond_atom_site_label_2
_ccdc_geom_bond_type
C68   C126  S    
C16   C28   S    
C71   H35   S    
C40   C104  S    
N14   Ni1   S    
C32   C34   S    
C31   C119  S    
C81   H53   S    
C27   C29   S    
C69   H33   S    
C15   C109  A    
C77   C101  A    
C117  N37   T    
C36   N6    A    
N1    Ni1   S    
N9    N10   A    
C60   C99   S    
C9    C18   A    
C76   C84   S    
C52   H16   S    
C5    N25   A    
C56   H20   S    
C105  Cl25  S    
C109  Cl29  S    
C72   H30   S    
C65   C123  S    
C77   H57   S    
N4    Ni4   S    
C126  N46   T    
C33   C39   S    
C82   C89   S    
C49   C65   S    
C83   Cl11  S    
C108  Cl28  S    
C34   C40   S    
C64   C68   S    
C82   Cl10  S    
N16   Ni3   S    
C112  Cl32  S    
C6    N26   A    
C55   C59   S    
N15   Ni4   S    
C47   C63   S    
C56   H28   S    
C86   C88   S    
C48   C64   S    
C107  Cl27  S    
C44   H8    S    
C10   C17   A    
C10   Cl34  S    
C4    C116  S    
N12   Ni7   S    
C73   H45   S    
C78   H58   S    
C55   H27   S    
N11   Ni8   S    
C9    Cl33  S    
C75   H51   S    
N25   Ni6   S    
C23   C26   S    
C96   N16   A    
N6    Ni6   S    
C105  N17   A    
C86   Cl16  S    
C1    N1    A    
C73   H49   S    
C91   Cl18  S    
C43   Cl3   S    
C2    N2    A    
C42   Cl2   S    
N2    N5    A    
C73   C87   S    
C127  N47   T    
C29   C33   S    
C19   C63   S    
N28   N31   A    
N13   Ni2   S    
C1    C113  S    
C2    C114  S    
C65   H41   S    
C129  N49   T    
C37   H23   S    
C79   C102  A    
C36   C97   A    
C50   H14   S    
C55   H19   S    
C106  N18   A    
C74   C87   S    
C89   C91   S    
C35   C98   A    
C9    N29   A    
C122  N42   T    
C76   C88   S    
N3    Ni3   S    
C92   Cl19  S    
C52   C68   S    
C35   H21   S    
C43   C59   S    
C49   C59   S    
C71   H29   S    
C81   C89   S    
C45   C61   S    
C26   H62   S    
C14   C108  A    
C94   Cl22  S    
C5    C127  S    
C51   H39   S    
C75   H47   S    
C70   H34   S    
C27   C30   S    
C35   N5    A    
C59   C100  S    
N18   Ni2   S    
C15   C110  A    
C42   C58   S    
N15   N16   A    
C58   C97   S    
C67   C125  S    
C74   C82   S    
N28   Ni7   S    
C6    C18   A    
C53   H25   S    
C112  N24   A    
C48   Cl6   S    
C44   C46   S    
C80   N12   A    
C85   C87   S    
N9    Ni6   S    
C96   Cl24  S    
C15   C27   S    
C54   H18   S    
C63   C67   S    
C11   C20   A    
C85   Cl13  S    
N26   Ni5   S    
C82   H54   S    
C74   H46   S    
C33   C121  S    
N17   N18   A    
C28   C32   S    
C91   Cl17  S    
C11   Cl35  S    
C13   C105  A    
C1    C97   A    
C115  N35   T    
C38   H24   S    
C23   C40   S    
C62   C66   S    
C4    N4    A    
C42   H6    S    
N5    Ni5   S    
C42   C48   S    
N21   N22   A    
C41   Cl1   S    
C22   C39   S    
C45   H9    S    
C130  N50   T    
C72   H36   S    
C21   C29   S    
C22   C25   S    
C56   C60   S    
C36   H22   S    
C24   H4    S    
C12   N32   A    
C66   C124  S    
C20   C64   S    
C66   H42   S    
C113  N33   T    
C24   C32   S    
C86   Cl15  S    
N21   Ni5   S    
C120  N40   T    
C84   H56   S    
C22   C30   S    
C3    C99   A    
C94   N14   A    
N20   Ni4   S    
C116  N36   T    
C50   C66   S    
C50   H38   S    
C13   C106  A    
N19   Ni3   S    
C119  N39   T    
C21   C39   S    
N30   Ni1   S    
N27   N32   A    
C37   N7    A    
C13   C87   S    
C118  N38   T    
C41   C47   S    
C31   C34   S    
C54   C72   S    
C51   C67   S    
C74   H50   S    
C43   C45   S    
C55   C69   S    
C52   C58   S    
C73   C81   S    
C51   C57   S    
C93   N13   A    
C21   H1    S    
C14   C107  A    
C8    C20   A    
C46   C62   S    
C94   C103  A    
C81   Cl9   S    
C56   C70   S    
C96   C104  A    
C84   Cl12  S    
N25   N30   A    
C128  N48   T    
C47   Cl5   S    
C77   N9    A    
C76   H52   S    
C12   Cl36  S    
C53   H17   S    
C80   H60   S    
C17   C61   S    
C108  N20   A    
C53   C71   S    
C47   H11   S    
C45   Cl7   S    
C107  N19   A    
N23   Ni7   S    
C95   C104  A    
C16   C112  A    
N10   Ni5   S    
C30   C118  S    
N3    N8    A    
C54   C58   S    
C7    C129  S    
C61   C69   S    
C29   C117  S    
C83   C90   S    
C21   C25   S    
C32   C120  S    
C76   H48   S    
C85   Cl14  S    
C53   C57   S    
C79   N11   A    
C30   C33   S    
C89   C101  S    
N17   Ni1   S    
C26   C28   S    
C28   C31   S    
C18   C62   S    
C24   C26   S    
C38   C99   A    
C68   H44   S    
C44   Cl4   S    
C48   H12   S    
C79   H59   S    
C125  N45   T    
C62   C70   S    
C64   C72   S    
C39   C103  S    
N1    N6    A    
C67   H43   S    
C69   H31   S    
C49   H13   S    
N29   Ni2   S    
C7    C19   A    
C38   N8    A    
C49   H37   S    
C50   C60   S    
C106  Cl26  S    
N2    Ni2   S    
C90   C102  S    
C4    C100  A    
C78   C101  A    
C114  N34   T    
C41   C57   S    
N13   N14   A    
C7    N27   A    
C86   C92   S    
C111  N23   A    
C110  Cl30  S    
C8    C130  S    
C34   C122  S    
N32   Ni3   S    
C75   C83   S    
N11   N12   A    
C54   H26   S    
C25   H61   S    
C83   H55   S    
N31   Ni4   S    
C44   C60   S    
N26   N29   A    
C57   C98   S    
C12   C19   A    
C8    N28   A    
C90   C92   S    
C23   H3    S    
C109  N21   A    
C110  N22   A    
C78   N10   A    
C111  Cl31  S    
C70   H32   S    
C3    N3    A    
N23   N24   A    
N27   Ni8   S    
C24   C40   S    
N4    N7    A    
C95   Cl23  S    
C95   N15   A    
C84   C90   S    
C14   C88   S    
C23   C31   S    
N22   Ni6   S    
C61   C65   S    
C75   C88   S    
C22   H2    S    
C5    C17   A    
C51   H15   S    
C2    C98   A    
C3    C115  S    
N19   N20   A    
C80   C102  A    
C121  N41   T    
N8    Ni8   S    
C46   Cl8   S    
C46   H10   S    
N7    Ni7   S    
C11   N31   A    
C41   H5    S    
C124  N44   T    
C52   H40   S    
C6    C128  S    
C63   C71   S    
C85   C91   S    
C37   C100  A    
C92   Cl20  S    
N24   Ni8   S    
C123  N43   T    
C16   C111  A    
C43   H7    S    
C93   C103  A    
C93   Cl21  S    
C25   C27   S    
C10   N30   A    
