data_mof_unit_62585.cif
_audit_creation_date              2012-10-26T21:18:30-0400
_audit_creation_method            fapswitch 2.2
_symmetry_space_group_name_H-M    P1
_symmetry_Int_Tables_number       1
_space_group_crystal_system       triclinic
_cell_length_a                    10.467493
_cell_length_b                    11.730264
_cell_length_c                    17.376891
_cell_angle_alpha                 89.989055
_cell_angle_beta                  85.005181
_cell_angle_gamma                 90.016717
_cell_volume                      2125.54436321

loop_
_atom_site_label
_atom_site_type_symbol
_atom_type_description
_atom_site_fract_x
_atom_site_fract_y
_atom_site_fract_z
_atom_type_partial_charge
C1    C     C_R   0.500010 0.716678 0.500008 0.551954
C2    C     C_R   0.517805 0.498440 0.349593 0.566987
C3    C     C_R   0.469873 0.499649 0.734835 0.025016
C4    C     C_R   0.530128 0.500358 0.265165 0.025018
C5    C     C_R   0.568143 0.448763 0.772661 -0.156860
C6    C     C_R   0.431863 0.551255 0.227341 -0.156860
C7    C     C_R   0.560720 0.444803 0.852665 -0.110845
C8    C     C_R   0.439288 0.555226 0.147336 -0.110846
C9    C     C_R   0.455387 0.493208 0.896214 0.000280
C10   C     C_R   0.544619 0.506819 0.103787 0.000279
C11   C     C_R   0.355546 0.541660 0.858950 -0.067920
C12   C     C_R   0.499990 0.283322 0.499992 0.551956
C13   C     C_R   0.644455 0.458356 0.141049 -0.067921
C14   C     C_R   0.362164 0.546181 0.778599 0.233290
C15   C     C_R   0.637835 0.453825 0.221401 0.233289
C16   C     C_2   0.447548 0.495317 0.980741 -0.119898
C17   C     C_2   0.552458 0.504717 0.019260 -0.119898
C18   C     C_1   0.500025 0.838053 0.500012 0.008141
C19   C     C_1   0.499975 0.161947 0.499987 0.008142
C20   C     C_1   0.500012 0.940269 0.500007 -0.013282
C21   C     C_1   0.499988 0.059731 0.499993 -0.013282
C22   C     C_1   0.927940 0.499999 0.499994 0.143116
C23   C     C_1   0.072059 0.500001 0.500006 0.143117
C24   C     C_R   0.482195 0.501561 0.650407 0.566984
Cl1   Cl    Cl    0.763163 0.383316 0.263564 -0.568999
Cl2   Cl    Cl    0.236829 0.616678 0.736435 -0.569001
Cu1   Cu    Cu3+1 0.374700 0.500000 0.500000 1.066653
Cu2   Cu    Cu3+1 0.625300 0.500000 0.500000 1.066651
H1    H     H_    0.650463 0.410775 0.740242 0.145027
H2    H     H_    0.349545 0.589245 0.259760 0.145024
H3    H     H_    0.647232 0.507364 0.988453 0.129407
H4    H     H_    0.352775 0.492669 0.011548 0.129407
H5    H     H_    0.273920 0.578970 0.892508 0.146793
H6    H     H_    0.726080 0.421045 0.107491 0.146793
H7    H     H_    0.363101 0.597112 0.119894 0.128762
H8    H     H_    0.636912 0.402925 0.880108 0.128762
N1    N     N_1   0.813590 0.500000 0.499990 -0.173375
N2    N     N_1   0.186410 0.500000 0.500010 -0.173374
O1    O     O_R   0.394190 0.662800 0.500010 -0.481352
O2    O     O_R   0.605810 0.337200 0.499990 -0.481351
O3    O     O_R   0.605810 0.662800 0.499990 -0.495640
O4    O     O_R   0.394190 0.337200 0.500010 -0.495640
O5    O     O_R   0.381920 0.500000 0.613600 -0.441005
O6    O     O_R   0.618080 0.500000 0.386400 -0.441007
O7    O     O_R   0.593540 0.500000 0.613600 -0.516246
O8    O     O_R   0.406460 0.500000 0.386400 -0.516245

loop_
_geom_bond_atom_site_label_1
_geom_bond_atom_site_label_2
_ccdc_geom_bond_type
C12   O2    A    
C2    C4    S    
C10   C13   A    
C16   H4    S    
C23   N2    T    
C7    H8    S    
C18   C20   T    
C7    C9    A    
C4    C15   A    
C3    C24   S    
C13   H6    S    
C2    O8    A    
C9    C11   A    
Cu1   O4    S    
C1    C18   S    
C3    C14   A    
Cu1   O1    S    
Cu2   N1    S    
C24   O7    A    
C12   C19   S    
C4    C6    A    
C19   C21   T    
C9    C16   S    
C5    H1    S    
C13   C15   A    
C17   H3    S    
C11   C14   A    
Cu2   O7    S    
C15   Cl1   S    
C1    O1    A    
C10   C17   S    
C12   O4    A    
Cu1   O5    S    
Cu2   O3    S    
C11   H5    S    
C20   C21   S    
Cu1   O8    S    
C8    C10   A    
C1    O3    A    
Cu1   Cu2   S    
C5    C7    A    
C24   O5    A    
Cu2   O2    S    
C22   C23   S    
C6    C8    A    
Cu1   N2    S    
C6    H2    S    
C22   N1    T    
Cu2   O6    S    
C14   Cl2   S    
C2    O6    A    
C16   C17   D    
C3    C5    A    
C8    H7    S    
