data_mof_unit_33313.cif
_audit_creation_date              2012-12-10T18:33:29-0500
_audit_creation_method            fapswitch 2.2
_symmetry_space_group_name_H-M    P1
_symmetry_Int_Tables_number       1
_space_group_crystal_system       triclinic
_cell_length_a                    8.814423
_cell_length_b                    15.286684
_cell_length_c                    13.966057
_cell_angle_alpha                 87.82999
_cell_angle_beta                  96.299816
_cell_angle_gamma                 90.94021
_cell_volume                      1868.98516658

loop_
_atom_site_label
_atom_site_type_symbol
_atom_type_description
_atom_site_fract_x
_atom_site_fract_y
_atom_site_fract_z
_atom_type_partial_charge
C1    C     C_R   0.493684 0.330392 0.501239 0.776191
C2    C     C_R   0.613118 0.545272 0.897791 -0.285182
C3    C     C_R   0.491108 0.502501 0.053635 0.108873
C4    C     C_R   0.495421 0.503820 0.945051 0.110092
C5    C     C_R   0.204616 0.497646 0.476308 0.872229
C6    C     C_R   0.795609 0.502162 0.523932 0.869611
C7    C     C_2   0.040488 0.490931 0.464502 -0.363302
C8    C     C_2   0.960363 0.506373 0.537119 -0.393542
C9    C     C_R   0.611096 0.096227 0.551952 -0.196022
C10   C     C_R   0.424213 0.907664 0.417816 -0.195409
C11   C     C_R   0.599414 0.185664 0.564295 0.057088
C12   C     C_R   0.500242 0.670108 0.498369 0.763501
C13   C     C_R   0.417816 0.816127 0.418673 0.068256
C14   C     C_R   0.488667 0.234222 0.503927 -0.081543
C15   C     C_R   0.502395 0.767087 0.495120 -0.090099
C16   C     C_R   0.374152 0.188938 0.445015 0.067865
C17   C     C_R   0.587694 0.813212 0.570170 0.071609
C18   C     C_R   0.377495 0.097454 0.444595 -0.196666
C19   C     C_R   0.578658 0.904236 0.570673 -0.201800
C20   C     C_R   0.498029 0.050182 0.495178 0.070595
C21   C     C_R   0.500790 0.952785 0.494224 0.065513
C22   C     C_3   0.688316 0.222536 0.652809 -0.401939
C23   C     C_R   0.572065 0.565313 0.108399 -0.284714
C24   C     C_3   0.817565 0.284936 0.630721 -0.316366
C25   C     C_3   0.864326 0.340797 0.717608 -0.807855
C26   C     C_3   0.313260 0.776084 0.337934 -0.400018
C27   C     C_3   0.377528 0.790969 0.240633 -0.331123
C28   C     C_3   0.297554 0.733790 0.162774 -0.847475
C29   C     C_3   0.238168 0.233638 0.388393 -0.423130
C30   C     C_3   0.098359 0.229151 0.444889 -0.373610
C31   C     C_3   0.954051 0.256493 0.380855 -0.830941
C32   C     C_3   0.698408 0.771146 0.649015 -0.396541
C33   C     C_3   0.635590 0.771572 0.747527 -0.313074
C34   C     C_R   0.382891 0.460297 0.886752 -0.277253
C35   C     C_3   0.762686 0.759310 0.830350 -0.892773
C36   C     C_3   0.706025 0.620260 0.257947 -0.375686
C37   C     C_3   0.864757 0.594027 0.234834 -0.373615
C38   C     C_3   0.988884 0.648871 0.288973 -0.873182
C39   C     C_3   0.289680 0.382348 0.740786 -0.382204
C40   C     C_3   0.325990 0.291315 0.788592 -0.380593
C41   C     C_3   0.260554 0.216919 0.726265 -0.867901
C42   C     C_R   0.585459 0.560336 0.209750 0.300467
C43   C     C_R   0.393064 0.451947 0.787728 0.294050
C44   C     C_R   0.412364 0.440476 0.206231 0.052335
C45   C     C_R   0.610956 0.544223 0.796415 0.027089
C46   C     C_R   0.410104 0.438735 0.104919 -0.288242
Cu1   Cu    Cu3+1 0.500000 0.499990 0.596430 0.913553
Cu2   Cu    Cu3+1 0.500000 0.500010 0.403570 0.913069
H1    H     H_    0.984778 0.473121 0.395079 0.177149
H2    H     H_    0.701071 0.576966 0.762060 0.142202
H3    H     H_    0.345882 0.386713 0.068346 0.125075
H4    H     H_    0.708287 0.577614 0.937932 0.132988
H5    H     H_    0.763297 0.370343 0.744252 0.269270
H6    H     H_    0.926400 0.300919 0.777028 0.234131
H7    H     H_    0.937506 0.395268 0.695659 0.235529
H8    H     H_    0.916176 0.246711 0.613483 0.198120
H9    H     H_    0.783049 0.328226 0.567219 0.226361
H10   H     H_    0.606392 0.255086 0.693707 0.225864
H11   H     H_    0.738135 0.169323 0.702548 0.176704
H12   H     H_    0.016400 0.522991 0.607457 0.167817
H13   H     H_    0.309071 0.663485 0.184748 0.265769
H14   H     H_    0.174839 0.750483 0.149052 0.252424
H15   H     H_    0.350638 0.745199 0.094794 0.238735
H16   H     H_    0.364178 0.860660 0.216011 0.203606
H17   H     H_    0.500902 0.776882 0.249252 0.218035
H18   H     H_    0.290619 0.706082 0.352392 0.228159
H19   H     H_    0.199794 0.807575 0.333814 0.179507
H20   H     H_    0.929465 0.210439 0.321322 0.250366
H21   H     H_    0.855312 0.255253 0.423795 0.244197
H22   H     H_    0.967879 0.323602 0.349676 0.247851
H23   H     H_    0.707189 0.062819 0.590871 0.123403
H24   H     H_    0.080905 0.161461 0.474000 0.226095
H25   H     H_    0.117441 0.273588 0.506381 0.213611
H26   H     H_    0.261363 0.303016 0.369693 0.206807
H27   H     H_    0.211694 0.200977 0.318554 0.195517
H28   H     H_    0.831265 0.700720 0.820716 0.247215
H29   H     H_    0.839618 0.817656 0.833735 0.253488
H30   H     H_    0.712216 0.751442 0.899655 0.241474
H31   H     H_    0.578838 0.834508 0.757206 0.211838
H32   H     H_    0.548299 0.718828 0.751598 0.235489
H33   H     H_    0.730537 0.703971 0.632794 0.194172
H34   H     H_    0.365916 0.943378 0.356739 0.124706
H35   H     H_    0.807387 0.809323 0.652420 0.190922
H36   H     H_    0.977608 0.647365 0.367356 0.259494
H37   H     H_    0.981792 0.717825 0.261134 0.249690
H38   H     H_    0.101030 0.621768 0.277702 0.263919
H39   H     H_    0.883107 0.523589 0.253392 0.223774
H40   H     H_    0.874784 0.603701 0.156508 0.211519
H41   H     H_    0.685574 0.688240 0.229856 0.158901
H42   H     H_    0.706396 0.621483 0.335890 0.257051
H43   H     H_    0.134374 0.218862 0.717641 0.255227
H44   H     H_    0.302659 0.221663 0.654336 0.260522
H45   H     H_    0.282768 0.063821 0.405351 0.128860
H46   H     H_    0.296403 0.153139 0.761528 0.244291
H47   H     H_    0.451231 0.283258 0.803781 0.216719
H48   H     H_    0.277722 0.285224 0.858825 0.209435
H49   H     H_    0.171775 0.399064 0.751178 0.158733
H50   H     H_    0.293412 0.379126 0.663403 0.259222
H51   H     H_    0.635341 0.936457 0.632418 0.129600
H52   H     H_    0.630768 0.617815 0.072966 0.127649
H53   H     H_    0.288844 0.428468 0.918235 0.125020
H54   H     H_    0.345825 0.392489 0.242765 0.120361
N1    N     N_R   0.500000 0.500020 0.258690 -0.187984
N2    N     N_R   0.500000 0.499980 0.741310 -0.188687
O1    O     O_R   0.500010 0.371450 0.581430 -0.591269
O2    O     O_R   0.499990 0.628550 0.418570 -0.607471
O3    O     O_R   0.500010 0.371460 0.418560 -0.592366
O4    O     O_R   0.499990 0.628540 0.581440 -0.578146
O5    O     O_R   0.274840 0.499990 0.562640 -0.598063
O6    O     O_R   0.725160 0.500010 0.437360 -0.584109
O7    O     O_R   0.274840 0.500000 0.399770 -0.599900
O8    O     O_R   0.725160 0.500000 0.600230 -0.596774

loop_
_geom_bond_atom_site_label_1
_geom_bond_atom_site_label_2
_ccdc_geom_bond_type
C36   H41   S    
Cu2   O6    S    
C37   H40   S    
C3    C23   A    
C42   N1    A    
C7    C8    D    
C32   H33   S    
C3    C46   A    
C26   C27   S    
C29   C30   S    
C23   C42   A    
C38   H38   S    
C26   H19   S    
C36   C37   S    
C19   C21   A    
C25   H5    S    
C30   C31   S    
C11   C14   A    
C39   H49   S    
Cu2   O3    S    
Cu1   O8    S    
C43   N2    A    
C33   C35   S    
C36   C42   S    
C31   H22   S    
Cu2   O2    S    
Cu1   Cu2   S    
C24   H9    S    
Cu1   O1    S    
C18   C20   A    
C28   H13   S    
C23   H52   S    
C10   C21   A    
C6    O6    A    
C40   H48   S    
C44   N1    A    
C44   C46   A    
C2    C45   A    
C31   H20   S    
C4    C34   A    
C35   H28   S    
C34   H53   S    
C38   H37   S    
C26   H18   S    
C9    H23   S    
C24   C25   S    
C7    H1    S    
C39   C40   S    
C12   O4    A    
C30   H25   S    
C44   H54   S    
C33   H31   S    
C39   H50   S    
C6    C8    S    
C29   H26   S    
C5    O7    A    
C16   C29   S    
Cu1   O5    S    
Cu2   N1    S    
C46   H3    S    
C35   H29   S    
C2    C4    A    
C37   C38   S    
C27   H17   S    
C45   N2    A    
C9    C20   A    
C30   H24   S    
C41   H46   S    
C12   C15   S    
C18   H45   S    
C41   H44   S    
C25   H6    S    
C9    C11   A    
C2    H4    S    
C1    O3    A    
C40   C41   S    
C41   H43   S    
C13   C15   A    
C14   C16   A    
C13   C26   S    
C40   H47   S    
C3    C4    S    
C22   H11   S    
C5    C7    S    
C36   H42   S    
C15   C17   A    
C32   H35   S    
C19   H51   S    
Cu1   N2    S    
C11   C22   S    
C38   H36   S    
C6    O8    A    
C37   H39   S    
C34   C43   A    
C25   H7    S    
C10   C13   A    
C22   H10   S    
C39   C43   S    
C33   H32   S    
C29   H27   S    
C24   H8    S    
C35   H30   S    
C32   C33   S    
C8    H12   S    
C12   O2    A    
C5    O5    A    
C45   H2    S    
C17   C19   A    
C10   H34   S    
C22   C24   S    
C27   H16   S    
C28   H15   S    
C31   H21   S    
Cu2   O7    S    
C20   C21   S    
C16   C18   A    
Cu1   O4    S    
C27   C28   S    
C17   C32   S    
C1    C14   S    
C1    O1    A    
C28   H14   S    
