data_mof_unit_65310.cif
_audit_creation_date              2012-12-11T16:00:44-0500
_audit_creation_method            fapswitch 2.2
_symmetry_space_group_name_H-M    P1
_symmetry_Int_Tables_number       1
_space_group_crystal_system       triclinic
_cell_length_a                    6.94725
_cell_length_b                    17.281503
_cell_length_c                    18.583016
_cell_angle_alpha                 107.22352
_cell_angle_beta                  90.30385
_cell_angle_gamma                 90.652971
_cell_volume                      2130.78300428

loop_
_atom_site_label
_atom_site_type_symbol
_atom_type_description
_atom_site_fract_x
_atom_site_fract_y
_atom_site_fract_z
_atom_type_partial_charge
O1    O     O_R   0.505810 0.442350 0.559500 -0.515109
O2    O     O_R   0.167990 0.405060 0.411070 -0.537874
O3    O     O_R   0.005550 0.557650 0.440500 -0.525174
C1    C     C_R   0.337659 0.381633 0.382818 0.702189
O4    O     O_R   0.175580 0.432840 0.557140 -0.525644
O5    O     O_R   0.013190 0.585620 0.587600 -0.538400
C2    C     C_R   0.344533 0.415893 0.580609 0.737692
O6    O     O_R   0.498170 0.414380 0.412400 -0.539178
O7    O     O_3   0.341790 0.550090 0.509830 -0.363621
V1    V     V_3+5 0.063870 0.490710 0.498180 1.433619
O8    O     O_R   0.683930 0.594940 0.588930 -0.529003
C3    C     C_R   0.854403 0.618166 0.617014 0.740294
O9    O     O_R   0.676340 0.567160 0.442860 -0.528380
C4    C     C_R   0.845270 0.584116 0.419402 0.704116
V2    V     V_3+5 0.564820 0.509290 0.501820 1.449295
O10   O     O_3   0.836770 0.449910 0.490170 -0.360580
C5    C     C_1   0.856452 0.636136 0.367382 -0.212932
C6    C     C_1   0.867678 0.678693 0.323821 0.002366
C7    C     C_1   0.882038 0.728859 0.271931 0.006344
C8    C     C_1   0.894373 0.771101 0.228124 0.012267
C9    C     C_1   0.908757 0.821264 0.176233 0.021302
C10   C     C_1   0.920036 0.863815 0.132668 -0.185905
C11   C     C_3   0.712441 0.778049 0.773216 -0.178151
C12   C     C_3   0.801791 0.775166 0.696106 -0.226830
H1    H     H_    0.730388 0.795451 0.651373 0.130123
H2    H     H_    0.566745 0.800346 0.792587 0.129475
C13   C     C_3   0.871486 0.688583 0.687387 -0.111650
C14   C     C_3   0.784370 0.691632 0.763586 0.669218
C15   C     C_3   0.975546 0.725019 0.804066 -0.191778
C16   C     C_3   0.064244 0.722271 0.726880 -0.177159
C17   C     C_3   0.994534 0.809622 0.736233 -0.117562
C18   C     C_3   0.905613 0.811529 0.812496 -0.089843
H3    H     H_    0.045890 0.704341 0.848769 0.138055
H4    H     H_    0.209575 0.699415 0.707564 0.154214
H5    H     H_    0.082503 0.858971 0.725412 0.115137
C19   C     C_3   0.558473 0.283096 0.278285 -0.168982
C20   C     C_3   0.494397 0.194589 0.266549 0.666776
H6    H     H_    0.700452 0.309217 0.301561 0.132149
C21   C     C_3   0.418891 0.189185 0.187736 -0.114053
C22   C     C_3   0.480137 0.277899 0.198610 -0.229850
C23   C     C_3   0.280569 0.306785 0.233098 -0.119239
C24   C     C_3   0.218757 0.217414 0.221704 -0.168767
C25   C     C_3   0.296440 0.222464 0.301442 -0.195086
C26   C     C_3   0.357996 0.311108 0.312032 -0.091139
H7    H     H_    0.556744 0.300686 0.156526 0.130383
H8    H     H_    0.190030 0.353112 0.219391 0.115424
H9    H     H_    0.077183 0.190737 0.198484 0.155758
H10   H     H_    0.220866 0.199313 0.343519 0.141680
C27   C     C_1   0.354993 0.363844 0.632644 -0.183271
C28   C     C_1   0.366659 0.321301 0.676205 0.022852
C29   C     C_1   0.382084 0.271158 0.728094 0.012704
C30   C     C_1   0.395415 0.228942 0.771891 0.006546
C31   C     C_1   0.410812 0.178795 0.823777 0.002777
C32   C     C_1   0.422420 0.136243 0.867333 -0.212893
O11   O     O_R   0.278780 0.085730 0.087540 -0.539893
O12   O     O_R   0.601620 0.067180 0.942850 -0.528173
O13   O     O_R   0.763750 0.914350 0.912410 -0.537708
C33   C     C_R   0.432735 0.084177 0.919357 0.706089
O14   O     O_R   0.608970 0.094960 0.088920 -0.528468
O15   O     O_R   0.771150 0.942330 0.059520 -0.516515
C34   C     C_R   0.439298 0.118459 0.117121 0.735830
O16   O     O_R   0.271380 0.057750 0.940430 -0.524529
O17   O     O_3   0.435070 0.949970 0.990140 -0.359952
V3    V     V_3+5 0.713090 0.009280 0.001830 1.443975
O18   O     O_R   0.100340 0.932730 0.057200 -0.525544
C35   C     C_R   0.931352 0.915826 0.080643 0.734478
O19   O     O_R   0.092990 0.904950 0.911140 -0.539518
C36   C     C_R   0.922533 0.881770 0.883017 0.706182
V4    V     V_3+5 0.212100 0.990570 0.998260 1.430790
O20   O     O_3   0.940260 0.050030 0.009860 -0.364177
F1    F     F_    0.674877 0.630237 0.777209 -0.693754
F2    F     F_    0.606871 0.136866 0.283710 -0.693815

loop_
_geom_bond_atom_site_label_1
_geom_bond_atom_site_label_2
_ccdc_geom_bond_type
C33   O16   A    
C23   C24   S    
C7    C8    T    
C12   C13   S    
C1    O6    A    
C31   C32   T    
O14   V3    S    
C14   C15   S    
C15   C18   S    
O5    C3    A    
C16   C17   S    
V2    O10   S    
C15   H3    S    
C6    C7    S    
C11   H2    S    
C10   C35   S    
O8    V2    S    
O17   V4    S    
C23   H8    S    
O12   V3    S    
O1    V2    S    
V3    O20   S    
C25   H10   S    
C18   C36   S    
O15   C35   A    
O9    C4    A    
C13   C16   S    
C4    C5    S    
O7    V1    S    
C28   C29   S    
C21   C24   S    
C22   H7    S    
C21   C34   S    
O14   C34   A    
C16   H4    S    
C3    C13   S    
C29   C30   T    
C19   C22   S    
C12   H1    S    
C2    C27   S    
C21   C22   S    
O4    C2    A    
C1    C26   S    
O19   C36   A    
O16   V4    S    
O19   V4    S    
C20   C25   S    
O2    C1    A    
C25   C26   S    
C15   C16   S    
C17   C18   S    
C11   C12   S    
C5    C6    T    
C11   C14   S    
O11   V4    S    
O3    C4    A    
C22   C23   S    
O18   C35   A    
O6    V2    S    
O9    V2    S    
C23   C26   S    
C17   H5    S    
C19   C26   S    
C14   F1    S    
C24   C25   S    
O13   C36   A    
O2    V1    S    
C30   C31   S    
O13   V3    S    
C32   C33   S    
C19   C20   S    
O1    C2    A    
O5    V1    S    
O8    C3    A    
O15   V3    S    
C11   C18   S    
C19   H6    S    
O7    V2    S    
C12   C17   S    
O4    V1    S    
C20   C21   S    
O3    V1    S    
V1    O10   S    
O18   V4    S    
O11   C34   A    
O12   C33   A    
C24   H9    S    
V4    O20   S    
O17   V3    S    
C8    C9    S    
C27   C28   T    
C20   F2    S    
C13   C14   S    
C9    C10   T    
