data_mof_unit_36922.cif
_audit_creation_date              2012-12-11T15:35:25-0500
_audit_creation_method            fapswitch 2.2
_symmetry_space_group_name_H-M    P1
_symmetry_Int_Tables_number       1
_space_group_crystal_system       triclinic
_cell_length_a                    17.390114
_cell_length_b                    24.319179
_cell_length_c                    14.862355
_cell_angle_alpha                 90.000064
_cell_angle_beta                  124.820035
_cell_angle_gamma                 89.999957
_cell_volume                      5160.06843178

loop_
_atom_site_label
_atom_site_type_symbol
_atom_type_description
_atom_site_fract_x
_atom_site_fract_y
_atom_site_fract_z
_atom_type_partial_charge
C1    C     C_R   0.309948 0.124789 0.910189 -0.127718
C2    C     C_R   0.309948 0.875211 0.910189 -0.127718
C3    C     C_R   0.852417 0.651594 0.907034 -0.137502
C4    C     C_R   0.852417 0.348406 0.907034 -0.137501
C5    C     C_R   0.681723 0.132855 0.092275 0.051601
C6    C     C_R   0.681723 0.867145 0.092275 0.051601
C7    C     C_R   0.145140 0.651708 0.093748 0.055531
C8    C     C_R   0.145140 0.348292 0.093748 0.055531
C9    C     C_R   0.591040 0.865595 0.909662 -0.150277
C10   C     C_R   0.591040 0.134405 0.909662 -0.150277
C11   C     C_R   0.059629 0.347057 0.911928 -0.163460
C12   C     C_R   0.059628 0.652943 0.911928 -0.163461
C13   C     C_R   0.536586 0.000000 0.708761 0.057197
C14   C     C_R   0.055925 0.500000 0.731104 0.061375
C15   C     C_R   0.798308 0.000000 0.367850 -0.003097
C16   C     C_R   0.305864 0.500000 0.360986 0.015474
C17   C     C_R   0.677998 0.149676 0.000443 0.005658
C18   C     C_R   0.677998 0.850324 0.000443 0.005658
C19   C     C_R   0.119678 0.684350 0.004498 0.012276
C20   C     C_R   0.119679 0.315650 0.004498 0.012275
C21   C     C_3   0.036788 0.948914 0.605688 -0.437504
C22   C     C_3   0.036789 0.051088 0.605683 -0.437506
C23   C     C_3   0.523816 0.449040 0.632392 -0.437666
C24   C     C_3   0.523815 0.550960 0.632393 -0.437667
C25   C     C_3   0.930544 0.948214 0.523384 -0.421613
C26   C     C_3   0.930545 0.051787 0.523380 -0.421612
C27   C     C_3   0.422170 0.448143 0.531099 -0.411449
C28   C     C_3   0.422169 0.551856 0.531101 -0.411446
C29   C     C_3   0.053390 0.999998 0.464973 0.100263
C30   C     C_3   0.569870 0.500000 0.516591 0.128611
C31   C     C_3   0.079365 0.000000 0.584874 0.355700
C32   C     C_3   0.575593 0.500000 0.627251 0.347801
C33   C     C_3   0.899100 0.000000 0.449678 0.395796
C34   C     C_3   0.401840 0.500000 0.459562 0.383219
C35   C     C_R   0.403220 0.875772 0.094211 -0.132290
C36   C     C_R   0.403220 0.124228 0.094211 -0.132291
C37   C     C_R   0.942654 0.347193 0.090112 -0.136732
C38   C     C_R   0.942654 0.652807 0.090112 -0.136733
C39   C     C_3   0.945305 0.999999 0.385433 -0.475302
C40   C     C_3   0.465822 0.500001 0.418671 -0.496807
C41   C     C_R   0.158420 0.817106 0.910479 -0.178738
C42   C     C_R   0.158420 0.182892 0.910482 -0.178739
C43   C     C_R   0.784431 0.236895 0.895007 -0.181431
C44   C     C_R   0.784431 0.763105 0.895007 -0.181431
C45   C     C_R   0.728607 0.197477 0.896339 -0.175819
C46   C     C_R   0.728607 0.802523 0.896339 -0.175820
C47   C     C_R   0.110540 0.771461 0.910785 -0.166207
C48   C     C_R   0.110540 0.228538 0.910787 -0.166207
C49   C     C_R   0.749814 0.178090 0.996821 0.159772
C50   C     C_R   0.749813 0.821910 0.996821 0.159773
C51   C     C_R   0.148003 0.741429 0.007941 0.148535
C52   C     C_R   0.148005 0.258571 0.007942 0.148537
C53   C     C_R   0.838408 0.188710 0.092843 -0.186439
C54   C     C_R   0.838408 0.811290 0.092843 -0.186439
C55   C     C_R   0.223706 0.763255 0.107012 -0.186439
C56   C     C_R   0.223711 0.236747 0.107014 -0.186439
C57   C     C_R   0.268507 0.809794 0.107183 -0.174777
C58   C     C_R   0.268511 0.190207 0.107186 -0.174775
C59   C     C_R   0.892874 0.229976 0.092143 -0.178966
C60   C     C_R   0.892874 0.770024 0.092143 -0.178968
C61   C     C_R   0.243029 0.832823 0.007667 0.149598
C62   C     C_R   0.243031 0.167177 0.007669 0.149599
C63   C     C_R   0.859109 0.258521 0.994456 0.149215
C64   C     C_R   0.859109 0.741479 0.994456 0.149216
C65   C     C_R   0.608599 0.950198 0.626280 0.020704
C66   C     C_R   0.608598 0.049802 0.626279 0.020706
C67   C     C_R   0.116396 0.450239 0.635582 0.014913
C68   C     C_R   0.116396 0.549761 0.635582 0.014913
C69   C     C_R   0.614721 0.950445 0.537280 -0.238532
C70   C     C_R   0.614721 0.049554 0.537280 -0.238531
C71   C     C_R   0.107114 0.450443 0.536165 -0.236685
C72   C     C_R   0.107114 0.549557 0.536164 -0.236685
C73   C     C_R   0.604408 1.000000 0.484067 0.121347
C74   C     C_R   0.091737 0.500000 0.480416 0.124581
C75   C     C_R   0.549928 0.045449 0.304218 -0.141307
C76   C     C_R   0.549928 0.954551 0.304218 -0.141306
C77   C     C_R   0.042764 0.545642 0.301128 -0.129523
C78   C     C_R   0.042764 0.454358 0.301128 -0.129523
C79   C     C_R   0.588243 0.000000 0.657508 0.102098
C80   C     C_R   0.104379 0.500000 0.675229 0.100378
C81   C     C_R   0.235722 0.953831 0.709031 -0.147466
C82   C     C_R   0.235722 0.046169 0.709031 -0.147467
C83   C     C_R   0.731548 0.453632 0.749872 -0.113007
C84   C     C_R   0.731548 0.546367 0.749873 -0.113009
C85   C     C_R   0.313854 0.137219 0.003993 0.042392
C86   C     C_R   0.313854 0.862780 0.003992 0.042391
C87   C     C_R   0.884048 0.684283 0.997619 0.050085
C88   C     C_R   0.884048 0.315717 0.997619 0.050085
C89   C     C_R   0.568177 1.000000 0.368668 0.076567
C90   C     C_R   0.056548 0.500000 0.364402 0.062858
C91   C     C_R   0.180945 0.000000 0.662363 0.035038
C92   C     C_R   0.675060 0.500000 0.719807 0.000151
C93   C     C_R   0.505256 0.045359 0.735419 -0.119426
C94   C     C_R   0.505256 0.954641 0.735419 -0.119426
C95   C     C_R   0.021421 0.545703 0.754157 -0.126815
C96   C     C_R   0.021421 0.454297 0.754157 -0.126814
C97   C     C_R   0.751953 0.954451 0.305563 -0.134985
C98   C     C_R   0.751953 0.045549 0.305563 -0.134984
C99   C     C_R   0.258052 0.453977 0.300450 -0.147780
C100  C     C_R   0.258052 0.546023 0.300450 -0.147779
H1    H     H_    0.895820 0.946853 0.567209 0.163880
H2    H     H_    0.895821 0.053150 0.567207 0.163880
H3    H     H_    0.373342 0.446437 0.556793 0.162939
H4    H     H_    0.373342 0.553559 0.556798 0.162941
H5    H     H_    0.920907 0.963575 0.330197 0.157007
H6    H     H_    0.920908 0.036422 0.330196 0.157008
H7    H     H_    0.449622 0.463553 0.365141 0.154897
H8    H     H_    0.449622 0.536451 0.365145 0.154898
H9    H     H_    0.133601 0.836506 0.832911 0.104575
H10   H     H_    0.133598 0.163491 0.832913 0.104575
H11   H     H_    0.760526 0.254909 0.816731 0.102458
H12   H     H_    0.760525 0.745090 0.816731 0.102458
H13   H     H_    0.665012 0.186826 0.818948 0.107664
H14   H     H_    0.665012 0.813173 0.818948 0.107664
H15   H     H_    0.049742 0.757279 0.833546 0.104340
H16   H     H_    0.049740 0.242719 0.833548 0.104340
H17   H     H_    0.862323 0.169002 0.169792 0.122325
H18   H     H_    0.862323 0.830998 0.169792 0.122325
H19   H     H_    0.256673 0.742120 0.184189 0.126977
H20   H     H_    0.256681 0.257883 0.184191 0.126976
H21   H     H_    0.330273 0.822554 0.184770 0.106050
H22   H     H_    0.330278 0.177449 0.184773 0.106049
H23   H     H_    0.955354 0.242818 0.169242 0.104079
H24   H     H_    0.955354 0.757182 0.169242 0.104079
H25   H     H_    0.431328 0.871329 0.179843 0.093092
H26   H     H_    0.431329 0.128670 0.179843 0.093093
H27   H     H_    0.986245 0.333205 0.174047 0.079863
H28   H     H_    0.986245 0.666794 0.174047 0.079864
H29   H     H_    0.619777 0.911544 0.505795 0.111290
H30   H     H_    0.619777 0.088456 0.505795 0.111290
H31   H     H_    0.107393 0.411497 0.501336 0.111523
H32   H     H_    0.107393 0.588503 0.501336 0.111523
H33   H     H_    0.218922 0.911875 0.680542 0.088548
H34   H     H_    0.218923 0.088125 0.680542 0.088548
H35   H     H_    0.710833 0.411021 0.733521 0.090288
H36   H     H_    0.710833 0.588978 0.733522 0.090289
H37   H     H_    0.499125 0.086723 0.707543 0.100712
H38   H     H_    0.499126 0.913277 0.707543 0.100712
H39   H     H_    0.029891 0.588504 0.744181 0.113857
H40   H     H_    0.029891 0.411496 0.744180 0.113857
H41   H     H_    0.763414 0.912718 0.334242 0.095217
H42   H     H_    0.763413 0.087282 0.334242 0.095217
H43   H     H_    0.274420 0.411600 0.325240 0.096288
H44   H     H_    0.274421 0.588400 0.325240 0.096287
H45   H     H_    0.558735 0.852455 0.826660 0.094198
H46   H     H_    0.558736 0.147544 0.826661 0.094199
H47   H     H_    0.016117 0.332587 0.828315 0.091854
H48   H     H_    0.016116 0.667413 0.828315 0.091853
N1    N     N_R   0.392140 0.102630 0.941800 -0.040411
N2    N     N_R   0.392140 0.897370 0.941800 -0.040411
N3    N     N_R   0.892140 0.602630 0.941800 -0.036650
N4    N     N_R   0.892140 0.397370 0.941800 -0.036650
N5    N     N_R   0.450890 0.896450 0.057150 -0.043874
N6    N     N_R   0.450890 0.103550 0.057150 -0.043874
N7    N     N_R   0.950890 0.396450 0.057150 -0.038900
N8    N     N_R   0.950890 0.603550 0.057150 -0.038900
N9    N     N_R   0.525160 0.027960 0.206160 -0.036302
N10   N     N_R   0.525160 0.972040 0.206160 -0.036302
N11   N     N_R   0.025160 0.527960 0.206160 -0.039302
N12   N     N_R   0.025160 0.472040 0.206160 -0.039302
N13   N     N_R   0.317870 0.971120 0.792790 -0.034522
N14   N     N_R   0.317870 0.028880 0.792790 -0.034522
N15   N     N_R   0.817870 0.471120 0.792790 -0.039681
N16   N     N_R   0.817870 0.528880 0.792790 -0.039681
N17   N     N_R   0.473480 0.027920 0.793480 -0.041453
N18   N     N_R   0.473480 0.972080 0.793480 -0.041453
N19   N     N_R   0.973480 0.527920 0.793480 -0.044761
N20   N     N_R   0.973480 0.472080 0.793480 -0.044761
N21   N     N_R   0.681610 0.971120 0.207570 -0.034436
N22   N     N_R   0.681610 0.028880 0.207570 -0.034436
N23   N     N_R   0.181610 0.471120 0.207570 -0.035483
N24   N     N_R   0.181610 0.528880 0.207570 -0.035484
N25   N     N_R   0.605410 0.102620 0.056870 -0.053588
N26   N     N_R   0.605410 0.897380 0.056870 -0.053588
N27   N     N_R   0.105410 0.602620 0.056870 -0.049945
N28   N     N_R   0.105410 0.397380 0.056870 -0.049945
N29   N     N_R   0.549680 0.896430 0.944180 -0.046208
N30   N     N_R   0.549680 0.103570 0.944180 -0.046208
N31   N     N_R   0.049680 0.396430 0.944180 -0.043167
N32   N     N_R   0.049680 0.603570 0.944180 -0.043167
Ni1   Ni    Ni4+2 0.433410 0.064680 0.868830 0.211659
Ni2   Ni    Ni4+2 0.433410 0.935320 0.868830 0.211659
Ni3   Ni    Ni4+2 0.933410 0.564680 0.868830 0.205671
Ni4   Ni    Ni4+2 0.933410 0.435320 0.868830 0.205671
Ni5   Ni    Ni4+2 0.565650 0.934380 0.131170 0.201609
Ni6   Ni    Ni4+2 0.565650 0.065620 0.131170 0.201609
Ni7   Ni    Ni4+2 0.065650 0.434380 0.131170 0.199335
Ni8   Ni    Ni4+2 0.065650 0.565620 0.131170 0.199334
H49   H     H_    0.252471 0.132476 0.826831 0.087558
H50   H     H_    0.252472 0.867524 0.826830 0.087557
H51   H     H_    0.816527 0.664614 0.822782 0.081143
H52   H     H_    0.816527 0.335386 0.822782 0.081143
H53   H     H_    0.054291 0.950390 0.690383 0.170805
H54   H     H_    0.054293 0.049615 0.690379 0.170803
H55   H     H_    0.524748 0.450760 0.707866 0.169424
H56   H     H_    0.524750 0.549240 0.707868 0.169424
H57   H     H_    0.911821 0.909979 0.474123 0.151230
H58   H     H_    0.911821 0.090021 0.474118 0.151230
H59   H     H_    0.412384 0.409989 0.484533 0.148580
H60   H     H_    0.412380 0.590011 0.484537 0.148580
N33   N     N_3   0.092649 0.950830 0.446749 -0.216519
H61   H     H_    0.058467 0.915271 0.445783 0.095476
H62   H     H_    0.079996 0.953072 0.369058 0.102784
N34   N     N_3   0.092651 0.049165 0.446745 -0.216518
H63   H     H_    0.080000 0.046920 0.369056 0.102785
H64   H     H_    0.058469 0.084725 0.445775 0.095476
N35   N     N_3   0.616882 0.450878 0.510941 -0.214628
H65   H     H_    0.579575 0.415258 0.502184 0.093920
H66   H     H_    0.617351 0.452983 0.440943 0.098827
N36   N     N_3   0.616884 0.549121 0.510943 -0.214628
H67   H     H_    0.617352 0.547017 0.440945 0.098828
H68   H     H_    0.579579 0.584743 0.502189 0.093919
N37   N     N_3   0.621906 0.899627 0.682624 -0.227791
H69   H     H_    0.689248 0.885263 0.713022 0.115786
H70   H     H_    0.574053 0.870829 0.625747 0.083140
N38   N     N_3   0.621904 0.100374 0.682622 -0.227791
H71   H     H_    0.574050 0.129171 0.625744 0.083140
H72   H     H_    0.689246 0.114738 0.713020 0.115785
N39   N     N_3   0.136595 0.399607 0.694224 -0.223649
H73   H     H_    0.200861 0.385058 0.713259 0.109713
H74   H     H_    0.085318 0.370896 0.642040 0.090575
N40   N     N_3   0.136594 0.600394 0.694223 -0.223649
H75   H     H_    0.085317 0.629104 0.642039 0.090575
H76   H     H_    0.200860 0.614942 0.713258 0.109713
H77   H     H_    0.568651 0.087551 0.331235 0.080435
H78   H     H_    0.568651 0.912449 0.331234 0.080436
H79   H     H_    0.058800 0.587972 0.327540 0.081724
H80   H     H_    0.058800 0.412028 0.327540 0.081725
N41   N     N_3   0.733633 0.159468 0.197058 -0.234483
H81   H     H_    0.740928 0.200969 0.185000 0.098456
H82   H     H_    0.691071 0.160338 0.225855 0.088549
N42   N     N_3   0.733633 0.840532 0.197058 -0.234483
H83   H     H_    0.740928 0.799031 0.185000 0.098456
H84   H     H_    0.691071 0.839662 0.225855 0.088549
N43   N     N_3   0.169483 0.672380 0.197443 -0.237914
H85   H     H_    0.128158 0.707031 0.182589 0.092288
H86   H     H_    0.148611 0.643918 0.232091 0.093136
N44   N     N_3   0.169484 0.327620 0.197444 -0.237913
H87   H     H_    0.128160 0.292967 0.182589 0.092289
H88   H     H_    0.148608 0.356082 0.232089 0.093135
H89   H     H_    0.065135 0.909354 0.599426 0.144583
H90   H     H_    0.065136 0.090647 0.599417 0.144583
H91   H     H_    0.557356 0.409542 0.636334 0.146988
H92   H     H_    0.557355 0.590457 0.636333 0.146988

loop_
_geom_bond_atom_site_label_1
_geom_bond_atom_site_label_2
_ccdc_geom_bond_type
C68   C80   A    
C39   H6    S    
N23   N24   A    
C13   C79   S    
C58   C62   A    
N17   N18   A    
C65   C79   A    
C6    N42   S    
C63   C88   S    
C100  N24   A    
C2    H50   S    
N33   H62   S    
N33   H61   S    
C37   N7    A    
C37   C88   A    
N15   N16   A    
N18   Ni2   S    
C41   C61   A    
N30   Ni1   S    
C5    N25   A    
C30   N35   S    
C94   N18   A    
C22   H90   S    
N13   N14   A    
C53   C59   A    
C43   C63   A    
N2    Ni2   S    
C54   C60   A    
N37   H69   S    
C44   C64   A    
C47   H15   S    
C83   C92   A    
N6    Ni6   S    
C76   N10   A    
C50   C54   A    
C2    N2    A    
C8    C20   A    
C34   C40   S    
C99   H43   S    
N38   H72   S    
C67   N39   S    
N26   Ni5   S    
C35   C86   A    
C53   H17   S    
C67   C71   A    
C5    C17   A    
C24   H56   S    
C10   C17   A    
N29   Ni2   S    
C70   H30   S    
C97   N21   A    
C35   H25   S    
N21   N22   A    
C2    C86   A    
C40   H7    S    
N13   Ni2   S    
C60   H24   S    
C45   H13   S    
C4    H52   S    
C83   N15   A    
N41   H82   S    
C16   C34   S    
N27   Ni8   S    
C33   C39   S    
N28   N31   A    
N19   Ni3   S    
C57   C61   A    
C38   C87   A    
N20   Ni4   S    
N2    N5    A    
C7    N27   A    
N43   H85   S    
C96   N20   A    
C69   C73   A    
C23   C27   S    
N4    Ni4   S    
C25   H1    S    
C42   C62   A    
C64   C87   S    
C83   H35   S    
C84   N16   A    
N32   Ni3   S    
C76   C89   A    
C48   H16   S    
C75   N9    A    
N37   H70   S    
C28   C34   S    
C29   N34   S    
C41   H9    S    
C98   H42   S    
N1    Ni1   S    
N34   H63   S    
N43   H86   S    
C29   C39   S    
C43   H11   S    
C15   C97   A    
C6    C18   A    
C14   C96   A    
C59   H23   S    
C44   C46   A    
C9    C18   A    
C72   H32   S    
N44   H88   S    
N8    Ni8   S    
C27   C34   S    
C1    C85   A    
C77   C90   A    
C62   C85   S    
C7    N43   S    
N25   Ni6   S    
C58   H22   S    
C29   N33   S    
C22   C31   S    
C46   H14   S    
C36   N6    A    
N35   H65   S    
C10   N30   A    
C35   N5    A    
C75   H77   S    
C93   H37   S    
N9    Ni6   S    
N14   Ni1   S    
C72   C74   A    
C30   N36   S    
C100  H44   S    
C17   C49   S    
N19   N20   A    
C16   C100  A    
C55   H19   S    
C56   H20   S    
C6    N26   A    
C3    C87   A    
C11   C20   A    
C78   C90   A    
C82   C91   A    
N9    N10   A    
C13   C93   A    
C81   C91   A    
N11   Ni8   S    
C82   H34   S    
C42   C48   A    
N40   H76   S    
N1    N6    A    
C24   C32   S    
C65   N37   S    
N41   H81   S    
C66   C79   A    
C3    H51   S    
N39   H74   S    
C21   C31   S    
C28   H4    S    
C26   C33   S    
C38   H28   S    
N11   N12   A    
N4    N7    A    
C45   C49   A    
C68   C72   A    
N22   Ni6   S    
C70   C73   A    
N42   H84   S    
C41   C47   A    
C30   C40   S    
C28   H60   S    
N3    N8    A    
N38   H71   S    
C4    N4    A    
C1    N1    A    
C43   C45   A    
N26   N29   A    
C97   H41   S    
C77   N11   A    
C76   H78   S    
C44   H12   S    
C78   N12   A    
C12   N32   A    
C10   H46   S    
C77   H79   S    
C7    C19   A    
C14   C80   S    
C55   C57   A    
C94   H38   S    
C5    N41   S    
C95   H39   S    
C11   N31   A    
C15   C98   A    
C23   H91   S    
N10   Ni5   S    
C14   C95   A    
N39   H73   S    
C9    N29   A    
C18   C50   S    
N28   Ni7   S    
C21   H89   S    
N31   Ni4   S    
C59   C63   A    
C39   H5    S    
C21   C25   S    
N44   H87   S    
C84   H36   S    
N15   Ni4   S    
C81   N13   A    
N3    Ni3   S    
C36   H26   S    
C67   C80   A    
C24   C28   S    
C31   C91   S    
N34   H64   S    
C3    N3    A    
C57   H21   S    
C95   N19   A    
C96   H40   S    
C71   C74   A    
C47   C51   A    
C38   N8    A    
C8    N28   A    
C16   C99   A    
C81   H33   S    
N27   N32   A    
C4    C88   A    
C8    N44   S    
C36   C85   A    
C73   C89   S    
C78   H80   S    
C82   N14   A    
C46   C50   A    
N36   H68   S    
N23   Ni7   S    
C13   C94   A    
C60   C64   A    
N17   Ni1   S    
C23   C32   S    
C12   H48   S    
C54   H18   S    
C42   H10   S    
N21   Ni5   S    
C29   C31   S    
N16   Ni3   S    
N7    Ni7   S    
C26   H2    S    
C30   C32   S    
C11   H47   S    
C32   C92   S    
N5    Ni5   S    
N25   N30   A    
N24   Ni8   S    
C69   H29   S    
C65   C69   A    
C68   N40   S    
C12   C19   A    
C9    H45   S    
N42   H83   S    
C56   C58   A    
C24   H92   S    
C51   C55   A    
C66   N38   S    
N40   H75   S    
C26   H58   S    
C49   C53   A    
C25   H57   S    
C61   C86   S    
C75   C89   A    
C93   N17   A    
C98   N22   A    
C19   C51   S    
C40   H8    S    
C48   C52   A    
C99   N23   A    
C66   C70   A    
C27   H59   S    
C71   H31   S    
C20   C52   S    
N36   H67   S    
C22   C26   S    
C23   H55   S    
N35   H66   S    
C22   H54   S    
C74   C90   S    
C84   C92   A    
N12   Ni7   S    
C21   H53   S    
C27   H3    S    
C15   C33   S    
C52   C56   A    
C25   C33   S    
C37   H27   S    
C1    H49   S    
