data_mof_unit_32601.cif
_audit_creation_date              2013-03-05T15:41:44-0500
_audit_creation_method            fapswitch 2.2
_symmetry_space_group_name_H-M    P1
_symmetry_Int_Tables_number       1
_space_group_crystal_system       triclinic
_cell_length_a                    6.947555
_cell_length_b                    13.715368
_cell_length_c                    20.43211
_cell_angle_alpha                 102.183929
_cell_angle_beta                  90.038437
_cell_angle_gamma                 90.9219
_cell_volume                      1902.82309149

loop_
_atom_site_label
_atom_site_type_symbol
_atom_site_description
_atom_site_fract_x
_atom_site_fract_y
_atom_site_fract_z
_atom_type_partial_charge
O1    O     O_R   0.506860 0.599390 0.449240 -0.567435
O2    O     O_R   0.180220 0.594600 0.586780 -0.558886
O3    O     O_R   0.004500 0.400610 0.550760 -0.555796
C1    C     C_R   0.349126 0.614878 0.613566 0.827658
O4    O     O_R   0.177490 0.611290 0.451970 -0.569471
O5    O     O_R   0.001750 0.417420 0.414990 -0.567936
C2    C     C_R   0.347285 0.637226 0.434717 0.811626
O6    O     O_R   0.509610 0.582580 0.585010 -0.541733
O7    O     O_3   0.337420 0.436370 0.488020 -0.275056
V1    V     V_3+5 0.064680 0.511800 0.502220 1.174908
O8    O     O_R   0.671710 0.405400 0.413220 -0.556165
C3    C     C_R   0.839046 0.385056 0.386381 0.885282
O9    O     O_R   0.674440 0.388710 0.548030 -0.541943
C4    C     C_R   0.842495 0.361928 0.564091 0.949806
V2    V     V_3+5 0.564010 0.488200 0.497780 1.193741
O10   O     O_3   0.841140 0.563630 0.511980 -0.278740
C5    C     C_R   0.879609 0.111296 0.610809 0.400426
H1    H     H_    0.779355 0.989705 0.690877 0.114379
C6    C     C_R   0.849134 0.284981 0.603728 -0.244667
C7    C     C_R   0.914034 0.310140 0.925231 -0.095677
C8    C     C_R   0.943903 0.383381 0.888641 -0.023848
C9    C     C_R   0.924367 0.360565 0.819377 -0.017520
C10   C     C_R   0.862881 0.264572 0.784856 0.037345
C11   C     C_R   0.837046 0.188262 0.822116 -0.019113
C12   C     C_R   0.844434 0.240343 0.713477 -0.028751
C13   C     C_R   0.846754 0.138877 0.680447 -0.057437
C14   C     C_R   0.806847 0.065943 0.716934 -0.130724
C15   C     C_R   0.795114 0.089630 0.786774 0.368080
C16   C     C_R   0.821114 0.312572 0.673728 -0.060533
C17   C     C_R   0.882131 0.184630 0.572025 -0.103838
C18   C     C_R   0.864841 0.212499 0.893035 -0.086470
H2    H     H_    0.937452 0.328731 0.978921 0.069905
H3    H     H_    0.968161 0.417956 0.793345 0.071872
H4    H     H_    0.989645 0.457633 0.913903 0.110989
C19   C     C_2   0.999701 0.304841 0.281679 -0.135286
C20   C     C_2   0.840955 0.316864 0.319948 -0.177983
H5    H     H_    0.129042 0.346834 0.301092 0.109641
H6    H     H_    0.708502 0.276471 0.303275 0.092078
C21   C     C_2   0.017984 0.233809 0.215712 -0.013241
C22   C     C_2   0.864500 0.187058 0.179953 -0.261552
H7    H     H_    0.721021 0.203743 0.198957 0.090976
C23   C     C_2   0.212239 0.765910 0.789629 -0.140440
C24   C     C_2   0.370718 0.801850 0.825295 0.276201
H8    H     H_    0.073099 0.783712 0.811758 0.022651
C25   C     C_2   0.212597 0.695480 0.723057 -0.082059
C26   C     C_2   0.360777 0.683981 0.679379 -0.187886
H9    H     H_    0.079284 0.654056 0.708580 0.137544
H10   H     H_    0.493689 0.726408 0.690426 0.143374
C27   C     C_R   0.440890 0.881457 0.384385 -0.045460
H11   H     H_    0.432807 0.833090 0.477575 0.060563
H12   H     H_    0.496596 0.001123 0.299679 0.096881
H13   H     H_    0.480766 0.957268 0.408532 0.101751
C28   C     C_R   0.361474 0.713082 0.394064 -0.076582
C29   C     C_R   0.306889 0.681900 0.069583 -0.036927
C30   C     C_R   0.290544 0.607824 0.107032 -0.076087
C31   C     C_R   0.310134 0.630410 0.176333 -0.089373
C32   C     C_R   0.352343 0.728584 0.211420 0.050413
C33   C     C_R   0.380025 0.803842 0.173460 0.001710
C34   C     C_R   0.369646 0.754382 0.282914 0.047088
C35   C     C_R   0.420892 0.854017 0.314466 0.046302
C36   C     C_R   0.454522 0.925386 0.276071 -0.087380
C37   C     C_R   0.435216 0.900662 0.206922 -0.068105
C38   C     C_R   0.338457 0.684938 0.324465 -0.111709
C39   C     C_R   0.412840 0.811195 0.423839 -0.081748
C40   C     C_R   0.351974 0.781140 0.102739 -0.146105
H14   H     H_    0.298887 0.608115 0.304549 0.052945
H15   H     H_    0.292512 0.568611 0.200801 0.089461
H16   H     H_    0.257173 0.531369 0.082467 0.116189
H17   H     H_    0.466938 0.958102 0.179640 0.099634
O11   O     O_R   0.203230 0.917310 0.915020 -0.584258
O12   O     O_R   0.535500 0.888690 0.048040 -0.580704
O13   O     O_R   0.711080 0.082610 0.085000 -0.575860
C41   C     C_R   0.365563 0.861052 0.064169 0.862779
O14   O     O_R   0.532630 0.905370 0.913230 -0.538991
O15   O     O_R   0.708190 0.099410 0.949230 -0.525390
C42   C     C_R   0.364543 0.879931 0.888207 0.833806
O16   O     O_R   0.206120 0.900510 0.050790 -0.518348
O17   O     O_3   0.375360 0.063570 0.011990 -0.268042
V3    V     V_3+5 0.648170 0.988200 0.997780 1.175850
O18   O     O_R   0.038240 0.111390 0.951940 -0.577674
C43   C     C_R   0.870232 0.136489 0.934003 0.872140
O19   O     O_R   0.041120 0.094710 0.086750 -0.538519
C44   C     C_R   0.873712 0.116703 0.113458 0.835822
V4    V     V_3+5 0.148810 0.011930 0.002180 1.186404
O20   O     O_3   0.871750 0.936430 0.988010 -0.280226
C45   C     C_2   0.905440 0.153998 0.497900 0.889482
O21   O     O_2   0.810102 0.193148 0.460490 -0.643917
O22   O     O_R   0.034366 0.079133 0.470702 -0.739983
H18   H     H_    0.036355 0.064732 0.419948 0.309687
C46   C     C_2   0.217663 0.217263 0.191994 0.894861
O23   O     O_2   0.314827 0.286843 0.180519 -0.630656
O24   O     O_R   0.296897 0.123055 0.185740 -0.756653
H19   H     H_    0.432693 0.120722 0.167937 0.306627
O25   O     O_3   0.549483 0.764039 0.804349 -0.663881
C47   C     C_3   0.595488 0.689026 0.839346 0.157008
H20   H     H_    0.477728 0.632171 0.836059 0.052243
H21   H     H_    0.629545 0.721560 0.892718 0.066213
H22   H     H_    0.725748 0.650279 0.816475 0.091752
C48   C     C_2   0.275954 0.652188 0.995994 0.801412
O26   O     O_2   0.328648 0.570447 0.965556 -0.625783
O27   O     O_R   0.180365 0.715122 0.961687 -0.766651
H23   H     H_    0.161555 0.684095 0.912459 0.284359
O28   O     O_3   0.895817 0.011728 0.579490 -0.632502
C49   C     C_3   0.083702 0.980070 0.590203 0.226629
H24   H     H_    0.105846 0.974491 0.643139 -0.009705
H25   H     H_    0.196374 0.030031 0.575595 0.069306
H26   H     H_    0.103301 0.904546 0.558589 0.072200
C50   C     C_2   0.729330 0.409666 0.702396 0.836650
O29   O     O_2   0.794678 0.487633 0.690836 -0.635300
O30   O     O_R   0.566653 0.410839 0.742761 -0.747400
H27   H     H_    0.512034 0.479992 0.757358 0.304090
O31   O     O_3   0.733871 0.017166 0.820165 -0.643441
C51   C     C_3   0.864718 0.938127 0.809367 0.239259
H28   H     H_    0.017622 0.964104 0.808911 -0.026906
H29   H     H_    0.829309 0.883721 0.762297 0.053794
H30   H     H_    0.850189 0.898834 0.851169 0.136661

loop_
_geom_bond_atom_site_label_1
_geom_bond_atom_site_label_2
_geom_bond_distance
_ccdc_geom_bond_type
C33   C37   1.406374 A    
C30   C31   1.390211 A    
O17   V3    2.163884 S    
O27   H23   1.013527 S    
H11   C39   1.083583 S    
C50   O29   1.223342 D    
O2    C1    1.295512 A    
C47   H20   1.113204 S    
H12   C36   1.084297 S    
O18   V4    2.031850 S    
O12   V3    2.021961 S    
C30   H16   1.084029 S    
C32   C33   1.426773 A    
C47   H22   1.109505 S    
C29   C40   1.416504 A    
C1    C26   1.473921 S    
C25   C26   1.352114 D    
C15   O31   1.381038 S    
C13   C14   1.392619 A    
C27   C35   1.404607 A    
O14   C42   1.287500 A    
C5    C13   1.412703 A    
C19   H5    1.087649 S    
O13   V3    2.012529 S    
O5    C3    1.299986 A    
C28   C39   1.395333 A    
C45   O22   1.398162 S    
C32   C34   1.433085 A    
V2    O10   2.161018 S    
C24   O25   1.386494 S    
C40   C41   1.480735 S    
C31   C32   1.411568 A    
O30   H27   1.012348 S    
O31   C51   1.407578 S    
O28   C49   1.413627 S    
O8    V2    2.008859 S    
C19   C20   1.344446 D    
C10   C11   1.427481 A    
C16   C50   1.490528 S    
O1    V2    2.030837 S    
C3    C20   1.477129 S    
O11   V4    2.009912 S    
O7    V1    2.163829 S    
C21   C46   1.474961 S    
C1    O6    1.299035 A    
C51   H30   1.105782 S    
C38   H14   1.077454 S    
C34   C35   1.421959 A    
C27   C39   1.392320 A    
C8    C9    1.389469 A    
C5    C17   1.405624 A    
C22   C44   1.493250 S    
C36   C37   1.387519 A    
C23   H8    1.077082 S    
C49   H25   1.113899 S    
C49   H24   1.111079 S    
C25   H9    1.086232 S    
C12   C16   1.418387 A    
C26   H10   1.081317 S    
V4    O20   2.160989 S    
C21   C22   1.364282 D    
O12   C41   1.298105 A    
C45   O21   1.222818 D    
O15   C43   1.292928 A    
C8    H4    1.082604 S    
O16   V4    2.034697 S    
C12   C13   1.413045 A    
C37   H17   1.076984 S    
C35   C36   1.394690 A    
C23   C25   1.492888 S    
C19   C21   1.493953 S    
C33   C40   1.425017 A    
C46   O24   1.393608 S    
C48   O26   1.223480 D    
C27   H13   1.084121 S    
C7    C8    1.386196 A    
O3    C4    1.290232 A    
C22   H7    1.080351 S    
C48   O27   1.396670 S    
O6    V2    2.009439 S    
O19   V4    2.008875 S    
O14   V3    2.014876 S    
O9    V2    2.031928 S    
O11   C42   1.311396 A    
C29   C48   1.486968 S    
C17   C45   1.493483 S    
C23   C24   1.347641 D    
C2    C28   1.464123 S    
O2    V1    2.014872 S    
V3    O20   1.712582 S    
O4    C2    1.297069 A    
C51   H28   1.115688 S    
C7    H2    1.084090 S    
C24   C42   1.490483 S    
C9    H3    1.079037 S    
C29   C30   1.398266 A    
O1    C2    1.292099 A    
C4    C6    1.460840 S    
H1    C14   1.082473 S    
C11   C15   1.418108 A    
O18   C43   1.296489 A    
O5    V1    2.012525 S    
O8    C3    1.294943 A    
C47   H21   1.111381 S    
C31   H15   1.076546 S    
C34   C38   1.417672 A    
C18   C43   1.469178 S    
C20   H6    1.083191 S    
C5    O28   1.386807 S    
C11   C18   1.428883 A    
O4    V1    2.021984 S    
O3    V1    2.025473 S    
V1    O10   1.712655 S    
C28   C38   1.401016 A    
C46   O23   1.222830 D    
O24   H19   1.009932 S    
C50   O30   1.397877 S    
C10   C12   1.430956 A    
O7    V2    1.710873 S    
O25   C47   1.411655 S    
O13   C44   1.304134 A    
O17   V4    1.709669 S    
O22   H18   1.014024 S    
O19   C44   1.297762 A    
C14   C15   1.397778 A    
C41   O16   1.294608 A    
C9    C10   1.415223 A    
O9    C4    1.292288 A    
C6    C17   1.414407 A    
O15   V3    2.025624 S    
C49   H26   1.109485 S    
C51   H29   1.110462 S    
C7    C18   1.398591 A    
C6    C16   1.414563 A    
