data_mof_unit_54895.cif
_audit_creation_date              2012-12-10T17:15:54-0500
_audit_creation_method            fapswitch 2.2
_symmetry_space_group_name_H-M    P1
_symmetry_Int_Tables_number       1
_space_group_crystal_system       triclinic
_cell_length_a                    10.118885
_cell_length_b                    10.685809
_cell_length_c                    10.743657
_cell_angle_alpha                 89.505179
_cell_angle_beta                  95.121896
_cell_angle_gamma                 81.774494
_cell_volume                      1144.88343874

loop_
_atom_site_label
_atom_site_type_symbol
_atom_type_description
_atom_site_fract_x
_atom_site_fract_y
_atom_site_fract_z
_atom_type_partial_charge
C1    C     C_R   0.443932 0.513265 0.266937 0.947588
C2    C     C_2   0.491596 0.560709 0.933575 -0.163158
C3    C     C_2   0.069443 0.493407 0.489569 -0.015415
C4    C     C_R   0.503403 0.260593 0.515689 0.894009
C5    C     C_2   0.924507 0.510888 0.511265 -0.171895
C6    C     C_R   0.556446 0.495274 0.733467 0.900678
C7    C     C_R   0.500117 0.740963 0.493215 0.871058
C8    C     C_R   0.758866 0.080069 0.587112 0.228451
C9    C     C_R   0.875837 0.011149 0.548311 -0.155916
C10   C     C_R   0.868078 0.906829 0.473138 -0.227627
C11   C     C_R   0.745904 0.862079 0.448240 -0.165823
C12   C     C_R   0.631864 0.045500 0.543672 0.092206
C13   C     C_R   0.627759 0.925259 0.494129 0.065377
C14   C     C_3   0.120203 0.633672 0.652776 -0.650394
C15   C     C_3   0.775197 0.178149 0.685170 -0.880600
C16   C     C_3   0.730104 0.459357 0.925268 -0.928648
C17   C     C_R   0.508604 0.127341 0.539960 -0.132728
C18   C     C_R   0.386845 0.079779 0.530630 -0.218996
C19   C     C_R   0.385607 0.953565 0.511950 -0.216208
C20   C     C_R   0.504625 0.875290 0.492434 -0.117109
C21   C     C_2   0.412129 0.536122 0.134307 -0.384524
C22   C     C_2   0.509204 0.564265 0.067723 -0.150665
C23   C     C_2   0.590071 0.507288 0.866808 0.032142
H1    H     H_    0.291739 0.140530 0.532996 0.169010
H2    H     H_    0.391055 0.592633 0.890016 0.158442
H3    H     H_    0.607319 0.576182 0.112095 0.194755
H4    H     H_    0.209328 0.674287 0.692226 0.232287
H5    H     H_    0.042751 0.713614 0.618694 0.187900
H6    H     H_    0.084211 0.579324 0.728395 0.189193
H7    H     H_    0.821322 0.256498 0.646532 0.265250
H8    H     H_    0.842448 0.134475 0.766041 0.222408
H9    H     H_    0.678602 0.216145 0.721428 0.227442
H10   H     H_    0.795487 0.414423 0.855624 0.253945
H11   H     H_    0.776970 0.539183 0.966416 0.241844
H12   H     H_    0.313273 0.525477 0.090779 0.152616
H13   H     H_    0.725758 0.387342 0.999378 0.253916
H14   H     H_    0.884745 0.576813 0.579380 0.192515
H15   H     H_    0.103464 0.428939 0.417699 0.123604
H16   H     H_    0.881057 0.386032 0.384198 0.164574
H17   H     H_    0.973083 0.038309 0.576483 0.138019
H18   H     H_    0.957831 0.857357 0.438212 0.154034
H19   H     H_    0.745372 0.781531 0.388395 0.174606
H20   H     H_    0.290212 0.918264 0.509368 0.169048
N1    N     N_2   0.157290 0.551390 0.551110 -0.045628
N2    N     N_2   0.842740 0.448550 0.448960 -0.213587
O1    O     O_R   0.568950 0.489660 0.307530 -0.606453
O2    O     O_R   0.348880 0.522640 0.340350 -0.613025
O3    O     O_R   0.610060 0.300270 0.483590 -0.597646
O4    O     O_R   0.389990 0.333260 0.516410 -0.620929
O5    O     O_R   0.651120 0.477360 0.659650 -0.612270
O6    O     O_R   0.431050 0.510340 0.692470 -0.626683
O7    O     O_R   0.610010 0.666740 0.483590 -0.628718
O8    O     O_R   0.389940 0.699730 0.516410 -0.613745
Zn1   Zn    Zn3+2 0.646940 0.477980 0.478090 0.923172
Zn2   Zn    Zn3+2 0.353060 0.522020 0.521910 0.938302

loop_
_geom_bond_atom_site_label_1
_geom_bond_atom_site_label_2
_ccdc_geom_bond_type
C12   C17   A    
C2    C22   S    
O3    Zn1   S    
C1    C21   S    
C21   H12   S    
C5    H14   S    
C6    O6    A    
C2    H2    S    
C9    C10   A    
C19   C20   A    
H16   N2    S    
C4    O4    A    
C8    C12   A    
C14   H5    S    
C16   C23   S    
O1    Zn1   S    
C17   C18   A    
C15   H9    S    
C16   H10   S    
C21   C22   D    
C16   H13   S    
C10   H18   S    
C15   H8    S    
C11   C13   A    
N1    Zn2   S    
O5    Zn1   S    
C11   H19   S    
C18   H1    S    
C6    C23   S    
C14   N1    S    
O7    Zn1   S    
C7    O7    A    
C18   C19   A    
C8    C15   S    
O6    Zn2   S    
C3    N1    D    
O8    Zn2   S    
C4    O3    A    
C14   H4    S    
C1    O1    A    
C10   C11   A    
C7    O8    A    
C14   H6    S    
C3    C5    S    
C12   C13   A    
C15   H7    S    
O2    Zn2   S    
C7    C20   S    
C22   H3    S    
C2    C23   D    
C1    O2    A    
C13   C20   A    
C16   H11   S    
O4    Zn2   S    
C5    N2    D    
C9    H17   S    
C6    O5    A    
C3    H15   S    
C19   H20   S    
C8    C9    A    
N2    Zn1   S    
C4    C17   S    
