data_mof_unit_19547.cif
_audit_creation_date              2012-12-10T18:42:30-0500
_audit_creation_method            fapswitch 2.2
_symmetry_space_group_name_H-M    P1
_symmetry_Int_Tables_number       1
_space_group_crystal_system       triclinic
_cell_length_a                    8.59303
_cell_length_b                    10.723719
_cell_length_c                    9.899063
_cell_angle_alpha                 90.515258
_cell_angle_beta                  99.112304
_cell_angle_gamma                 91.129759
_cell_volume                      900.436202634

loop_
_atom_site_label
_atom_site_type_symbol
_atom_type_description
_atom_site_fract_x
_atom_site_fract_y
_atom_site_fract_z
_atom_type_partial_charge
C1    C     C_R   0.499909 0.260033 0.499591 0.870343
C2    C     C_R   0.500092 0.739967 0.500409 0.870344
C3    C     C_R   0.201138 0.499803 0.463892 0.968788
C4    C     C_R   0.798862 0.500195 0.536108 0.968787
C5    C     C_2   0.035601 0.499846 0.444796 -0.366337
C6    C     C_2   0.964399 0.500150 0.555204 -0.366339
C7    C     C_R   0.486672 0.062551 0.375282 -0.170679
C8    C     C_R   0.513332 0.937449 0.624719 -0.170671
C9    C     C_R   0.486548 0.934828 0.375693 -0.155527
C10   C     C_R   0.513456 0.065171 0.624307 -0.155529
C11   C     C_R   0.499906 0.872523 0.500438 -0.034011
C12   C     C_R   0.500097 0.127476 0.499562 -0.034002
C13   C     C_R   0.592700 0.582253 0.087013 -0.051750
C14   C     C_R   0.407296 0.417750 0.912987 -0.051741
C15   C     C_R   0.594072 0.583187 0.943601 0.042223
C16   C     C_R   0.405919 0.416821 0.056397 0.042233
H1    H     H_    0.972848 0.499702 0.340329 0.186366
H2    H     H_    0.027152 0.500294 0.659671 0.186368
H3    H     H_    0.475866 0.109907 0.278137 0.177110
H4    H     H_    0.524138 0.890093 0.721864 0.177142
H5    H     H_    0.475637 0.885385 0.278603 0.176141
H6    H     H_    0.524368 0.114615 0.721397 0.176138
H7    H     H_    0.666564 0.646860 0.154725 0.183011
H8    H     H_    0.333431 0.353143 0.845275 0.183017
N1    N     N_R   0.499960 0.499970 0.857200 -0.150646
N2    N     N_R   0.500040 0.500030 0.142800 -0.150653
O1    O     O_R   0.499990 0.316750 0.614620 -0.623248
O2    O     O_R   0.500010 0.683250 0.385380 -0.623247
O3    O     O_R   0.499990 0.316780 0.385290 -0.654887
O4    O     O_R   0.500010 0.683220 0.614710 -0.654874
O5    O     O_R   0.271750 0.499990 0.587840 -0.609525
O6    O     O_R   0.728250 0.500010 0.412160 -0.609525
O7    O     O_R   0.271750 0.500010 0.358510 -0.649426
O8    O     O_R   0.728250 0.499990 0.641490 -0.649426
Zn1   Zn    Zn3+2 0.500000 0.499980 0.653120 0.940961
Zn2   Zn    Zn3+2 0.500000 0.500020 0.346880 0.940956
C17   C     C_2   0.700023 0.675035 0.890875 0.371752
H9    H     H_    0.721943 0.671273 0.787304 0.141246
O9    O     O_2   0.767023 0.757946 0.964869 -0.591961
C18   C     C_2   0.299944 0.324994 0.109122 0.371841
H10   H     H_    0.278068 0.328713 0.212692 0.141277
O10   O     O_2   0.232867 0.242159 0.035125 -0.592043

loop_
_geom_bond_atom_site_label_1
_geom_bond_atom_site_label_2
_ccdc_geom_bond_type
C17   H9    S    
C4    O8    A    
C7    H3    S    
C2    O4    A    
C1    O3    A    
C17   O9    D    
C8    H4    S    
C10   H6    S    
C3    O5    A    
C9    C11   A    
O3    Zn2   S    
C9    H5    S    
C4    O6    A    
C1    C12   S    
C10   C12   A    
O4    Zn1   S    
N1    Zn1   S    
C8    C11   A    
C5    C6    D    
C2    C11   S    
O6    Zn2   S    
C18   O10   D    
C18   H10   S    
C13   H7    S    
C16   C18   S    
O5    Zn1   S    
C13   C15   A    
C14   N1    A    
C16   N2    A    
C7    C12   A    
C6    H2    S    
C14   C16   A    
C13   N2    A    
C15   N1    A    
C5    H1    S    
C3    O7    A    
C14   H8    S    
C7    C9    A    
O7    Zn2   S    
O2    Zn2   S    
C4    C6    S    
O8    Zn1   S    
N2    Zn2   S    
C1    O1    A    
C15   C17   S    
C2    O2    A    
O1    Zn1   S    
C8    C10   A    
C3    C5    S    
