data_mof_unit_53726.cif
_audit_creation_date              2012-12-11T15:17:39-0500
_audit_creation_method            fapswitch 2.2
_symmetry_space_group_name_H-M    P1
_symmetry_Int_Tables_number       1
_space_group_crystal_system       triclinic
_cell_length_a                    15.716387
_cell_length_b                    15.73708
_cell_length_c                    34.385808
_cell_angle_alpha                 89.664113
_cell_angle_beta                  90.230697
_cell_angle_gamma                 119.731611
_cell_volume                      7384.9422244

loop_
_atom_site_label
_atom_site_type_symbol
_atom_type_description
_atom_site_fract_x
_atom_site_fract_y
_atom_site_fract_z
_atom_type_partial_charge
C1    C     C_R   0.578225 0.441427 0.554802 0.554555
C2    C     C_R   0.558790 0.137017 0.555118 0.553721
C3    C     C_R   0.863482 0.421592 0.554798 0.555018
C4    C     C_R   0.441592 0.578228 0.054858 0.557663
C5    C     C_R   0.136860 0.558517 0.054882 0.558763
C6    C     C_R   0.421686 0.863063 0.054892 0.570045
C7    C     C_R   0.021135 0.512092 0.707213 0.364780
C8    C     C_R   0.487247 0.509609 0.706865 0.364082
C9    C     C_R   0.461754 0.916039 0.697444 0.362978
C10   C     C_R   0.502670 0.000317 0.210176 0.362587
C11   C     C_R   0.499465 0.495791 0.209941 0.362844
C12   C     C_R   0.998395 0.501493 0.210055 0.362617
C13   C     C_R   0.024936 0.442853 0.849865 -0.112916
C14   C     C_R   0.556969 0.586375 0.849157 -0.118334
C15   C     C_R   0.343448 0.846047 0.835879 -0.111822
C16   C     C_R   0.436808 0.012364 0.352205 -0.112200
C17   C     C_R   0.574587 0.563650 0.351982 -0.112469
C18   C     C_R   0.989029 0.425548 0.352447 -0.112378
C19   C     C_R   0.048858 0.451349 0.889195 -0.125316
C20   C     C_R   0.548596 0.600917 0.888530 -0.132942
C21   C     C_R   0.335095 0.835688 0.876122 -0.126383
C22   C     C_R   0.447758 0.042478 0.390784 -0.126650
C23   C     C_R   0.593865 0.552717 0.390668 -0.126968
C24   C     C_R   0.958962 0.406376 0.391077 -0.126673
C25   C     C_R   0.086415 0.620394 0.887883 -0.132801
C26   C     C_R   0.380041 0.469086 0.887728 -0.126071
C27   C     C_R   0.481119 0.820830 0.878572 -0.129430
C28   C     C_R   0.616946 0.079604 0.389655 -0.126757
C29   C     C_R   0.461971 0.384272 0.389755 -0.126904
C30   C     C_R   0.919755 0.537147 0.389305 -0.126755
C31   C     C_R   0.063501 0.612257 0.848385 -0.116782
C32   C     C_R   0.388279 0.454806 0.848267 -0.112772
C33   C     C_R   0.489862 0.831750 0.838081 -0.111606
C34   C     C_R   0.606202 0.050122 0.350976 -0.112796
C35   C     C_R   0.443122 0.394993 0.350976 -0.112957
C36   C     C_R   0.949178 0.555883 0.350567 -0.112712
C37   C     C_R   0.036661 0.524584 0.828680 0.036598
C38   C     C_R   0.475585 0.516063 0.828284 0.034917
C39   C     C_R   0.421625 0.845671 0.816365 0.037238
C40   C     C_R   0.517340 0.020563 0.331408 0.035468
C41   C     C_R   0.502476 0.483325 0.331252 0.035666
C42   C     C_R   0.979654 0.497147 0.331302 0.035536
C43   C     C_R   0.084351 0.541526 0.908036 0.024983
C44   C     C_R   0.458788 0.545288 0.907713 0.023177
C45   C     C_R   0.404542 0.824549 0.898037 0.018890
C46   C     C_R   0.539192 0.080648 0.409201 0.022686
C47   C     C_R   0.540918 0.461524 0.409206 0.022468
C48   C     C_R   0.919692 0.458917 0.409189 0.022809
C49   C     C_R   0.577868 0.442309 0.445542 0.553016
C50   C     C_R   0.557883 0.135793 0.445539 0.554089
C51   C     C_R   0.864289 0.422139 0.445541 0.553800
C52   C     C_R   0.441898 0.578524 0.945267 0.542498
C53   C     C_R   0.136024 0.558257 0.945355 0.544965
C54   C     C_R   0.391967 0.810084 0.940584 0.564747
C55   C     C_R   0.924022 0.458799 0.589988 -0.003878
C56   C     C_R   0.540580 0.464008 0.589976 -0.003196
C57   C     C_R   0.533216 0.069906 0.588653 -0.004370
C58   C     C_R   0.457097 0.919421 0.091012 -0.003742
C59   C     C_R   0.463357 0.542054 0.090833 -0.003949
C60   C     C_R   0.079923 0.537082 0.090933 -0.003887
C61   C     C_R   0.971518 0.410717 0.605483 -0.105277
C62   C     C_R   0.586019 0.559700 0.604516 -0.105025
C63   C     C_R   0.434767 0.005755 0.597969 -0.104001
C64   C     C_R   0.406779 0.963292 0.107317 -0.104155
C65   C     C_R   0.557389 0.591909 0.107227 -0.105221
C66   C     C_R   0.037096 0.443359 0.107614 -0.105072
C67   C     C_R   0.012720 0.433548 0.642649 0.098863
C68   C     C_R   0.563062 0.578250 0.641557 0.098288
C69   C     C_R   0.409505 0.948543 0.631788 0.099742
C70   C     C_R   0.426064 0.998016 0.145419 0.096561
C71   C     C_R   0.573303 0.571973 0.145311 0.096576
C72   C     C_R   0.001989 0.427721 0.145703 0.096681
C73   C     C_R   0.004614 0.504275 0.664981 0.046028
C74   C     C_R   0.495070 0.499530 0.664765 0.043411
C75   C     C_R   0.483888 0.957535 0.657621 0.042096
C76   C     C_R   0.495790 0.987336 0.167802 0.041499
C77   C     C_R   0.493540 0.502104 0.167528 0.041961
C78   C     C_R   0.011187 0.507447 0.167668 0.041740
C79   C     C_R   0.966231 0.559123 0.647720 -0.119026
C80   C     C_R   0.442882 0.405701 0.648523 -0.126168
C81   C     C_R   0.582454 0.017180 0.646779 -0.124443
C82   C     C_R   0.552707 0.952512 0.150020 -0.125236
C83   C     C_R   0.402184 0.445286 0.149576 -0.125083
C84   C     C_R   0.044734 0.598576 0.149469 -0.125196
C85   C     C_R   0.926365 0.536691 0.610505 -0.128030
C86   C     C_R   0.465278 0.388077 0.611405 -0.132120
C87   C     C_R   0.606876 0.072447 0.612570 -0.132715
C88   C     C_R   0.533652 0.918934 0.111911 -0.130672
C89   C     C_R   0.387181 0.464978 0.111495 -0.130556
C90   C     C_R   0.078730 0.613305 0.111388 -0.130783
C91   C     C_R   0.028078 0.519984 0.785983 0.340853
C92   C     C_R   0.480013 0.511525 0.785612 0.340482
C93   C     C_R   0.433571 0.864955 0.773970 0.343915
C94   C     C_R   0.511339 0.007974 0.288910 0.342356
C95   C     C_R   0.496603 0.488640 0.288690 0.342344
C96   C     C_R   0.991762 0.503371 0.288777 0.342281
Cr1   Cr    Cr6+3 0.522350 0.263930 0.500020 1.030509
Cr2   Cr    Cr6+3 0.736070 0.258420 0.500020 1.032226
Cr3   Cr    Cr6+3 0.741580 0.477650 0.500020 1.030750
Cr4   Cr    Cr6+3 0.263930 0.522350 0.000020 1.023413
Cr5   Cr    Cr6+3 0.258420 0.736070 0.000020 1.023373
Cr6   Cr    Cr6+3 0.477650 0.741580 0.000020 1.028688
H1    H     H_    0.973566 0.352900 0.589315 0.152527
H2    H     H_    0.641760 0.619698 0.587635 0.152294
H3    H     H_    0.377141 0.000434 0.579001 0.151627
H4    H     H_    0.349630 0.967088 0.091017 0.154310
H5    H     H_    0.617738 0.649304 0.091058 0.153160
H6    H     H_    0.034517 0.382997 0.091649 0.153360
H7    H     H_    0.891409 0.575961 0.598961 0.147617
H8    H     H_    0.428206 0.313701 0.600638 0.147051
H9    H     H_    0.683474 0.120835 0.605839 0.144777
H10   H     H_    0.574312 0.886328 0.099852 0.147773
H11   H     H_    0.314113 0.424514 0.099318 0.147884
H12   H     H_    0.110383 0.686167 0.099016 0.147616
H13   H     H_    0.045635 0.389075 0.904177 0.135749
H14   H     H_    0.610623 0.659855 0.903303 0.134741
H15   H     H_    0.274037 0.836767 0.890087 0.128709
H16   H     H_    0.386357 0.041571 0.405376 0.134634
H17   H     H_    0.654359 0.613779 0.405222 0.134594
H18   H     H_    0.960678 0.346366 0.405951 0.134470
H19   H     H_    0.960207 0.614559 0.664056 0.158807
H20   H     H_    0.389596 0.344250 0.665557 0.155619
H21   H     H_    0.641106 0.025238 0.665788 0.158111
H22   H     H_    0.607429 0.944687 0.166436 0.158429
H23   H     H_    0.340158 0.390409 0.165871 0.158858
H24   H     H_    0.051378 0.660583 0.165552 0.158659
H25   H     H_    0.002784 0.373720 0.835667 0.146568
H26   H     H_    0.625763 0.633845 0.834720 0.145262
H27   H     H_    0.288952 0.855676 0.820167 0.146175
H28   H     H_    0.366895 0.988473 0.338088 0.146654
H29   H     H_    0.620554 0.633197 0.337724 0.146607
H30   H     H_    0.013686 0.380006 0.338567 0.146481
H31   H     H_    0.112400 0.690443 0.901880 0.121970
H32   H     H_    0.309892 0.424959 0.901814 0.135224
H33   H     H_    0.534254 0.809669 0.894606 0.137356
H34   H     H_    0.688140 0.108071 0.403284 0.134273
H35   H     H_    0.419362 0.313333 0.403512 0.134293
H36   H     H_    0.890439 0.579314 0.402705 0.134293
H37   H     H_    0.071426 0.675994 0.832978 0.139161
H38   H     H_    0.324770 0.398918 0.833093 0.145937
H39   H     H_    0.550480 0.830243 0.823896 0.146140
H40   H     H_    0.669059 0.055530 0.335886 0.145894
H41   H     H_    0.385751 0.332390 0.335922 0.145754
H42   H     H_    0.942899 0.612792 0.335196 0.146021
N1    N     N_R   0.999463 0.434358 0.767270 -0.214865
N2    N     N_R   0.564799 0.569928 0.766466 -0.215451
N3    N     N_R   0.369871 0.884061 0.754294 -0.208404
N4    N     N_R   0.424964 0.977098 0.270110 -0.213621
N5    N     N_R   0.551982 0.574511 0.269684 -0.213900
N6    N     N_R   0.023452 0.448374 0.270264 -0.213928
N7    N     N_R   0.995234 0.430377 0.728693 -0.177169
N8    N     N_R   0.568489 0.568321 0.727901 -0.175028
N9    N     N_R   0.383969 0.909523 0.716958 -0.170042
N10   N     N_R   0.420621 0.972502 0.231530 -0.174843
N11   N     N_R   0.552595 0.578119 0.231077 -0.175150
N12   N     N_R   0.027559 0.448216 0.231683 -0.174991
N13   N     N_R   0.049217 0.597818 0.725859 -0.197151
N14   N     N_R   0.402398 0.450733 0.725957 -0.201962
N15   N     N_R   0.525356 0.896210 0.716978 -0.197972
N16   N     N_R   0.588928 0.029832 0.228922 -0.202578
N17   N     N_R   0.442915 0.410025 0.228880 -0.202704
N18   N     N_R   0.968021 0.557705 0.228507 -0.202166
N19   N     N_R   0.053386 0.601836 0.764520 -0.215161
N20   N     N_R   0.398684 0.452244 0.764589 -0.213594
N21   N     N_R   0.511371 0.870836 0.754464 -0.207425
N22   N     N_R   0.593292 0.034308 0.267556 -0.211991
N23   N     N_R   0.442152 0.406399 0.267538 -0.212161
N24   N     N_R   0.964036 0.558008 0.267141 -0.211644
O1    O     O_R   0.498680 0.159540 0.541860 -0.515811
O2    O     O_R   0.840460 0.339140 0.541860 -0.517299
O3    O     O_R   0.660860 0.501320 0.541860 -0.516683
O4    O     O_R   0.159540 0.498680 0.041860 -0.513962
O5    O     O_R   0.339140 0.840460 0.041860 -0.510493
O6    O     O_R   0.501320 0.660860 0.041860 -0.514992
O7    O     O_R   0.532760 0.358060 0.540030 -0.502842
O8    O     O_R   0.641940 0.174700 0.540030 -0.500332
O9    O     O_R   0.825300 0.467240 0.540030 -0.501976
O10   O     O_R   0.358060 0.532760 0.040030 -0.499283
O11   O     O_R   0.174700 0.641940 0.040030 -0.501596
O12   O     O_R   0.467240 0.825300 0.040030 -0.495708
O13   O     O_R   0.498590 0.161190 0.456930 -0.519663
O14   O     O_R   0.838810 0.337400 0.456930 -0.519821
O15   O     O_R   0.662600 0.501410 0.456930 -0.519494
O16   O     O_R   0.161190 0.498590 0.956930 -0.518492
O17   O     O_R   0.337400 0.838810 0.956930 -0.510503
O18   O     O_R   0.501410 0.662600 0.956930 -0.533067
O19   O     O_R   0.532680 0.359580 0.461300 -0.502881
O20   O     O_R   0.640420 0.173100 0.461300 -0.502680
O21   O     O_R   0.826900 0.467320 0.461300 -0.502289
O22   O     O_R   0.359580 0.532680 0.961300 -0.503987
O23   O     O_R   0.173100 0.640420 0.961300 -0.522807
O24   O     O_R   0.467320 0.826900 0.961300 -0.492544
O25   O     O_3   0.666667 0.333333 0.499990 -0.246044
O26   O     O_3   0.333333 0.666667 0.999990 -0.272726
I1    I     I_    0.086197 0.358587 0.662367 -0.285121
I2    I     I_    0.633120 0.726761 0.659670 -0.283965
I3    I     I_    0.257771 0.848009 0.640092 -0.298379
I4    I     I_    0.347405 0.066077 0.166297 -0.282715
I5    I     I_    0.719529 0.650180 0.166532 -0.283873
I6    I     I_    0.935809 0.281809 0.167235 -0.282155

loop_
_geom_bond_atom_site_label_1
_geom_bond_atom_site_label_2
_ccdc_geom_bond_type
C25   C31   A    
C26   C32   A    
C30   H36   S    
C17   H29   S    
Cr6   O12   S    
C6    C58   S    
C18   H30   S    
C71   C77   A    
C51   O14   A    
C8    N14   A    
C25   C43   A    
C2    C57   S    
C14   H26   S    
C7    C73   S    
C80   H20   S    
C27   C33   A    
C79   H19   S    
C28   C46   A    
C17   C23   A    
N4    N10   A    
C29   C47   A    
C18   C24   A    
C30   C48   A    
C61   H1    S    
C1    C56   S    
C83   H23   S    
Cr3   O9    S    
C85   H7    S    
C18   C42   A    
C23   H17   S    
C67   I1    S    
C55   C85   A    
Cr5   O17   S    
Cr3   O3    S    
C27   C45   A    
C9    N15   A    
C68   C74   A    
C38   C92   S    
C11   N17   A    
Cr1   O1    S    
N17   N23   A    
Cr1   O19   S    
C59   C89   A    
Cr1   O25   S    
C39   C93   S    
C1    O7    A    
C21   H15   S    
C11   C77   S    
C2    O8    A    
C49   O15   A    
Cr5   O5    S    
C43   C53   S    
C48   C51   S    
C5    O11   A    
C63   C69   A    
C54   O17   A    
C12   C78   S    
Cr4   O16   S    
C80   C86   A    
C96   N24   A    
C93   N3    A    
C95   N5    A    
C32   C38   A    
C63   H3    S    
C25   H31   S    
N13   N19   A    
C13   C37   A    
C51   O21   A    
C11   N11   A    
C6    O12   A    
C71   I5    S    
C44   C52   S    
C12   N18   A    
C93   N21   A    
C70   I4    S    
C74   C80   A    
Cr4   O4    S    
C69   I3    S    
C94   N22   A    
C84   C90   A    
C12   N12   A    
N3    N9    A    
Cr6   O26   S    
C82   H22   S    
C20   C44   A    
C19   C43   A    
C46   C50   S    
C57   C63   A    
C21   C45   A    
C36   C42   A    
C58   C64   A    
C83   C89   A    
C66   C72   A    
C24   H18   S    
C23   C47   A    
C37   C91   S    
C26   C44   A    
Cr3   O15   S    
C24   C48   A    
C14   C20   A    
C60   C90   A    
C47   C49   S    
C53   O16   A    
C76   C82   A    
Cr1   O7    S    
C20   H14   S    
C13   C19   A    
C75   C81   A    
C52   O22   A    
C91   N19   A    
C94   N4    A    
C33   H39   S    
C65   C71   A    
C92   N2    A    
C1    O3    A    
C62   H2    S    
N15   N21   A    
Cr2   O25   S    
C58   C88   A    
C88   H10   S    
Cr2   O14   S    
C30   C36   A    
Cr6   O18   S    
C26   H32   S    
C13   H25   S    
C57   C87   A    
Cr5   O11   S    
C72   I6    S    
Cr2   O8    S    
C61   C67   A    
C56   C86   A    
N16   N22   A    
C15   H27   S    
C89   H11   S    
C19   H13   S    
C66   H6    S    
C96   N6    A    
C8    C74   S    
C73   C79   A    
C49   O19   A    
C68   I2    S    
C33   C39   A    
Cr1   O13   S    
C53   O23   A    
C15   C39   A    
N1    N7    A    
C54   O24   A    
C16   C40   A    
C60   C66   A    
C7    N7    A    
C67   C73   A    
C22   C46   A    
C81   H21   S    
C45   C54   S    
N6    N12   A    
C64   C70   A    
C70   C76   A    
C9    N9    A    
N18   N24   A    
Cr4   O26   S    
C50   O13   A    
C31   H37   S    
C14   C38   A    
C52   O18   A    
C10   N16   A    
C40   C94   S    
C91   N1    A    
C16   H28   S    
Cr5   O26   S    
C64   H4    S    
Cr3   O21   S    
C22   H16   S    
C29   C35   A    
N5    N11   A    
C34   H40   S    
C16   C22   A    
C5    C60   S    
C86   H8    S    
C28   H34   S    
C10   C76   S    
Cr4   O10   S    
Cr4   O22   S    
C77   C83   A    
C4    O10   A    
Cr5   O23   S    
C95   N23   A    
C50   O20   A    
C3    O2    A    
C32   H38   S    
C7    N13   A    
C6    O5    A    
N14   N20   A    
Cr6   O6    S    
C29   H35   S    
Cr3   O25   S    
C3    C55   S    
C62   C68   A    
C42   C96   S    
C27   H33   S    
C84   H24   S    
C3    O9    A    
C59   C65   A    
C10   N10   A    
C81   C87   A    
C92   N20   A    
C41   C95   S    
C8    N8    A    
N2    N8    A    
C82   C88   A    
C55   C61   A    
C4    C59   S    
C79   C85   A    
C69   C75   A    
C56   C62   A    
Cr6   O24   S    
C90   H12   S    
C36   H42   S    
C35   C41   A    
C17   C41   A    
C78   C84   A    
C2    O1    A    
C28   C34   A    
Cr2   O2    S    
C31   C37   A    
C15   C21   A    
C87   H9    S    
C72   C78   A    
C5    O4    A    
C34   C40   A    
C4    O6    A    
C9    C75   S    
Cr2   O20   S    
C65   H5    S    
C35   H41   S    
