data_mof_unit_44463.cif
_audit_creation_date              2012-12-11T16:33:29-0500
_audit_creation_method            fapswitch 2.2
_symmetry_space_group_name_H-M    P1
_symmetry_Int_Tables_number       1
_space_group_crystal_system       triclinic
_cell_length_a                    6.955682
_cell_length_b                    18.171008
_cell_length_c                    20.22539
_cell_angle_alpha                 68.360181
_cell_angle_beta                  90.590641
_cell_angle_gamma                 90.939893
_cell_volume                      2375.80932611

loop_
_atom_site_label
_atom_site_type_symbol
_atom_type_description
_atom_site_fract_x
_atom_site_fract_y
_atom_site_fract_z
_atom_type_partial_charge
O1    O     O_R   0.488960 0.443750 0.941980 -0.532603
O2    O     O_R   0.823890 0.406510 0.087590 -0.540723
O3    O     O_R   0.999680 0.556250 0.058020 -0.534589
C1    C     C_R   0.655094 0.383306 0.114845 0.683266
O4    O     O_R   0.818360 0.434410 0.944340 -0.536607
O5    O     O_R   0.994110 0.584350 0.913750 -0.532694
C2    C     C_R   0.648552 0.420099 0.924134 0.715214
O6    O     O_R   0.494530 0.415650 0.086250 -0.536945
O7    O     O_3   0.662590 0.549160 0.990130 -0.366360
V1    V     V_3+5 0.935320 0.490880 0.001830 1.457571
O8    O     O_R   0.324180 0.593490 0.912410 -0.540628
C3    C     C_R   0.155964 0.617350 0.885595 0.687792
O9    O     O_R   0.329720 0.565590 0.055660 -0.541127
C4    C     C_R   0.162232 0.580036 0.075921 0.719973
V2    V     V_3+5 0.435990 0.509120 0.998170 1.450327
O10   O     O_3   0.158850 0.450840 0.009870 -0.365012
C5    C     C_3   0.077854 0.707023 0.311656 -0.128348
C6    C     C_3   0.260270 0.695441 0.273323 -0.155192
H1    H     H_    0.364380 0.646631 0.295399 0.109470
H2    H     H_    0.031232 0.668210 0.365816 0.129574
H3    H     H_    0.453464 0.810394 0.253665 0.136544
C7    C     C_1   0.156076 0.626836 0.120647 -0.146478
C8    C     C_1   0.111061 0.878686 0.374579 -0.091812
C9    C     C_3   0.959375 0.723765 0.242392 -0.137854
C10   C     C_3   0.141714 0.712763 0.204645 0.161132
C11   C     C_3   0.008174 0.813309 0.219309 -0.121277
C12   C     C_3   0.126771 0.795945 0.287973 0.150164
C13   C     C_3   0.190639 0.801709 0.180925 -0.107548
C14   C     C_3   0.309123 0.784974 0.250238 -0.152478
C15   C     C_1   0.149949 0.665695 0.158331 -0.007661
C16   C     C_1   0.118137 0.841847 0.335222 -0.000149
H4    H     H_    0.237228 0.840580 0.126783 0.142127
H5    H     H_    0.904062 0.862131 0.197300 0.125172
H6    H     H_    0.814962 0.698394 0.239003 0.114439
H7    H     H_    0.304097 0.524956 0.694276 0.122995
C17   C     C_R   0.098072 0.779304 0.875652 -0.140611
C18   C     C_R   0.073053 0.856726 0.873619 -0.015199
C19   C     C_R   0.058794 0.919735 0.806891 -0.039604
C20   C     C_R   0.075062 0.903714 0.744506 -0.191690
C21   C     C_R   0.101277 0.826203 0.745996 0.052419
C22   C     C_R   0.113736 0.762893 0.812925 0.034058
C23   C     C_R   0.110830 0.811270 0.681825 -0.139349
C24   C     C_R   0.130538 0.731629 0.685516 0.021567
C25   C     C_R   0.173638 0.671196 0.752403 0.065384
C26   C     C_R   0.149459 0.685086 0.816162 -0.157693
C27   C     C_R   0.109707 0.708624 0.625364 -0.024671
C28   C     C_R   0.184974 0.636224 0.628405 -0.133686
C29   C     C_R   0.252399 0.581700 0.692107 -0.139923
C30   C     C_R   0.237344 0.597005 0.754189 -0.137897
H8    H     H_    0.111285 0.731898 0.927076 0.136174
H9    H     H_    0.062054 0.952879 0.694230 0.145378
H10   H     H_    0.176931 0.618656 0.582740 0.148388
H11   H     H_    0.279032 0.550427 0.803337 0.118205
C31   C     C_R   0.669646 0.091788 0.245862 -0.020040
C32   C     C_R   0.734400 0.084400 0.183141 -0.104550
C33   C     C_R   0.767440 0.150503 0.122403 -0.154704
C34   C     C_R   0.734175 0.225426 0.122437 -0.129210
C35   C     C_R   0.678142 0.236618 0.185039 0.072060
C36   C     C_R   0.653400 0.169105 0.249542 -0.010346
C37   C     C_R   0.645051 0.314151 0.183288 -0.167155
C38   C     C_R   0.604596 0.325938 0.247002 0.070275
C39   C     C_R   0.596782 0.260351 0.312635 0.041699
C40   C     C_R   0.617751 0.181959 0.314219 -0.175102
C41   C     C_R   0.578697 0.403037 0.246922 -0.140831
C42   C     C_R   0.551643 0.415630 0.309980 -0.218439
C43   C     C_R   0.550999 0.352107 0.375014 0.029990
C44   C     C_R   0.571336 0.274989 0.376169 -0.117287
H12   H     H_    0.750505 0.026573 0.179928 0.143210
H13   H     H_    0.812657 0.143485 0.074017 0.135333
H14   H     H_    0.755022 0.274527 0.072587 0.110861
H15   H     H_    0.582720 0.454811 0.198287 0.112030
H16   H     H_    0.535018 0.475613 0.307984 0.106360
H17   H     H_    0.569159 0.226795 0.427354 0.134735
O11   O     O_R   0.770540 0.084530 0.414050 -0.534886
O12   O     O_R   0.445710 0.065660 0.555720 -0.528652
O13   O     O_R   0.270420 0.915650 0.586190 -0.538108
C45   C     C_R   0.614992 0.079349 0.576672 0.715758
O14   O     O_R   0.441140 0.093540 0.412470 -0.550163
O15   O     O_R   0.265820 0.943740 0.441930 -0.549850
C46   C     C_R   0.609641 0.115137 0.384172 0.659242
O16   O     O_R   0.775150 0.056440 0.558310 -0.540061
O17   O     O_3   0.602370 0.950960 0.510050 -0.351064
V3    V     V_3+5 0.329450 0.009140 0.498150 1.491234
O18   O     O_R   0.935790 0.934280 0.444060 -0.514575
C47   C     C_R   0.103476 0.922077 0.422144 0.729794
O19   O     O_R   0.940370 0.906390 0.587310 -0.517188
C48   C     C_R   0.108409 0.879706 0.612255 0.699601
V4    V     V_3+5 0.828810 0.990710 0.501460 1.544876
O20   O     O_3   0.105780 0.049100 0.489960 -0.372397
C49   C     C_3   0.652967 0.324774 0.713543 -0.206665
C50   C     C_3   0.483454 0.272935 0.704520 -0.013871
H18   H     H_    0.676770 0.388528 0.681391 0.125710
C51   C     C_1   0.623669 0.123862 0.623158 -0.087053
C52   C     C_1   0.637218 0.373685 0.879389 -0.158785
C53   C     C_3   0.793803 0.257028 0.719377 -0.138800
C54   C     C_3   0.623194 0.206221 0.710010 0.135487
C55   C     C_3   0.764096 0.221446 0.801244 -0.122916
C56   C     C_3   0.624203 0.288623 0.794942 0.135628
C57   C     C_3   0.593999 0.170047 0.791375 -0.202024
C58   C     C_3   0.455708 0.237853 0.785588 -0.031420
C59   C     C_1   0.625252 0.160793 0.662414 0.095634
C60   C     C_1   0.630179 0.335166 0.841543 0.039874
H19   H     H_    0.568752 0.106352 0.823388 0.162561
H20   H     H_    0.871971 0.199078 0.844277 0.159852
H21   H     H_    0.933954 0.264685 0.691989 0.137969
C61   C     C_2   0.021051 0.002944 0.798970 0.690752
O21   O     O_2   0.921003 0.017393 0.841917 -0.584589
O22   O     O_R   0.093113 0.065163 0.739784 -0.661104
H22   H     H_    0.051991 0.118969 0.738283 0.292649
C62   C     C_2   0.969410 0.745304 0.567324 0.706205
O23   O     O_2   0.820857 0.772903 0.579535 -0.539278
O24   O     O_R   0.993931 0.738453 0.501364 -0.682577
H23   H     H_    0.879007 0.758336 0.468709 0.297959
C63   C     C_2   0.532001 0.367442 0.441512 0.404429
H24   H     H_    0.505107 0.427003 0.439274 0.029839
O25   O     O_2   0.548825 0.314177 0.499504 -0.511399
C64   C     C_2   0.599987 0.017565 0.301668 0.333129
H25   H     H_    0.470901 0.017450 0.330903 0.057832
O26   O     O_2   0.680904 0.954906 0.312981 -0.543523
C65   C     C_2   0.322302 0.303585 0.652425 0.390739
H26   H     H_    0.247607 0.356455 0.649990 0.025400
O27   O     O_2   0.272510 0.269055 0.613435 -0.498316
C66   C     C_2   0.268085 0.223106 0.823517 0.323265
H27   H     H_    0.174767 0.176247 0.820524 0.054537
O28   O     O_2   0.221620 0.262021 0.858556 -0.531144
C67   C     C_2   0.073800 0.870453 0.941696 0.377444
H28   H     H_    0.101031 0.928970 0.942524 0.087110
O29   O     O_2   0.046894 0.815866 0.998347 -0.543913

loop_
_geom_bond_atom_site_label_1
_geom_bond_atom_site_label_2
_ccdc_geom_bond_type
C25   C30   A    
C57   H19   S    
C32   C33   A    
C30   H11   S    
C67   H28   S    
C12   C14   S    
C20   H9    S    
C53   C54   S    
C1    O6    A    
C63   H24   S    
C49   C50   S    
C66   H27   S    
C33   C34   A    
C10   C13   S    
C13   H4    S    
C13   C14   S    
C11   C12   S    
C18   C19   A    
C39   C44   A    
C17   C18   A    
C9    C11   S    
C64   O26   D    
O5    C3    A    
C19   C20   A    
O19   V4    S    
C66   O28   D    
C61   O21   D    
C35   C37   A    
V2    O10   S    
C54   C57   S    
C5    H2    S    
O22   H22   S    
C6    H1    S    
C41   H15   S    
C62   O23   D    
C53   H21   S    
C50   C54   S    
C31   C32   A    
O8    V2    S    
O14   V3    S    
C28   C29   A    
C44   H17   S    
C34   H14   S    
C43   C63   S    
O7    V1    S    
C31   C36   A    
C21   C23   A    
C43   C44   A    
O11   C46   A    
O9    C4    A    
C17   C22   A    
C6    C10   S    
H7    C29   S    
O13   V3    S    
O24   H23   S    
C55   C57   S    
C65   O27   D    
C55   C56   S    
C40   C46   S    
V3    O20   S    
C5    C9    S    
C12   C16   S    
C5    C12   S    
C49   C53   S    
O18   C47   A    
C51   C59   T    
C20   C21   A    
O4    C2    A    
C32   H12   S    
O19   C48   A    
C35   C36   A    
C56   C60   S    
H3    C14   S    
O17   V3    S    
C9    H6    S    
C37   C38   A    
C8    C16   T    
C19   C61   S    
C38   C41   A    
O2    C1    A    
C24   C25   A    
C39   C40   A    
C11   H5    S    
C49   H18   S    
C57   C58   S    
C45   O16   A    
C1    C37   S    
C5    C6    S    
C6    C14   S    
C9    C10   S    
O12   C45   A    
O13   C48   A    
O3    C4    A    
O1    V2    S    
C29   C30   A    
C42   C43   A    
O6    V2    S    
C56   C58   S    
O9    V2    S    
C50   C58   S    
C23   C24   A    
O2    V1    S    
O15   C47   A    
C17   H8    S    
C65   H26   S    
C18   C67   S    
C10   C15   S    
C2    C52   S    
C27   C28   A    
C21   C22   A    
C67   O29   D    
C7    C15   T    
O1    C2    A    
C11   C13   S    
C25   C26   A    
O18   V4    S    
C3    C26   S    
O5    V1    S    
C63   O25   D    
O8    C3    A    
C53   C55   S    
C28   H10   S    
C42   H16   S    
C36   C40   A    
C55   H20   S    
C58   C66   S    
C41   C42   A    
C4    C7    S    
C27   C62   S    
O7    V2    S    
O4    V1    S    
O3    V1    S    
V1    O10   S    
C64   H25   S    
O15   V3    S    
O12   V3    S    
C34   C35   A    
C61   O22   S    
O17   V4    S    
C45   C51   S    
O14   C46   A    
C38   C39   A    
C24   C27   A    
C62   O24   S    
O16   V4    S    
V4    O20   S    
C52   C60   T    
C33   H13   S    
C8    C47   S    
C31   C64   S    
C22   C26   A    
C50   C65   S    
C23   C48   S    
O11   V4    S    
C54   C59   S    
C49   C56   S    
