data_mof_unit_22035.cif
_audit_creation_date              2012-12-10T17:46:23-0500
_audit_creation_method            fapswitch 2.2
_symmetry_space_group_name_H-M    P1
_symmetry_Int_Tables_number       1
_space_group_crystal_system       triclinic
_cell_length_a                    20.749773
_cell_length_b                    21.320224
_cell_length_c                    14.682386
_cell_angle_alpha                 89.594064
_cell_angle_beta                  127.450302
_cell_angle_gamma                 90.372699
_cell_volume                      5156.37671528

loop_
_atom_site_label
_atom_site_type_symbol
_atom_type_description
_atom_site_fract_x
_atom_site_fract_y
_atom_site_fract_z
_atom_type_partial_charge
C1    C     C_R   0.601315 0.912555 0.630091 0.835773
C2    C     C_R   0.393216 0.082782 0.363295 0.824133
C3    C     C_R   0.396926 0.914100 0.367824 0.826791
C4    C     C_R   0.603910 0.085127 0.632953 0.841851
C5    C     C_R   0.099752 0.410472 0.628897 0.839763
C6    C     C_R   0.900263 0.588390 0.372415 0.821224
C7    C     C_R   0.897414 0.413796 0.368584 0.853221
C8    C     C_R   0.102594 0.586227 0.631112 0.818304
C9    C     C_R   0.344937 0.663142 0.059673 0.136402
C10   C     C_R   0.666013 0.344864 0.930022 0.144968
C11   C     C_R   0.648447 0.677733 0.967908 0.137372
C12   C     C_R   0.309853 0.202833 0.899781 0.146161
C13   C     C_R   0.845405 0.153451 0.072147 0.142098
C14   C     C_R   0.146624 0.840453 0.934948 0.139513
C15   C     C_R   0.113163 0.212312 0.995170 0.138215
C16   C     C_R   0.865344 0.826058 0.037942 0.135714
C17   C     C_R   0.322441 0.997661 0.666241 -0.329311
C18   C     C_R   0.678224 0.997912 0.334744 -0.333966
C19   C     C_R   0.822401 0.504115 0.666343 -0.331381
C20   C     C_R   0.178100 0.499568 0.334671 -0.337321
C21   C     C_R   0.352370 0.000019 0.603576 0.091913
C22   C     C_R   0.647749 0.000454 0.396811 0.107608
C23   C     C_R   0.852337 0.499997 0.603728 0.097403
C24   C     C_R   0.147720 0.500031 0.396871 0.104162
C25   C     C_R   0.487395 0.998558 0.774480 -0.007313
C26   C     C_R   0.513213 0.997289 0.225485 0.006373
C27   C     C_R   0.987202 0.503105 0.774452 -0.016494
C28   C     C_R   0.013075 0.499929 0.225428 0.005071
C29   C     C_R   0.461185 0.996061 0.844647 -0.044516
C30   C     C_R   0.540024 0.994709 0.156047 -0.028776
C31   C     C_R   0.960959 0.504308 0.844634 -0.023813
C32   C     C_R   0.039856 0.502153 0.155869 -0.033328
C33   C     C_R   0.375961 0.995214 0.787344 0.139275
C34   C     C_R   0.625236 0.994791 0.213594 0.096107
C35   C     C_R   0.875871 0.507166 0.787501 0.098690
C36   C     C_R   0.125029 0.500175 0.213362 0.098712
C37   C     C_R   0.516226 0.994341 0.968348 0.018408
C38   C     C_R   0.485331 0.992790 0.032645 0.036634
C39   C     C_R   0.015945 0.503049 0.968177 0.022002
C40   C     C_R   0.985209 0.505617 0.032501 0.019425
C41   C     C_R   0.400613 0.988751 0.971729 -0.277831
C42   C     C_R   0.601146 0.992865 0.029346 -0.222104
C43   C     C_R   0.900884 0.513084 0.972056 -0.217403
C44   C     C_R   0.100672 0.498538 0.028982 -0.219905
C45   C     C_R   0.346113 0.991108 0.851903 0.162614
C46   C     C_R   0.655969 0.991523 0.149850 0.158999
C47   C     C_R   0.845793 0.513965 0.851611 0.157400
C48   C     C_R   0.155670 0.498223 0.149455 0.156398
C49   C     C_R   0.672979 0.123430 0.722389 -0.137855
C50   C     C_R   0.329244 0.874356 0.279493 -0.104618
C51   C     C_R   0.322191 0.120349 0.272983 -0.151802
C52   C     C_R   0.663993 0.866735 0.710264 -0.120204
C53   C     C_R   0.168014 0.628830 0.714823 -0.141095
C54   C     C_R   0.829899 0.374102 0.280418 -0.101382
C55   C     C_R   0.841554 0.637724 0.299071 -0.152225
C56   C     C_R   0.147898 0.351796 0.692819 -0.153834
C57   C     C_R   0.812908 0.110691 0.891293 0.113048
C58   C     C_R   0.185028 0.878815 0.121608 0.116700
C59   C     C_R   0.202423 0.183380 0.203887 0.112849
C60   C     C_R   0.810129 0.852602 0.837183 0.113719
C61   C     C_R   0.311031 0.626069 0.875328 0.114878
C62   C     C_R   0.692092 0.386151 0.107245 0.119152
C63   C     C_R   0.696642 0.652589 0.164939 0.115419
C64   C     C_R   0.246374 0.272704 0.728021 0.115695
C65   C     C_R   0.750952 0.098496 0.775298 0.107848
C66   C     C_R   0.250103 0.893317 0.235062 0.101184
C67   C     C_R   0.274871 0.154297 0.295297 0.108959
C68   C     C_R   0.739282 0.868115 0.728537 0.101510
C69   C     C_R   0.247815 0.611096 0.761556 0.112549
C70   C     C_R   0.751471 0.398633 0.223730 0.097530
C71   C     C_R   0.764460 0.635346 0.274261 0.113169
C72   C     C_R   0.194737 0.323384 0.663937 0.107609
C73   C     C_R   0.661283 0.172958 0.775104 0.034672
C74   C     C_R   0.341180 0.828397 0.221107 0.049217
C75   C     C_R   0.297011 0.118624 0.159386 0.061293
C76   C     C_R   0.655584 0.828923 0.782936 0.046819
C77   C     C_R   0.153367 0.676266 0.767715 0.037256
C78   C     C_R   0.844232 0.324025 0.231491 0.058650
C79   C     C_R   0.855770 0.679433 0.237190 0.039039
C80   C     C_R   0.144766 0.321789 0.778443 0.048364
C81   C     C_R   0.729605 0.192802 0.886570 0.007766
C82   C     C_R   0.271434 0.805489 0.114345 -0.027862
C83   C     C_R   0.244564 0.166065 0.083080 0.016945
C84   C     C_R   0.726789 0.800118 0.878918 -0.028939
C85   C     C_R   0.221144 0.698527 0.877584 0.007858
C86   C     C_R   0.778753 0.304527 0.117673 -0.024635
C87   C     C_R   0.786201 0.705355 0.133127 0.004159
C88   C     C_R   0.188516 0.264238 0.831561 -0.025766
C89   C     C_R   0.798117 0.152503 0.951060 0.046661
C90   C     C_R   0.198732 0.840959 0.056220 0.043771
C91   C     C_R   0.185866 0.188338 0.094755 0.054270
C92   C     C_R   0.802922 0.825483 0.918552 0.052369
C93   C     C_R   0.294373 0.662990 0.938420 0.040601
C94   C     C_R   0.710127 0.344857 0.050562 0.041766
C95   C     C_R   0.708622 0.679092 0.087910 0.045334
C96   C     C_R   0.248508 0.245841 0.818731 0.048069
C97   C     C_R   0.729420 0.247102 0.941809 0.064859
C98   C     C_R   0.273157 0.753266 0.056387 0.046925
C99   C     C_R   0.245245 0.189516 0.992542 0.053501
C100  C     C_R   0.725510 0.753520 0.946454 0.042916
C101  C     C_R   0.217284 0.749789 0.935681 0.068351
C102  C     C_R   0.780776 0.250388 0.062947 0.050077
C103  C     C_R   0.790088 0.750130 0.064614 0.068533
C104  C     C_R   0.180879 0.227779 0.907244 0.044830
C105  C     C_R   0.327393 0.703593 0.115802 -0.272646
C106  C     C_R   0.683134 0.299738 0.879628 -0.251755
C107  C     C_R   0.662146 0.709826 0.898448 -0.276403
C108  C     C_R   0.310598 0.179774 0.989762 -0.258127
C109  C     C_R   0.829021 0.198102 0.124431 -0.274511
C110  C     C_R   0.163320 0.799842 0.877626 -0.263953
C111  C     C_R   0.109875 0.226003 0.899056 -0.266038
C112  C     C_R   0.852743 0.794595 0.109757 -0.257633
Cu1   Cu    Cu3+1 0.526640 1.000000 0.436960 0.940605
Cu2   Cu    Cu3+1 0.473360 1.000000 0.563040 0.942091
Cu3   Cu    Cu3+1 0.026640 0.500000 0.436960 0.941465
Cu4   Cu    Cu3+1 0.973360 0.500000 0.563040 0.934326
H1    H     H_    0.374482 0.981701 0.015567 0.136004
H2    H     H_    0.626130 0.992062 0.983739 0.149026
H3    H     H_    0.876906 0.519384 0.018372 0.146581
H4    H     H_    0.125357 0.494982 0.983224 0.145278
H5    H     H_    0.361643 0.699182 0.207664 0.174062
H6    H     H_    0.660102 0.306335 0.791593 0.139434
H7    H     H_    0.618719 0.704942 0.806518 0.173265
H8    H     H_    0.364117 0.155031 0.058531 0.150491
H9    H     H_    0.857833 0.192925 0.214705 0.173355
H10   H     H_    0.135431 0.809072 0.788651 0.143736
H11   H     H_    0.052237 0.236363 0.819393 0.176475
H12   H     H_    0.890341 0.806966 0.199093 0.141909
H13   H     H_    0.450236 0.997333 0.189354 0.113699
H14   H     H_    0.550315 0.999357 0.809508 0.121700
H15   H     H_    0.949979 0.497348 0.189457 0.125559
H16   H     H_    0.050082 0.504361 0.809501 0.125375
H17   H     H_    0.689137 0.002453 0.489437 0.150911
H18   H     H_    0.310743 0.001348 0.510870 0.144679
H19   H     H_    0.189118 0.499691 0.489615 0.146618
H20   H     H_    0.810649 0.497979 0.511093 0.153543
H21   H     H_    0.257288 0.997088 0.618051 0.147991
H22   H     H_    0.743471 0.998731 0.383224 0.130644
H23   H     H_    0.757197 0.504747 0.618320 0.131058
H24   H     H_    0.243340 0.498724 0.383267 0.130297
N1    N     N_R   0.433280 1.000000 0.657760 -0.172253
N2    N     N_R   0.566720 1.000000 0.342240 -0.179131
N3    N     N_R   0.933280 0.500000 0.657760 -0.189168
N4    N     N_R   0.066720 0.500000 0.342240 -0.177115
O1    O     O_R   0.600040 0.935040 0.546740 -0.546799
O2    O     O_R   0.399960 0.064960 0.453260 -0.549839
O3    O     O_R   0.399960 0.935040 0.453260 -0.562804
O4    O     O_R   0.600040 0.064960 0.546740 -0.557147
O5    O     O_R   0.100040 0.435040 0.546740 -0.546443
O6    O     O_R   0.899960 0.564960 0.453260 -0.548189
O7    O     O_R   0.899960 0.435040 0.453260 -0.564547
O8    O     O_R   0.100040 0.564960 0.546740 -0.563031
O9    O     O_R   0.555010 0.935070 0.653220 -0.602738
O10   O     O_R   0.444990 0.064930 0.346780 -0.601206
O11   O     O_R   0.444990 0.935070 0.346780 -0.612166
O12   O     O_R   0.555010 0.064930 0.653220 -0.585148
O13   O     O_R   0.055010 0.435070 0.653220 -0.594941
O14   O     O_R   0.944990 0.564930 0.346780 -0.588134
O15   O     O_R   0.944990 0.435070 0.346780 -0.603328
O16   O     O_R   0.055010 0.564930 0.653220 -0.587000
N5    N     N_3   0.410652 0.619873 0.126873 -0.622390
H25   H     H_    0.400243 0.593045 0.176659 0.221158
H26   H     H_    0.463919 0.645726 0.182649 0.224796
N6    N     N_3   0.609256 0.393347 0.858840 -0.629297
H27   H     H_    0.553341 0.372180 0.796754 0.216321
H28   H     H_    0.629028 0.415964 0.816402 0.222466
N7    N     N_3   0.576285 0.640612 0.915222 -0.616924
H29   H     H_    0.575310 0.607661 0.861979 0.221377
H30   H     H_    0.526224 0.670137 0.863669 0.221618
N8    N     N_3   0.376051 0.185884 0.898601 -0.627333
H31   H     H_    0.376942 0.136998 0.893961 0.227936
H32   H     H_    0.430289 0.200048 0.975960 0.223167
N9    N     N_3   0.905669 0.106840 0.142779 -0.628327
H33   H     H_    0.890112 0.083777 0.190030 0.222958
H34   H     H_    0.961054 0.129776 0.200828 0.218831
N10   N     N_3   0.082509 0.885130 0.869293 -0.623381
H35   H     H_    0.028471 0.860470 0.811858 0.228241
H36   H     H_    0.094377 0.912392 0.821512 0.217986
N11   N     N_3   0.041578 0.219778 0.987760 -0.626512
H37   H     H_    0.995254 0.192590 0.919529 0.224606
H38   H     H_    0.023950 0.266782 0.968818 0.218683
N12   N     N_3   0.936539 0.863984 0.087789 -0.617903
H39   H     H_    0.987245 0.835047 0.139199 0.223665
H40   H     H_    0.937780 0.897237 0.140857 0.220146
C113  C     C_3   0.427494 0.812923 0.261537 -0.359671
C114  C     C_3   0.479602 0.781272 0.379550 -0.846859
H41   H     H_    0.502588 0.816417 0.448132 0.245746
H42   H     H_    0.444537 0.745041 0.387327 0.240381
H43   H     H_    0.532920 0.758671 0.393139 0.241503
H44   H     H_    0.428735 0.784403 0.200357 0.196671
H45   H     H_    0.459048 0.854875 0.261869 0.227516
C115  C     C_3   0.574129 0.194490 0.722161 -0.362246
C116  C     C_3   0.548368 0.174904 0.796273 -0.745461
H46   H     H_    0.559388 0.124128 0.817053 0.255683
H47   H     H_    0.582424 0.201817 0.877484 0.242606
H48   H     H_    0.482614 0.184256 0.749201 0.232824
H49   H     H_    0.563741 0.244949 0.703657 0.176805
H50   H     H_    0.528987 0.175449 0.634961 0.198476
C117  C     C_3   0.576434 0.827600 0.771137 -0.342474
C118  C     C_3   0.505079 0.798057 0.658613 -0.831763
H51   H     H_    0.478927 0.831523 0.586380 0.261398
H52   H     H_    0.524110 0.755316 0.638080 0.235016
H53   H     H_    0.456436 0.785101 0.665870 0.237017
H54   H     H_    0.582636 0.803695 0.842895 0.194563
H55   H     H_    0.560387 0.874603 0.782632 0.218388
C119  C     C_3   0.299005 0.056664 0.109296 -0.386513
C120  C     C_3   0.213470 0.030963 0.019686 -0.852782
H56   H     H_    0.179138 0.029388 0.055258 0.258093
H57   H     H_    0.180251 0.060654 0.941210 0.257748
H58   H     H_    0.217238 0.982596 0.995728 0.246437
H59   H     H_    0.330410 0.061595 0.070352 0.187782
H60   H     H_    0.330782 0.019429 0.175385 0.214826
C121  C     C_3   0.931809 0.300440 0.294323 -0.386229
C122  C     C_3   0.964073 0.267654 0.407781 -0.853728
H61   H     H_    0.023676 0.245791 0.444021 0.244453
H62   H     H_    0.972979 0.301885 0.471163 0.241130
H63   H     H_    0.921504 0.230701 0.395279 0.245086
H64   H     H_    0.940375 0.270307 0.241806 0.201917
H65   H     H_    0.973720 0.339011 0.312310 0.229976
C123  C     C_3   0.064890 0.692980 0.715838 -0.357363
C124  C     C_3   0.042175 0.671373 0.792673 -0.738806
H66   H     H_    0.062043 0.622365 0.821727 0.252687
H67   H     H_    0.070846 0.701688 0.869286 0.241820
H68   H     H_    0.975323 0.673796 0.744239 0.229664
H69   H     H_    0.049587 0.742621 0.693134 0.171014
H70   H     H_    0.020773 0.672150 0.629940 0.190187
C125  C     C_3   0.106741 0.355646 0.827210 -0.324191
C126  C     C_3   0.013888 0.346209 0.753518 -0.776071
H71   H     H_    0.980003 0.389060 0.708822 0.277850
H72   H     H_    0.991952 0.310328 0.685898 0.229864
H73   H     H_    0.996245 0.332504 0.808699 0.212489
H74   H     H_    0.135361 0.340980 0.916813 0.189203
H75   H     H_    0.123536 0.405996 0.841553 0.187950
C127  C     C_3   0.942626 0.686910 0.274184 -0.348188
C128  C     C_3   0.951795 0.657537 0.187770 -0.743563
H76   H     H_    0.921265 0.611179 0.159469 0.246525
H77   H     H_    0.924750 0.687808 0.110981 0.241725
H78   H     H_    0.017147 0.651300 0.227885 0.230513
H79   H     H_    0.965496 0.735218 0.293296 0.166685
H80   H     H_    0.988534 0.666169 0.359743 0.195522
N13   N     N_3   0.237549 0.934588 0.299807 -0.577772
H81   H     H_    0.214042 0.976964 0.254991 0.225822
H82   H     H_    0.194774 0.914121 0.306755 0.233377
N14   N     N_3   0.763576 0.052751 0.716479 -0.581262
H83   H     H_    0.780466 0.010762 0.762749 0.227405
H84   H     H_    0.811614 0.067882 0.716503 0.229851
N15   N     N_3   0.744378 0.889233 0.640001 -0.560465
H85   H     H_    0.785109 0.926734 0.670584 0.225721
H86   H     H_    0.767897 0.852570 0.621457 0.230068
N16   N     N_3   0.298041 0.156602 0.409340 -0.562782
H87   H     H_    0.251726 0.136282 0.408607 0.232881
H88   H     H_    0.303801 0.203639 0.432959 0.231037
N17   N     N_3   0.736072 0.444256 0.279676 -0.580522
H89   H     H_    0.719970 0.486260 0.233579 0.225695
H90   H     H_    0.686791 0.428847 0.276459 0.232946
N18   N     N_3   0.262786 0.570443 0.698719 -0.576114
H91   H     H_    0.286870 0.528271 0.744032 0.223705
H92   H     H_    0.305893 0.591783 0.693355 0.231961
N19   N     N_3   0.192300 0.347423 0.570229 -0.556477
H93   H     H_    0.250682 0.361886 0.601560 0.226581
H94   H     H_    0.173713 0.311457 0.510840 0.237369
N20   N     N_3   0.754647 0.610904 0.356563 -0.561296
H95   H     H_    0.713999 0.573259 0.320361 0.224780
H96   H     H_    0.728982 0.646057 0.374482 0.229333
N21   N     N_3   0.390826 0.603191 0.923439 -0.602524
H97   H     H_    0.403778 0.564635 0.976298 0.255315
H98   H     H_    0.433309 0.638985 0.970016 0.240922
N22   N     N_3   0.614744 0.416419 0.049593 -0.603532
H99   H     H_    0.568318 0.384123 0.996890 0.239030
H100  H     H_    0.611608 0.454135 0.001253 0.255060
N23   N     N_3   0.617502 0.643586 0.135926 -0.611351
H101  H     H_    0.591017 0.603430 0.085540 0.256324
H102  H     H_    0.581609 0.682879 0.091196 0.232953
N24   N     N_3   0.294044 0.248765 0.695118 -0.612527
H103  H     H_    0.285577 0.200296 0.682755 0.245269
H104  H     H_    0.355104 0.260228 0.757350 0.251001
N25   N     N_3   0.889334 0.079563 0.945073 -0.606021
H105  H     H_    0.894045 0.042745 0.996120 0.256626
H106  H     H_    0.936698 0.111712 0.994484 0.245109
N26   N     N_3   0.106029 0.902044 0.076825 -0.601932
H107  H     H_    0.063571 0.865930 0.033169 0.241223
H108  H     H_    0.091257 0.939685 0.021505 0.254905
N27   N     N_3   0.151336 0.211366 0.227516 -0.609710
H109  H     H_    0.096630 0.186578 0.184077 0.249523
H110  H     H_    0.140675 0.258218 0.200714 0.239615
N28   N     N_3   0.887205 0.862785 0.860239 -0.611191
H111  H     H_    0.923635 0.823253 0.901559 0.231758
H112  H     H_    0.914843 0.902212 0.912367 0.257114
C129  C     C_3   0.256097 0.988122 0.796598 -0.409744
C130  C     C_3   0.222620 0.921941 0.754851 -0.844807
H113  H     H_    0.230898 0.906184 0.690709 0.253841
H114  H     H_    0.254174 0.888670 0.828457 0.261057
H115  H     H_    0.156787 0.921235 0.714391 0.229389
H116  H     H_    0.245163 0.001688 0.858946 0.209177
H117  H     H_    0.221389 0.022749 0.725743 0.192446
C131  C     C_3   0.747583 0.986627 0.211981 -0.403948
C132  C     C_3   0.775129 0.975637 0.137326 -0.864576
H118  H     H_    0.746880 0.932350 0.085463 0.257870
H119  H     H_    0.760005 0.016655 0.080499 0.257277
H120  H     H_    0.842037 0.969464 0.193366 0.239286
H121  H     H_    0.777279 0.030283 0.261827 0.199109
H122  H     H_    0.771227 0.946558 0.273150 0.203298
C133  C     C_3   0.754721 0.522962 0.789901 -0.406475
C134  C     C_3   0.728289 0.537347 0.864932 -0.859612
H123  H     H_    0.742289 0.497335 0.923160 0.255580
H124  H     H_    0.758264 0.580791 0.915382 0.261731
H125  H     H_    0.661636 0.544927 0.809207 0.239725
H126  H     H_    0.733541 0.562832 0.728758 0.205388
H127  H     H_    0.722138 0.479901 0.740048 0.196595
C135  C     C_3   0.247379 0.494932 0.211564 -0.400794
C136  C     C_3   0.275678 0.492172 0.136609 -0.869279
H128  H     H_    0.251765 0.449399 0.082457 0.246446
H129  H     H_    0.256418 0.534896 0.082122 0.258966
H130  H     H_    0.342993 0.489970 0.192582 0.242726
H131  H     H_    0.276284 0.536923 0.267172 0.201056
H132  H     H_    0.271430 0.452466 0.267200 0.202066

loop_
_geom_bond_atom_site_label_1
_geom_bond_atom_site_label_2
_ccdc_geom_bond_type
C130  H115  S    
C33   C45   A    
C53   C69   A    
C79   C87   A    
C121  H65   S    
C113  H44   S    
C135  H132  S    
C13   N9    S    
C16   N12   S    
C7    O15   A    
C10   C94   A    
N16   H88   S    
N23   H101  S    
C4    O4    A    
C29   C33   A    
C117  H55   S    
C5    O5    A    
Cu1   N2    S    
C30   C38   A    
N24   H103  S    
C37   C42   A    
N12   H39   S    
C14   C90   A    
C6    O14   A    
C40   C43   A    
C56   C72   A    
C120  H58   S    
C27   N3    A    
C28   N4    A    
C115  H50   S    
Cu1   O10   S    
N9    H34   S    
C35   C47   A    
C117  C118  S    
C11   N7    S    
C82   C98   A    
C23   N3    A    
C108  H8    S    
C73   C81   A    
C126  H71   S    
N5    H26   S    
C25   C29   A    
C125  H75   S    
C65   N14   S    
C27   C31   A    
C84   C100  A    
C28   C32   A    
C12   C108  A    
C119  C120  S    
C22   H17   S    
C101  C110  A    
C17   C21   A    
C103  C112  A    
C19   C23   A    
C37   C38   A    
C125  C126  S    
C54   C70   A    
C59   C91   A    
C87   C103  A    
C131  C132  S    
N22   H100  S    
C117  H54   S    
C49   C73   A    
C79   C127  S    
N19   H94   S    
C12   N8    S    
C22   N2    A    
C83   C91   A    
C4    C49   S    
C80   C88   A    
C19   C35   A    
N28   H112  S    
C80   C125  S    
C15   C91   A    
C119  H60   S    
C118  H52   S    
C116  H46   S    
C45   C129  S    
C102  C109  A    
C17   H21   S    
C114  H41   S    
C43   C47   A    
C126  H73   S    
C55   C71   A    
C44   C48   A    
C3    O3    A    
C15   N11   S    
C1    O1    A    
N7    H30   S    
N14   H83   S    
C131  H122  S    
C99   C108  A    
C62   C70   A    
C129  H117  S    
N20   H95   S    
C23   H20   S    
C32   C36   A    
Cu1   O4    S    
C8    O8    A    
Cu2   O3    S    
C50   C74   A    
N17   H89   S    
C122  H62   S    
N8    H31   S    
C9    C105  A    
Cu3   Cu4   S    
N13   H81   S    
C63   N23   S    
C13   C109  A    
C59   C67   A    
C85   C93   A    
N18   H92   S    
C34   C46   A    
C133  H127  S    
C74   C113  S    
C134  H125  S    
C71   N20   S    
C134  H124  S    
C77   C85   A    
C2    O10   A    
N25   H105  S    
C27   H16   S    
C132  H119  S    
C106  H6    S    
C46   C131  S    
C25   H14   S    
C123  C124  S    
C88   C104  A    
C3    C50   S    
C60   C92   A    
C30   C34   A    
Cu3   O14   S    
Cu2   N1    S    
N26   H107  S    
C64   C96   A    
C38   C41   A    
C39   C40   A    
C51   C67   A    
C6    O6    A    
C48   C135  S    
C124  H66   S    
C50   C66   A    
C116  H48   S    
Cu3   O5    S    
C129  C130  S    
C123  H70   S    
C127  H80   S    
C9    N5    S    
N21   H98   S    
C110  H10   S    
C19   H23   S    
C26   C30   A    
C136  H129  S    
C128  H78   S    
C10   C106  A    
C86   C102  A    
C14   C110  A    
C59   N27   S    
Cu3   N4    S    
C134  H123  S    
C41   C45   A    
C18   C22   A    
C52   C76   A    
C76   C117  S    
C8    C53   S    
C121  H64   S    
C133  H126  S    
C66   N13   S    
C56   C80   A    
C111  H11   S    
N14   H84   S    
C36   C48   A    
N24   H104  S    
N12   H40   S    
C73   C115  S    
C72   N19   S    
N27   H109  S    
C120  H57   S    
C84   C92   A    
C41   H1    S    
Cu4   O7    S    
C69   N18   S    
C43   H3    S    
C88   C96   A    
C5    C56   S    
C107  H7    S    
C6    C55   S    
C76   C84   A    
C126  H72   S    
N5    H25   S    
C121  C122  S    
C57   C89   A    
N6    H27   S    
Cu1   O11   S    
Cu4   O16   S    
C124  H68   S    
C61   C93   A    
C44   H4    S    
C61   C69   A    
C63   C95   A    
C130  H113  S    
C42   C46   A    
Cu1   O1    S    
C18   H22   S    
C14   N10   S    
C128  H76   S    
C97   C102  A    
C81   C89   A    
C99   C104  A    
C83   C99   A    
C17   C33   A    
C74   C82   A    
C78   C121  S    
C113  H45   S    
C135  H131  S    
N15   H86   S    
C120  H56   S    
N7    H29   S    
C42   H2    S    
C64   N24   S    
N16   H87   S    
C100  C103  A    
Cu3   O15   S    
C53   C77   A    
C55   C79   A    
C3    O11   A    
C115  H49   S    
C1    O9    A    
C58   C90   A    
C39   C44   A    
C26   H13   S    
C7    O7    A    
C97   C106  A    
C4    O12   A    
C58   N26   S    
C16   C92   A    
C5    O13   A    
C62   C94   A    
C31   C35   A    
C127  C128  S    
C114  H42   S    
C8    O16   A    
C21   H18   S    
C16   C112  A    
Cu1   Cu2   S    
C135  C136  S    
C25   N1    A    
C57   C65   A    
C98   C101  A    
C129  H116  S    
C82   C90   A    
C20   H24   S    
C114  H43   S    
C21   N1    A    
C75   C83   A    
C113  C114  S    
N8    H32   S    
C24   N4    A    
C1    C52   S    
C112  H12   S    
C2    C51   S    
N11   H37   S    
C20   C36   A    
C67   N16   S    
N22   H99   S    
C60   C68   A    
C29   C37   A    
C12   C96   A    
C7    C54   S    
C54   C78   A    
C57   N25   S    
C136  H128  S    
N27   H110  S    
C132  H118  S    
Cu4   O6    S    
N9    H33   S    
C98   C105  A    
C49   C65   A    
N26   H108  S    
N28   H111  S    
C75   C119  S    
C86   C94   A    
C119  H59   S    
C58   C66   A    
C20   C24   A    
C31   C39   A    
C118  H51   S    
C116  H47   S    
Cu3   O8    S    
N21   H97   S    
Cu2   O9    S    
C52   C68   A    
C62   N22   S    
C78   C86   A    
C64   C72   A    
C125  H74   S    
C133  C134  S    
C128  H77   S    
C70   N17   S    
C68   N15   S    
C131  H121  S    
C15   C111  A    
Cu2   O2    S    
N17   H90   S    
C122  H61   S    
N20   H96   S    
C87   C95   A    
N13   H82   S    
Cu4   N3    S    
N18   H91   S    
C105  H5    S    
C18   C34   A    
C61   N21   S    
C24   H19   S    
C109  H9    S    
N10   H35   S    
N25   H106  S    
C11   C107  A    
C132  H120  S    
N19   H93   S    
C9    C93   A    
C51   C75   A    
C85   C101  A    
C11   C95   A    
N23   H102  S    
C100  C107  A    
C10   N6    S    
C13   C89   A    
Cu2   O12   S    
C47   C133  S    
C63   C71   A    
C122  H63   S    
C104  C111  A    
N15   H85   S    
C77   C123  S    
C2    O2    A    
C28   H15   S    
C115  C116  S    
N6    H28   S    
Cu4   O13   S    
C124  H67   S    
C81   C97   A    
C118  H53   S    
N10   H36   S    
C60   N28   S    
C123  H69   S    
C130  H114  S    
C127  H79   S    
C32   C40   A    
C136  H130  S    
C26   N2    A    
N11   H38   S    
