data_mof_unit_20096.cif
_audit_creation_date              2012-12-10T17:17:53-0500
_audit_creation_method            fapswitch 2.2
_symmetry_space_group_name_H-M    P1
_symmetry_Int_Tables_number       1
_space_group_crystal_system       triclinic
_cell_length_a                    14.81295
_cell_length_b                    15.666562
_cell_length_c                    9.65012
_cell_angle_alpha                 89.933091
_cell_angle_beta                  89.216031
_cell_angle_gamma                 90.109761
_cell_volume                      2239.26870372

loop_
_atom_site_label
_atom_site_type_symbol
_atom_type_description
_atom_site_fract_x
_atom_site_fract_y
_atom_site_fract_z
_atom_type_partial_charge
C1    C     C_R   0.382000 0.880863 0.500352 0.763084
C2    C     C_R   0.379813 0.117172 0.500080 0.783057
C3    C     C_R   0.881924 0.380939 0.500207 0.767297
C4    C     C_R   0.879607 0.616949 0.500304 0.783779
C5    C     C_R   0.325959 0.256756 0.427920 -0.196805
C6    C     C_R   0.231431 0.826162 0.550368 -0.221300
C7    C     C_R   0.823658 0.754650 0.423509 -0.201259
C8    C     C_R   0.730166 0.327580 0.544443 -0.215125
C9    C     C_R   0.759292 0.818295 0.422129 -0.209312
C10   C     C_R   0.666053 0.263414 0.543947 -0.195289
C11   C     C_R   0.261484 0.320370 0.426339 -0.208137
C12   C     C_R   0.167263 0.762135 0.548964 -0.194506
C13   C     C_R   0.679653 0.809314 0.499799 -0.088362
C14   C     C_R   0.689656 0.181588 0.500073 -0.083067
C15   C     C_R   0.180516 0.310136 0.500356 -0.083643
C16   C     C_R   0.190144 0.681159 0.500467 -0.082509
C17   C     C_R   0.665409 0.002168 0.139698 -0.113908
C18   C     C_R   0.165387 0.500015 0.139756 -0.115363
C19   C     C_R   0.746731 0.003819 0.066518 -0.203171
C20   C     C_R   0.246727 0.500208 0.066591 -0.201444
C21   C     C_R   0.747021 0.004289 0.923625 -0.205102
C22   C     C_R   0.247024 0.500669 0.923709 -0.202072
C23   C     C_R   0.666000 0.002900 0.853040 -0.104132
C24   C     C_R   0.165987 0.500685 0.853152 -0.107279
C25   C     C_R   0.581471 0.002248 0.923427 0.156977
C26   C     C_R   0.081460 0.500545 0.923559 0.146954
C27   C     C_R   0.581313 0.001796 0.072614 0.184507
C28   C     C_R   0.081302 0.500206 0.072691 0.190412
C29   C     C_R   0.423024 0.996272 0.077476 -0.051138
C30   C     C_R   0.922682 0.499845 0.076342 -0.110736
C31   C     C_R   0.619540 0.117611 0.499703 0.774155
C32   C     C_R   0.617067 0.880074 0.499747 0.742451
C33   C     C_R   0.119860 0.617319 0.499737 0.769036
C34   C     C_R   0.117451 0.380428 0.499836 0.737744
C35   C     C_R   0.422110 0.993335 0.930628 0.335906
C36   C     C_R   0.922138 0.497848 0.928596 0.338698
C37   C     C_R   0.199791 0.084789 0.615347 -0.185273
C38   C     C_R   0.431639 0.711081 0.401056 -0.184866
C39   C     C_R   0.704193 0.588011 0.634606 -0.202792
C40   C     C_R   0.931467 0.210732 0.402611 -0.184282
C41   C     C_R   0.117559 0.071981 0.684172 -0.127138
C42   C     C_R   0.456378 0.628150 0.364570 -0.110709
C43   C     C_R   0.622212 0.576236 0.704753 -0.153129
C44   C     C_R   0.956239 0.127603 0.367333 -0.108005
C45   C     C_R   0.560035 0.642448 0.712469 -0.116175
C46   C     C_R   0.894153 0.061267 0.381459 -0.155426
C47   C     C_R   0.057514 0.139478 0.700259 -0.118099
C48   C     C_R   0.394267 0.561768 0.377790 -0.153013
C49   C     C_R   0.578804 0.720229 0.647930 -0.179393
C50   C     C_R   0.806188 0.078190 0.426672 -0.206094
C51   C     C_R   0.078199 0.219148 0.643386 -0.183892
C52   C     C_R   0.306373 0.578450 0.423622 -0.204040
C53   C     C_R   0.661134 0.733300 0.574693 0.092758
C54   C     C_R   0.779044 0.162272 0.458697 0.102402
C55   C     C_R   0.160770 0.232933 0.571095 0.089940
C56   C     C_R   0.279270 0.662282 0.457078 0.101506
C57   C     C_R   0.224185 0.165847 0.563680 0.098424
C58   C     C_R   0.343675 0.728876 0.451386 0.088942
C59   C     C_R   0.725652 0.666908 0.571411 0.097494
C60   C     C_R   0.843495 0.228800 0.452554 0.087478
C61   C     C_R   0.308793 0.180619 0.498748 -0.092893
C62   C     C_R   0.318615 0.810667 0.500179 -0.085963
C63   C     C_R   0.808456 0.680218 0.500003 -0.101468
C64   C     C_R   0.818225 0.311014 0.499261 -0.090597
Cu1   Cu    Cu3+1 0.499990 0.000000 0.640660 0.922923
Cu2   Cu    Cu3+1 0.999990 0.500000 0.640660 0.946208
Cu3   Cu    Cu3+1 0.500010 0.000000 0.359340 0.929759
Cu4   Cu    Cu3+1 0.000010 0.500000 0.359340 0.932891
H1    H     H_    0.389886 0.267135 0.374439 0.146762
H2    H     H_    0.212242 0.888504 0.588016 0.131576
H3    H     H_    0.886322 0.763963 0.366069 0.148917
H4    H     H_    0.710376 0.390958 0.576884 0.131970
H5    H     H_    0.810559 0.004809 0.866717 0.146222
H6    H     H_    0.310559 0.500745 0.866793 0.146248
H7    H     H_    0.673866 0.001025 0.743577 0.194809
H8    H     H_    0.173813 0.500375 0.743645 0.194674
H9    H     H_    0.242753 0.030460 0.597743 0.104326
H10   H     H_    0.482390 0.760424 0.391851 0.144875
H11   H     H_    0.749666 0.534419 0.627718 0.156145
H12   H     H_    0.982121 0.260102 0.392361 0.145003
H13   H     H_    0.100004 0.009342 0.723722 0.127018
H14   H     H_    0.524471 0.615149 0.328405 0.139719
H15   H     H_    0.606512 0.515340 0.752387 0.129998
H16   H     H_    0.024345 0.114432 0.331391 0.142634
H17   H     H_    0.496195 0.632998 0.766328 0.135342
H18   H     H_    0.914109 0.996517 0.357012 0.127209
H19   H     H_    0.993443 0.129448 0.753169 0.135838
H20   H     H_    0.414225 0.497140 0.352507 0.125854
H21   H     H_    0.526875 0.768422 0.652858 0.157234
H22   H     H_    0.760249 0.025014 0.438971 0.101442
H23   H     H_    0.027500 0.268257 0.653110 0.157158
H24   H     H_    0.260542 0.525257 0.436048 0.099812
H25   H     H_    0.772741 0.875807 0.362870 0.132936
H26   H     H_    0.597464 0.277707 0.576870 0.140535
H27   H     H_    0.275874 0.378749 0.370022 0.130770
H28   H     H_    0.099206 0.775860 0.585110 0.140712
H29   H     H_    0.360135 0.994409 0.135799 0.155074
H30   H     H_    0.859456 0.500084 0.133828 0.148370
H31   H     H_    0.671864 0.000227 0.248641 0.191523
H32   H     H_    0.171787 0.499548 0.248690 0.191281
H33   H     H_    0.810029 0.003897 0.121226 0.153331
H34   H     H_    0.310017 0.499801 0.121297 0.151919
N1    N     N_R   0.501200 0.000000 0.147910 -0.226670
N2    N     N_R   0.001200 0.500000 0.147910 -0.212560
N3    N     N_R   0.501270 0.000000 0.852040 -0.233920
N4    N     N_R   0.001270 0.500000 0.852040 -0.211778
O1    O     O_R   0.409820 0.909830 0.618810 -0.591847
O2    O     O_R   0.409820 0.090170 0.618810 -0.591718
O3    O     O_R   0.909820 0.409830 0.618810 -0.555156
O4    O     O_R   0.909820 0.590170 0.618810 -0.558393
O5    O     O_R   0.409840 0.909830 0.381240 -0.577170
O6    O     O_R   0.409840 0.090170 0.381240 -0.570459
O7    O     O_R   0.909840 0.409830 0.381240 -0.577164
O8    O     O_R   0.909840 0.590170 0.381240 -0.574815
O9    O     O_R   0.590170 0.090170 0.618760 -0.590336
O10   O     O_R   0.590170 0.909830 0.618760 -0.599460
O11   O     O_R   0.090170 0.590170 0.618760 -0.594084
O12   O     O_R   0.090170 0.409830 0.618760 -0.602508
O13   O     O_R   0.590190 0.090180 0.381190 -0.588382
O14   O     O_R   0.590190 0.909820 0.381190 -0.596415
O15   O     O_R   0.090190 0.590180 0.381190 -0.589656
O16   O     O_R   0.090190 0.409820 0.381190 -0.596579
N5    N     N_2   0.336516 0.983369 0.868384 -0.431933
H35   H     H_    0.332330 0.003124 0.768518 0.304878
C65   C     C_3   0.291445 0.902671 0.894561 -0.700309
H36   H     H_    0.224281 0.902943 0.844961 0.220178
H37   H     H_    0.280478 0.892257 0.007318 0.225110
H38   H     H_    0.331968 0.849165 0.851126 0.249397
N6    N     N_2   0.838198 0.493709 0.860387 -0.388174
H39   H     H_    0.798311 0.545898 0.882839 0.237697
C66   C     C_3   0.789497 0.414467 0.882679 -0.685981
H40   H     H_    0.727680 0.414090 0.819396 0.213935
H41   H     H_    0.768640 0.407623 0.993160 0.203966
H42   H     H_    0.831943 0.359037 0.852007 0.255192

loop_
_geom_bond_atom_site_label_1
_geom_bond_atom_site_label_2
_ccdc_geom_bond_type
C34   O12   A    
Cu2   Cu4   S    
C58   C62   A    
C40   C60   A    
C43   H15   S    
C13   C32   S    
C42   H14   S    
C14   C31   S    
C66   H42   S    
C1    C62   S    
C26   N4    A    
C53   C59   A    
Cu3   N1    S    
N5    H35   S    
C54   C60   A    
C3    C64   S    
C33   O11   A    
C4    C63   S    
C2    O6    A    
C50   C54   A    
C4    O8    A    
C19   C21   A    
C24   C26   A    
C38   C42   A    
C20   C22   A    
C6    C12   A    
N5    C65   S    
C20   H34   S    
C10   H26   S    
C21   H5    S    
C29   N1    A    
C6    H2    S    
Cu1   N3    S    
C9    C13   A    
C5    H1    S    
C51   H23   S    
C38   C58   A    
C11   C15   A    
C50   H22   S    
C12   C16   A    
Cu1   Cu3   S    
Cu2   O11   S    
C65   H38   S    
C48   H20   S    
Cu3   O14   S    
C15   C34   S    
C18   C20   A    
C2    C61   S    
Cu4   O7    S    
C39   C59   A    
C34   O16   A    
C33   O15   A    
Cu1   O9    S    
C18   H32   S    
Cu2   N4    S    
C31   O9    A    
C2    O2    A    
C44   C46   A    
C46   C50   A    
C13   C53   A    
C8    H4    S    
C25   N3    A    
C17   C27   A    
C18   C28   A    
C3    O7    A    
Cu4   O16   S    
C24   H8    S    
C39   C43   A    
C38   H10   S    
C44   H16   S    
C36   N4    A    
C32   O10   A    
C47   H19   S    
C45   H17   S    
C16   C56   A    
C35   N3    A    
C16   C33   S    
C43   C45   A    
C28   N2    A    
C45   C49   A    
C41   H13   S    
C40   H12   S    
C41   C47   A    
C5    C61   A    
C42   C48   A    
Cu2   O4    S    
C57   C61   A    
C17   H31   S    
C7    C63   A    
C39   H11   S    
C8    C64   A    
Cu3   O5    S    
C14   C54   A    
C1    O1    A    
C55   C57   A    
C10   C14   A    
C65   H36   S    
Cu1   O10   S    
C22   C24   A    
C52   H24   S    
C22   H6    S    
C40   C44   A    
C66   H40   S    
C9    H25   S    
N6    H39   S    
C11   H27   S    
C7    C9    A    
C4    O4    A    
C49   H21   S    
Cu1   O2    S    
C59   C63   A    
Cu4   N2    S    
C23   H7    S    
C66   H41   S    
Cu4   O15   S    
C47   C51   A    
C5    C11   A    
C29   H29   S    
C25   C27   A    
C29   C35   A    
C30   H30   S    
C26   C28   A    
C30   C36   A    
C60   C64   A    
C6    C62   A    
C21   C23   A    
C36   N6    S    
C1    O5    A    
C7    H3    S    
C19   H33   S    
Cu4   O8    S    
C37   H9    S    
C3    O3    A    
C49   C53   A    
C35   N5    S    
C17   C19   A    
C56   C58   A    
C51   C55   A    
C23   C25   A    
Cu2   O3    S    
C37   C41   A    
Cu3   O6    S    
C48   C52   A    
C32   O14   A    
C8    C10   A    
Cu2   O12   S    
C30   N2    A    
C65   H37   S    
C12   H28   S    
C46   H18   S    
C31   O13   A    
Cu3   O13   S    
C27   N1    A    
Cu1   O1    S    
C37   C57   A    
C52   C56   A    
C15   C55   A    
N6    C66   S    
