data_mof_unit_7854.cif
_audit_creation_date              2012-12-11T15:57:36-0500
_audit_creation_method            fapswitch 2.2
_symmetry_space_group_name_H-M    P1
_symmetry_Int_Tables_number       1
_space_group_crystal_system       triclinic
_cell_length_a                    10.725398
_cell_length_b                    10.854425
_cell_length_c                    17.107018
_cell_angle_alpha                 100.483741
_cell_angle_beta                  100.025048
_cell_angle_gamma                 61.096231
_cell_volume                      1705.77336797

loop_
_atom_site_label
_atom_site_type_symbol
_atom_type_description
_atom_site_fract_x
_atom_site_fract_y
_atom_site_fract_z
_atom_type_partial_charge
C1    C     C_R   0.356527 0.767331 0.398172 0.575166
C2    C     C_2   0.836936 0.328784 0.160539 -0.128157
C3    C     C_2   0.892014 0.218534 0.202799 -0.151626
C4    C     C_2   0.836363 0.233943 0.277330 0.242342
C5    C     C_2   0.331137 0.824734 0.322247 0.270199
C6    C     C_2   0.358778 0.816120 0.151941 -0.104028
C7    C     C_2   0.408722 0.878815 0.214812 -0.113860
C8    C     C_2   0.436450 0.833333 0.293998 0.228375
C9    C     C_2   0.302107 0.330137 0.641725 0.206186
C10   C     C_2   0.326152 0.307217 0.814537 -0.077641
C11   C     C_2   0.375590 0.193730 0.757491 0.233535
C12   C     C_R   0.369688 0.346528 0.357055 0.552143
C13   C     C_2   0.375333 0.208682 0.674352 -0.126773
C14   C     C_1   0.815560 0.343468 0.709098 -0.060784
C15   C     C_1   0.843626 0.313231 0.776187 -0.046352
C16   C     C_1   0.358514 0.764126 0.713285 -0.014198
C17   C     C_1   0.325384 0.811317 0.780101 -0.012046
C18   C     C_R   0.896301 0.307925 0.087119 0.552019
C19   C     C_R   0.318841 0.299882 0.119889 0.542628
C20   C     C_R   0.297182 0.888368 0.081519 0.545979
C21   C     C_R   0.886543 0.296183 0.858357 0.548768
C22   C     C_R   0.306258 0.286950 0.891266 0.556420
C23   C     C_R   0.776205 0.376450 0.405076 0.558344
C24   C     C_R   0.280323 0.881083 0.857009 0.560381
C25   C     C_R   0.381627 0.714341 0.631171 0.566727
C26   C     C_R   0.364040 0.347389 0.579046 0.565371
C27   C     C_R   0.770952 0.382708 0.630207 0.520673
C28   C     C_1   0.342752 0.336596 0.273838 -0.043549
C29   C     C_1   0.330633 0.327482 0.203124 -0.051184
C30   C     C_2   0.859259 0.321445 0.337214 -0.080639
Cr1   Cr    Cr6+3 0.608020 0.610770 0.522990 1.017842
Cr2   Cr    Cr6+3 0.289390 0.599570 0.488050 1.017380
Cr3   Cr    Cr6+3 0.602610 0.289690 0.489020 1.048885
Cr4   Cr    Cr6+3 0.053780 0.052210 0.965970 1.013765
Cr5   Cr    Cr6+3 0.060060 0.372530 0.992430 1.006406
Cr6   Cr    Cr6+3 0.372600 0.061970 0.991430 1.013492
H1    H     H_    0.448406 0.115164 0.639141 0.120312
H2    H     H_    0.928915 0.365377 0.331443 0.050347
H3    H     H_    0.352718 0.720909 0.155840 0.097792
O1    O     O_R   0.749250 0.499990 0.439200 -0.541985
O2    O     O_R   0.299400 0.468710 0.556310 -0.477958
O3    O     O_R   0.489240 0.256450 0.560730 -0.543444
O4    O     O_R   0.723350 0.306730 0.584410 -0.492746
O5    O     O_3   0.500010 0.500010 0.500020 -0.285518
O6    O     O_R   0.170650 0.915100 0.051290 -0.519057
O7    O     O_R   0.941960 0.184500 0.049060 -0.500553
O8    O     O_R   0.922640 0.402670 0.071640 -0.516227
O9    O     O_R   0.196880 0.368740 0.083740 -0.502813
O10   O     O_R   0.411120 0.181190 0.091480 -0.528690
O11   O     O_R   0.364220 0.944920 0.062310 -0.514516
O12   O     O_R   0.477870 0.725740 0.440280 -0.460844
O13   O     O_R   0.158740 0.906940 0.874970 -0.512843
O14   O     O_R   0.930920 0.176940 0.885610 -0.493988
O15   O     O_R   0.910730 0.394510 0.895320 -0.521107
O16   O     O_R   0.185840 0.361180 0.920280 -0.509891
O17   O     O_R   0.399210 0.173040 0.915160 -0.474572
O18   O     O_R   0.353170 0.937370 0.898860 -0.481708
O19   O     O_3   0.162150 0.162240 0.983280 -0.246987
O20   O     O_R   0.260770 0.742210 0.412610 -0.532343
O21   O     O_R   0.297990 0.466320 0.394220 -0.528040
O22   O     O_R   0.487720 0.253870 0.385870 -0.481519
O23   O     O_R   0.721940 0.304340 0.422320 -0.434324
O24   O     O_R   0.750770 0.502570 0.614050 -0.546130
O25   O     O_R   0.479280 0.728140 0.602370 -0.492413
O26   O     O_R   0.262290 0.744790 0.587460 -0.492419
H4    H     H_    0.975156 0.114944 0.182000 0.157565
H5    H     H_    0.295282 0.414368 0.805540 0.118624
O27   O     O_3   0.200589 0.454062 0.679463 -0.585368
C31   C     C_3   0.071550 0.448711 0.677225 -0.006495
H6    H     H_    0.088325 0.351276 0.699727 0.132972
H7    H     H_    0.018669 0.453646 0.615053 0.163258
C32   C     C_3   0.974872 0.576932 0.730855 -0.340907
H8    H     H_    0.944612 0.675874 0.705337 0.154673
H9    H     H_    0.876428 0.572217 0.737190 0.133198
H10   H     H_    0.031468 0.579989 0.791482 0.156715
O28   O     O_3   0.735095 0.189553 0.279545 -0.519865
C33   C     C_3   0.778078 0.052187 0.239102 -0.013210
H11   H     H_    0.883788 0.977249 0.266723 0.151959
H12   H     H_    0.781267 0.050437 0.174203 0.132827
C34   C     C_3   0.671133 0.002948 0.245986 -0.345965
H13   H     H_    0.565459 0.074339 0.217877 0.181792
H14   H     H_    0.705796 0.895209 0.213795 0.081058
H15   H     H_    0.662400 0.002875 0.309607 0.203208
H16   H     H_    0.757990 0.433412 0.183062 0.075519
H17   H     H_    0.416736 0.973081 0.210478 0.135046
O29   O     O_3   0.561913 0.816014 0.341161 -0.560556
C35   C     C_3   0.679860 0.701389 0.305070 -0.001257
H18   H     H_    0.681826 0.713744 0.242300 0.110188
H19   H     H_    0.675054 0.601416 0.304608 0.144056
C36   C     C_3   0.819184 0.689466 0.351964 -0.342704
H20   H     H_    0.820481 0.681173 0.415790 0.188876
H21   H     H_    0.911577 0.594499 0.326631 0.090588
H22   H     H_    0.831826 0.783646 0.348435 0.125193
O30   O     O_3   0.199100 0.862895 0.275462 -0.602402
C37   C     C_3   0.165558 0.748181 0.255435 -0.014110
H23   H     H_    0.092762 0.758413 0.297901 0.169718
H24   H     H_    0.261972 0.642222 0.257312 0.122917
C38   C     C_3   0.085659 0.752820 0.171803 -0.390041
H25   H     H_    0.028158 0.862172 0.154899 0.170772
H26   H     H_    0.160535 0.683651 0.126560 0.140020
H27   H     H_    0.006803 0.713413 0.169959 0.102020
O31   O     O_3   0.430527 0.056208 0.776345 -0.521426
C39   C     C_3   0.581928 0.988395 0.778518 0.015226
H28   H     H_    0.627885 0.060796 0.806811 0.125302
H29   H     H_    0.614974 0.947371 0.717085 0.126621
C40   C     C_3   0.647409 0.863140 0.827043 -0.337339
H30   H     H_    0.612327 0.783202 0.798470 0.151340
H31   H     H_    0.765879 0.812962 0.830354 0.075380
H32   H     H_    0.615608 0.899121 0.888786 0.177011

loop_
_geom_bond_atom_site_label_1
_geom_bond_atom_site_label_2
_ccdc_geom_bond_type
C24   O13   A    
C35   H18   S    
C2    C18   S    
C2    H16   S    
C37   H23   S    
Cr5   O8    S    
C18   O8    A    
C5    O30   S    
C37   C38   S    
C7    C8    S    
C10   H5    S    
C10   C22   S    
C12   C28   S    
Cr5   O19   S    
C1    C5    S    
Cr3   O3    S    
C28   C29   T    
Cr3   O23   S    
Cr6   O19   S    
C31   H6    S    
C1    O20   A    
C21   O15   A    
C40   H30   S    
C23   O1    A    
Cr1   O1    S    
C30   H2    S    
C31   H7    S    
C9    C13   D    
C20   O11   A    
O27   C31   S    
C23   O23   A    
C24   O18   A    
Cr2   O2    S    
Cr4   O7    S    
C14   C27   S    
C11   O31   S    
C13   H1    S    
C20   O6    A    
C32   H8    S    
Cr5   O15   S    
O30   C37   S    
C32   H10   S    
Cr5   O9    S    
C18   O7    A    
C9    C26   S    
C33   H12   S    
C17   C24   S    
Cr1   O5    S    
Cr5   O16   S    
Cr3   O4    S    
C23   C30   S    
Cr1   O24   S    
C25   O26   A    
O28   C33   S    
C32   H9    S    
Cr6   O18   S    
C19   O9    A    
C16   C17   T    
C22   O17   A    
C33   H11   S    
C25   O25   A    
C31   C32   S    
Cr6   O17   S    
C19   O10   A    
C36   H21   S    
C14   C15   T    
Cr2   O5    S    
C39   H29   S    
Cr4   O6    S    
C1    O12   A    
C22   O16   A    
C27   O24   A    
C34   H14   S    
C38   H26   S    
C35   H19   S    
C3    H4    S    
Cr2   O21   S    
C3    C4    S    
C19   C29   S    
Cr6   O11   S    
C26   O3    A    
C36   H22   S    
C34   H15   S    
C33   C34   S    
C16   C25   S    
O29   C35   S    
Cr3   O5    S    
Cr1   O25   S    
Cr1   O12   S    
C34   H13   S    
C5    C8    D    
C37   H24   S    
C6    C7    D    
C38   H27   S    
C6    C20   S    
Cr4   O13   S    
C2    C3    D    
C9    O27   S    
C21   O14   A    
C12   O22   A    
C11   C13   S    
C36   H20   S    
C7    H17   S    
C40   H31   S    
C39   C40   S    
C8    O29   S    
O31   C39   S    
C4    O28   S    
C10   C11   D    
C12   O21   A    
C27   O4    A    
C15   C21   S    
Cr4   O14   S    
Cr3   O22   S    
C38   H25   S    
C35   C36   S    
C39   H28   S    
Cr4   O19   S    
C6    H3    S    
Cr2   O20   S    
C4    C30   D    
Cr6   O10   S    
C26   O2    A    
Cr2   O26   S    
C40   H32   S    
