data_mof_unit_35614.cif
_audit_creation_date              2012-12-11T15:44:54-0500
_audit_creation_method            fapswitch 2.2
_symmetry_space_group_name_H-M    P1
_symmetry_Int_Tables_number       1
_space_group_crystal_system       triclinic
_cell_length_a                    6.927585
_cell_length_b                    16.812213
_cell_length_c                    17.058117
_cell_angle_alpha                 100.299597
_cell_angle_beta                  90.659351
_cell_angle_gamma                 89.800554
_cell_volume                      1954.58037933

loop_
_atom_site_label
_atom_site_type_symbol
_atom_type_description
_atom_site_fract_x
_atom_site_fract_y
_atom_site_fract_z
_atom_type_partial_charge
O1    O     O_R   0.494370 0.415690 0.413450 -0.538919
O2    O     O_R   0.819420 0.429360 0.578420 -0.546501
O3    O     O_R   0.994280 0.584310 0.586550 -0.545497
C1    C     C_R   0.653749 0.416664 0.607823 0.694001
O4    O     O_R   0.823790 0.406230 0.413570 -0.542144
O5    O     O_R   0.998670 0.561000 0.420530 -0.534713
C2    C     C_R   0.654506 0.383015 0.384925 0.692546
O6    O     O_R   0.489970 0.439000 0.579470 -0.534374
O7    O     O_3   0.662300 0.550810 0.502470 -0.368809
V1    V     V_3+5 0.935380 0.490570 0.499540 1.392161
O8    O     O_R   0.328650 0.570640 0.421580 -0.545110
C3    C     C_R   0.158039 0.589516 0.397949 0.708816
O9    O     O_R   0.324290 0.593770 0.586430 -0.544891
C4    C     C_R   0.155748 0.616432 0.615316 0.688475
V2    V     V_3+5 0.435930 0.509430 0.500460 1.393086
O10   O     O_3   0.159140 0.449190 0.497530 -0.368050
C5    C     C_R   0.296837 0.737925 0.705337 -0.169522
H1    H     H_    0.426062 0.732953 0.669625 0.125467
C6    C     C_R   0.282214 0.801108 0.770625 -0.199005
C7    C     C_R   0.116598 0.810933 0.818810 -0.060928
C8    C     C_R   0.963837 0.753335 0.800361 0.140737
C9    C     C_R   0.980059 0.691465 0.733184 -0.186607
H2    H     H_    0.863879 0.648122 0.718908 0.118311
C10   C     C_R   0.144809 0.683106 0.685279 -0.062897
C11   C     C_R   0.140533 0.644007 0.338490 -0.092848
C12   C     C_R   0.124789 0.866438 0.169722 -0.055560
C13   C     C_R   0.282837 0.847490 0.293146 -0.182986
C14   C     C_R   0.250563 0.893387 0.233708 -0.169817
C15   C     C_R   0.031396 0.791998 0.165641 -0.225460
C16   C     C_R   0.068263 0.743687 0.223860 0.126345
C17   C     C_R   0.194288 0.771273 0.289401 0.134444
C18   C     C_R   0.228004 0.722033 0.348718 0.079726
C19   C     C_R   0.018092 0.618753 0.272666 -0.200671
C20   C     C_R   0.981588 0.667809 0.216565 -0.187412
H3    H     H_    0.948331 0.560213 0.264867 0.127882
H4    H     H_    0.380240 0.872654 0.340900 0.130713
H5    H     H_    0.885454 0.645968 0.166852 0.125397
H6    H     H_    0.324682 0.950673 0.237768 0.117054
H7    H     H_    0.935893 0.770358 0.115651 0.113398
C21   C     C_R   0.659299 0.367938 0.673214 -0.098331
C22   C     C_R   0.605452 0.137217 0.831319 -0.111834
C23   C     C_R   0.416978 0.182732 0.723640 0.131298
C24   C     C_R   0.448161 0.128930 0.777558 -0.157701
C25   C     C_R   0.737039 0.199859 0.830147 -0.241164
C26   C     C_R   0.708893 0.255209 0.777819 0.106006
C27   C     C_R   0.549791 0.247180 0.723894 0.091074
C28   C     C_R   0.528943 0.303617 0.671412 -0.279743
C29   C     C_R   0.809048 0.378697 0.732271 0.141443
C30   C     C_R   0.835593 0.320312 0.781084 -0.176732
H8    H     H_    0.955639 0.326372 0.823058 0.123844
H9    H     H_    0.348253 0.080124 0.779450 0.133473
H10   H     H_    0.856456 0.207728 0.872463 0.125932
C31   C     C_R   0.811859 0.276623 0.282552 -0.157749
H11   H     H_    0.952753 0.296192 0.306451 0.116419
C32   C     C_R   0.801132 0.212839 0.217433 -0.153067
H12   H     H_    0.934136 0.185123 0.193332 0.117334
C33   C     C_R   0.621479 0.185222 0.184044 -0.047820
C34   C     C_R   0.452843 0.223142 0.217706 -0.157973
H13   H     H_    0.311951 0.203565 0.193809 0.116123
C35   C     C_R   0.463570 0.286927 0.282825 -0.153545
H14   H     H_    0.330568 0.314639 0.306932 0.117983
C36   C     C_R   0.643230 0.314578 0.316181 -0.049616
O11   O     O_R   0.774880 0.061150 0.920630 -0.536010
O12   O     O_R   0.440980 0.093710 0.086500 -0.543739
O13   O     O_R   0.266190 0.938890 0.079390 -0.536564
C37   C     C_R   0.610238 0.116873 0.115216 0.687622
O14   O     O_R   0.445420 0.070740 0.921670 -0.542182
O15   O     O_R   0.270660 0.915760 0.913380 -0.541825
C38   C     C_R   0.611643 0.086108 0.894400 0.706776
O16   O     O_R   0.770400 0.084270 0.086640 -0.540542
O17   O     O_3   0.602590 0.949210 0.997500 -0.365116
V3    V     V_3+5 0.329470 0.009420 0.000470 1.399344
O18   O     O_R   0.940650 0.906250 0.913470 -0.541240
C39   C     C_R   0.108772 0.881633 0.886048 0.686227
O19   O     O_R   0.936210 0.929220 0.078300 -0.537809
C40   C     C_R   0.106550 0.914057 0.105056 0.695528
V4    V     V_3+5 0.828930 0.990510 0.999490 1.399920
O20   O     O_3   0.105680 0.050790 0.002500 -0.368277
H15   H     H_    0.415357 0.296808 0.626706 0.125208
C41   C     C_3   0.944169 0.451186 0.745800 -0.349974
C42   C     C_3   0.927841 0.500306 0.829959 -0.792688
H16   H     H_    0.777181 0.521853 0.841209 0.232879
H17   H     H_    0.972177 0.464162 0.875553 0.228761
H18   H     H_    0.024689 0.553589 0.835942 0.223951
H19   H     H_    0.095342 0.429816 0.735466 0.178723
H20   H     H_    0.913422 0.494167 0.705296 0.187206
C43   C     C_3   0.241626 0.174055 0.667603 -0.365057
C44   C     C_3   0.101387 0.105495 0.674271 -0.762603
H21   H     H_    0.174334 0.045917 0.658604 0.220487
H22   H     H_    0.042104 0.112988 0.735342 0.232189
H23   H     H_    0.978738 0.106944 0.632040 0.224192
H24   H     H_    0.157843 0.231403 0.679064 0.186173
H25   H     H_    0.293075 0.164504 0.605145 0.178203
H26   H     H_    0.400929 0.843424 0.782662 0.120433
C45   C     C_3   0.783133 0.753496 0.850193 -0.345438
C46   C     C_3   0.827361 0.731396 0.931675 -0.721418
H27   H     H_    0.885984 0.669080 0.924362 0.213519
H28   H     H_    0.933707 0.773268 0.965961 0.213794
H29   H     H_    0.692447 0.734178 0.966591 0.210194
H30   H     H_    0.706785 0.812235 0.856360 0.194088
H31   H     H_    0.676695 0.708562 0.819887 0.168045
C47   C     C_3   0.343147 0.755003 0.424384 -0.377690
C48   C     C_3   0.222571 0.814329 0.482464 -0.772402
H32   H     H_    0.174827 0.866400 0.455251 0.232315
H33   H     H_    0.093458 0.783225 0.500467 0.224136
H34   H     H_    0.309936 0.837557 0.536674 0.217366
H35   H     H_    0.392806 0.707482 0.456792 0.198341
H36   H     H_    0.478965 0.783695 0.409952 0.173466

loop_
_geom_bond_atom_site_label_1
_geom_bond_atom_site_label_2
_ccdc_geom_bond_type
C21   C28   A    
C32   H12   S    
C20   H5    S    
O18   C39   A    
C6    C7    A    
C28   H15   S    
C33   C37   S    
C1    O6    A    
C42   H16   S    
V4    O20   S    
C41   H19   S    
O13   C40   A    
O5    C3    A    
C16   C17   A    
C34   C35   A    
V2    O10   S    
C46   H29   S    
C35   C36   A    
O14   V3    S    
C23   C27   A    
C4    C10   S    
V3    O20   S    
C48   H32   S    
C5    C6    A    
O8    V2    S    
C1    C21   S    
C46   H28   S    
C12   C40   S    
C47   H36   S    
O1    V2    S    
C14   H6    S    
O7    V1    S    
C25   H10   S    
C11   C18   A    
C8    C9    A    
O16   V4    S    
C22   C24   A    
C42   H17   S    
C19   C20   A    
C31   C32   A    
C5    C10   A    
C16   C20   A    
C13   C17   A    
O11   C38   A    
O4    C2    A    
C45   H30   S    
C6    H26   S    
C8    C45   S    
C34   H13   S    
C31   H11   S    
C35   H14   S    
O14   C38   A    
O12   C37   A    
C43   C44   S    
O2    C1    A    
O19   C40   A    
C2    C36   S    
C15   C16   A    
C31   C36   A    
C17   C18   A    
C44   H23   S    
C26   C30   A    
O15   V3    S    
C46   H27   S    
C15   H7    S    
C5    H1    S    
C7    C39   S    
C47   H35   S    
C48   H33   S    
C7    C8    A    
O19   V4    S    
O3    C4    A    
C29   C30   A    
C44   H22   S    
O6    V2    S    
C32   C33   A    
C22   C25   A    
C18   C47   S    
C23   C24   A    
O2    V1    S    
O17   V4    S    
C42   H18   S    
C43   H24   S    
C25   C26   A    
C22   C38   S    
O11   V4    S    
C21   C29   A    
C27   C28   A    
O1    C2    A    
C41   C42   S    
O5    V1    S    
O8    C3    A    
C13   H4    S    
O13   V3    S    
C12   C14   A    
C3    C11   S    
C29   C41   S    
O9    V2    S    
O7    V2    S    
O4    V1    S    
O3    V1    S    
V1    O10   S    
C24   H9    S    
C33   C34   A    
C37   O16   A    
C43   H25   S    
C19   H3    S    
C48   H34   S    
C9    C10   A    
O12   V3    S    
C47   C48   S    
C26   C27   A    
C41   H20   S    
O17   V3    S    
C44   H21   S    
C12   C15   A    
C30   H8    S    
C45   C46   S    
O18   V4    S    
C9    H2    S    
C23   C43   S    
O9    C4    A    
O15   C39   A    
C45   H31   S    
C11   C19   A    
C13   C14   A    
