data_mof_unit_48104.cif
_audit_creation_date              2012-12-11T14:13:05-0500
_audit_creation_method            fapswitch 2.2
_symmetry_space_group_name_H-M    P1
_symmetry_Int_Tables_number       1
_space_group_crystal_system       triclinic
_cell_length_a                    11.695731
_cell_length_b                    18.550777
_cell_length_c                    9.930697
_cell_angle_alpha                 90.002752
_cell_angle_beta                  111.345978
_cell_angle_gamma                 89.99993
_cell_volume                      2006.80499966

loop_
_atom_site_label
_atom_site_type_symbol
_atom_type_description
_atom_site_fract_x
_atom_site_fract_y
_atom_site_fract_z
_atom_type_partial_charge
C1    C     C_R   0.073803 0.645917 0.139438 0.560316
C2    C     C_R   0.927818 0.352842 0.860596 0.595268
C3    C     C_R   0.926211 0.145932 0.860549 0.560664
C4    C     C_R   0.072193 0.852846 0.139412 0.595100
C5    C     C_R   0.395818 0.458333 0.472908 -0.072360
C6    C     C_R   0.608700 0.544683 0.536898 -0.060217
C7    C     C_R   0.604204 0.958320 0.527167 -0.072294
C8    C     C_R   0.391315 0.044674 0.463086 -0.060165
C9    C     C_2   0.408558 0.920336 0.902787 0.373778
C10   C     C_2   0.627374 0.061783 0.023837 0.416545
C11   C     C_2   0.591454 0.420344 0.097222 0.373829
C12   C     C_2   0.372524 0.561763 0.976281 0.415692
C13   C     C_2   0.521123 0.947942 0.959476 -0.084767
C14   C     C_2   0.544029 0.021776 0.924560 -0.091891
C15   C     C_2   0.478885 0.447948 0.040565 -0.084798
C16   C     C_2   0.455988 0.521788 0.075485 -0.092199
C17   C     C_2   0.009045 0.920356 0.110204 0.419043
C18   C     C_2   0.994244 0.079161 0.893889 0.408932
C19   C     C_2   0.990851 0.420389 0.889759 0.418906
C20   C     C_2   0.005714 0.579151 0.106030 0.408422
C21   C     C_2   0.045908 0.969575 0.036144 0.364429
C22   C     C_2   0.983647 0.037834 0.999611 0.365138
C23   C     C_2   0.953763 0.469642 0.963552 0.364273
C24   C     C_2   0.015801 0.537977 0.999806 0.365313
C25   C     C_R   0.469386 0.647185 0.443578 0.590841
C26   C     C_R   0.531597 0.353603 0.558163 0.620821
C27   C     C_R   0.530618 0.147182 0.556425 0.590882
C28   C     C_R   0.468407 0.853601 0.441846 0.620807
C29   C     C_R   0.354482 0.637060 0.005316 0.549114
C30   C     C_R   0.623453 0.354335 0.039225 0.587096
C31   C     C_R   0.645484 0.137055 0.994735 0.549547
C32   C     C_R   0.376549 0.854333 0.960778 0.587024
C33   C     C_R   0.509399 0.426125 0.492230 0.041751
C34   C     C_R   0.494868 0.576399 0.516241 0.051939
C35   C     C_R   0.490611 0.926118 0.507803 0.041712
C36   C     C_R   0.505159 0.076388 0.483784 0.051935
C37   C     C_R   0.285069 0.418261 0.425422 0.353531
C38   C     C_R   0.718106 0.585940 0.583386 0.368783
C39   C     C_R   0.714945 0.918241 0.574684 0.353643
C40   C     C_R   0.281901 0.085924 0.416529 0.368886
C41   C     C_R   0.176584 0.449297 0.425833 0.493587
C42   C     C_R   0.828194 0.555380 0.587949 0.498366
C43   C     C_R   0.823456 0.949273 0.574342 0.493349
C44   C     C_R   0.171793 0.055359 0.411907 0.497973
C45   C     C_R   0.178407 0.518836 0.479292 0.475918
C46   C     C_R   0.829665 0.484833 0.541298 0.464378
C47   C     C_R   0.821671 0.018813 0.520921 0.475544
C48   C     C_R   0.170324 0.984826 0.458624 0.464361
C49   C     C_R   0.285919 0.559148 0.521868 -0.097773
C50   C     C_R   0.723167 0.443529 0.498567 -0.096729
C51   C     C_R   0.714161 0.059127 0.478292 -0.097608
C52   C     C_R   0.276832 0.943531 0.501419 -0.096608
C53   C     C_R   0.392812 0.531943 0.505258 -0.144522
C54   C     C_R   0.613338 0.470601 0.508222 -0.142084
C55   C     C_R   0.607232 0.031928 0.494830 -0.144417
C56   C     C_R   0.386671 0.970597 0.491783 -0.142107
Cr1   Cr    Cr6+3 0.187610 0.750000 0.979860 1.246950
Cr2   Cr    Cr6+3 0.812390 0.250000 0.020140 1.246868
Cr3   Cr    Cr6+3 0.245810 0.750000 0.341640 1.095624
Cr4   Cr    Cr6+3 0.754190 0.250000 0.658360 1.095630
Cr5   Cr    Cr6+3 0.485760 0.750000 0.219910 1.139725
Cr6   Cr    Cr6+3 0.514240 0.250000 0.780090 1.139801
O1    O     O_R   0.267710 0.668200 0.902110 -0.397384
O2    O     O_R   0.732290 0.331800 0.097890 -0.395657
O3    O     O_R   0.732290 0.168200 0.097890 -0.397447
O4    O     O_R   0.267710 0.831800 0.902110 -0.395605
O5    O     O_R   0.099480 0.674460 0.038850 -0.470501
O6    O     O_R   0.900520 0.325540 0.961150 -0.457454
O7    O     O_R   0.900520 0.174460 0.961150 -0.470499
O8    O     O_R   0.099480 0.825540 0.038850 -0.457403
O9    O     O_R   0.116720 0.669210 0.267660 -0.474467
O10   O     O_R   0.883280 0.330790 0.732340 -0.480734
O11   O     O_R   0.883280 0.169210 0.732340 -0.474672
O12   O     O_R   0.116720 0.830790 0.267660 -0.480704
O13   O     O_R   0.366710 0.675440 0.427590 -0.541832
O14   O     O_R   0.633290 0.324560 0.572410 -0.539038
O15   O     O_R   0.633290 0.175440 0.572410 -0.541846
O16   O     O_R   0.366710 0.824560 0.427590 -0.539046
O17   O     O_R   0.534870 0.669390 0.371760 -0.453616
O18   O     O_R   0.465130 0.330610 0.628240 -0.428242
O19   O     O_R   0.465130 0.169390 0.628240 -0.453579
O20   O     O_R   0.534870 0.830610 0.371760 -0.428228
O21   O     O_R   0.453080 0.674480 0.075160 -0.534486
O22   O     O_R   0.546920 0.325520 0.924840 -0.543260
O23   O     O_R   0.546920 0.174480 0.924840 -0.534590
O24   O     O_R   0.453080 0.825520 0.075160 -0.543270
O25   O     O_3   0.306390 0.750000 0.180470 -0.343100
O26   O     O_3   0.693610 0.250000 0.819530 -0.343027
F1    F     F_    0.070302 0.411283 0.376653 -0.448011
F2    F     F_    0.932806 0.594946 0.634858 -0.434985
F3    F     F_    0.929728 0.911251 0.623543 -0.448153
F4    F     F_    0.067155 0.094900 0.364866 -0.435579
F5    F     F_    0.075090 0.548987 0.485229 -0.418860
F6    F     F_    0.934952 0.454988 0.540551 -0.427090
F7    F     F_    0.925021 0.048959 0.515059 -0.419120
F8    F     F_    0.065030 0.954988 0.459369 -0.427127
F9    F     F_    0.280810 0.350322 0.372659 -0.537334
F10   F     F_    0.719405 0.654821 0.630504 -0.529712
F11   F     F_    0.719168 0.850300 0.627411 -0.537321
F12   F     F_    0.280614 0.154798 0.369395 -0.529770
H1    H     H_    0.284398 0.611623 0.568613 0.214316
H2    H     H_    0.727835 0.391082 0.453669 0.216565
H3    H     H_    0.715712 0.111597 0.431553 0.214397
H4    H     H_    0.272162 0.891091 0.546338 0.216588
H5    H     H_    0.486646 0.045351 0.821839 0.145080
H6    H     H_    0.593001 0.919100 0.043907 0.190536
H7    H     H_    0.513481 0.545399 0.178125 0.145299
H8    H     H_    0.406995 0.419096 0.956161 0.190502
F13   F     F_    0.698872 0.032440 0.152936 -0.536717
F14   F     F_    0.316611 0.958760 0.804541 -0.558141
F15   F     F_    0.300876 0.532376 0.847285 -0.536572
F16   F     F_    0.683414 0.458772 0.195451 -0.558212
F17   F     F_    0.909474 0.057514 0.072100 -0.541660
F18   F     F_    0.144591 0.956942 0.997057 -0.568366
F19   F     F_    0.089293 0.557839 0.926546 -0.540478
F20   F     F_    0.855078 0.456983 0.002613 -0.568572
F21   F     F_    0.059781 0.057820 0.812334 -0.489264
F22   F     F_    0.916646 0.932216 0.160181 -0.507193
F23   F     F_    0.940757 0.557599 0.188112 -0.489414
F24   F     F_    0.083352 0.432264 0.839965 -0.507441

loop_
_geom_bond_atom_site_label_1
_geom_bond_atom_site_label_2
_ccdc_geom_bond_type
C41   F1    S    
C29   O1    A    
C31   O23   A    
C5    C37   A    
C12   C29   S    
C7    C55   A    
Cr1   O4    S    
C38   F10   S    
C45   F5    S    
C8    C56   A    
C4    O8    A    
Cr4   O26   S    
C50   C54   A    
C3    C18   S    
C7    C39   A    
C5    C53   A    
C3    O7    A    
Cr1   O5    S    
C29   O21   A    
C30   O2    A    
Cr5   O20   S    
C49   H1    S    
Cr4   O10   S    
C51   H3    S    
C15   C16   S    
Cr3   O12   S    
Cr4   O11   S    
C33   C54   A    
C10   F13   S    
C42   C46   A    
C9    C13   D    
Cr5   O25   S    
C16   H7    S    
C23   F20   S    
C11   F16   S    
C11   C15   D    
C10   C31   S    
C22   F17   S    
C20   C24   D    
C11   C30   S    
C5    C33   A    
C26   O14   A    
C23   C24   S    
C6    C38   A    
Cr1   O8    S    
C28   O16   A    
C40   C44   A    
C4    O12   A    
C44   F4    S    
C25   C34   S    
C2    C19   S    
C18   C22   D    
C21   C22   S    
C37   C41   A    
C6    C54   A    
C2    O10   A    
Cr3   O16   S    
C37   F9    S    
Cr1   O1    S    
Cr3   O25   S    
C14   H5    S    
Cr2   O2    S    
Cr6   O23   S    
Cr4   O15   S    
C28   O20   A    
C12   C16   D    
C27   O19   A    
C44   C48   A    
C28   C35   S    
Cr5   O21   S    
C13   H6    S    
C39   C43   A    
Cr6   O26   S    
Cr4   O14   S    
C26   O18   A    
Cr1   O25   S    
C25   O13   A    
C15   H8    S    
C19   C23   D    
Cr2   O3    S    
C39   F11   S    
C46   F6    S    
C45   C49   A    
C32   O24   A    
C1    O9    A    
C18   F21   S    
C17   F22   S    
C34   C53   A    
C4    C17   S    
Cr2   O6    S    
Cr6   O19   S    
C19   F24   S    
C50   H2    S    
C10   C14   D    
C9    C32   S    
Cr3   O13   S    
C32   O4    A    
Cr6   O18   S    
C9    F14   S    
C31   O3    A    
Cr6   O22   S    
C52   H4    S    
C1    C20   S    
C41   C45   A    
C48   F8    S    
C35   C56   A    
C25   O17   A    
C7    C35   A    
C21   F18   S    
C27   O15   A    
Cr2   O26   S    
C40   F12   S    
C47   C51   A    
Cr2   O7    S    
C8    C36   A    
C27   C36   S    
C46   C50   A    
C2    O6    A    
C36   C55   A    
Cr5   O17   S    
C49   C53   A    
C1    O5    A    
C51   C55   A    
C12   F15   S    
C30   O22   A    
C3    O11   A    
C43   F3    S    
Cr5   O24   S    
C38   C42   A    
C6    C34   A    
C48   C52   A    
C24   F19   S    
C47   F7    S    
C8    C40   A    
C42   F2    S    
C13   C14   S    
C43   C47   A    
C20   F23   S    
C52   C56   A    
C26   C33   S    
Cr3   O9    S    
C17   C21   D    
