data_mof_unit_53166.cif
_audit_creation_date              2013-03-05T16:02:24-0500
_audit_creation_method            fapswitch 2.2
_symmetry_space_group_name_H-M    P1
_symmetry_Int_Tables_number       1
_space_group_crystal_system       triclinic
_cell_length_a                    15.05459
_cell_length_b                    14.013439
_cell_length_c                    10.697398
_cell_angle_alpha                 90.68736
_cell_angle_beta                  89.337007
_cell_angle_gamma                 88.924028
_cell_volume                      2256.07609099

loop_
_atom_site_label
_atom_site_type_symbol
_atom_site_description
_atom_site_fract_x
_atom_site_fract_y
_atom_site_fract_z
_atom_type_partial_charge
O1    O     O_R   0.367860 0.580280 0.500020 -0.637354
O2    O     O_R   0.367860 0.419720 0.500020 -0.612508
C1    C     C_R   0.326853 0.500920 0.497704 0.887672
O3    O     O_R   0.500000 0.580270 0.314790 -0.630954
O4    O     O_R   0.500000 0.419730 0.314790 -0.621180
C2    C     C_R   0.500680 0.499806 0.257552 0.904983
Zn1   Zn    Zn3+2 0.500020 0.607200 0.499990 0.984146
Zn2   Zn    Zn3+2 0.500020 0.392800 0.499990 1.002726
O5    O     O_R   0.632160 0.580270 0.499960 -0.639623
O6    O     O_R   0.632160 0.419730 0.499960 -0.578333
O7    O     O_R   0.500030 0.580270 0.685200 -0.622454
O8    O     O_R   0.500030 0.419730 0.685200 -0.602845
C3    C     C_R   0.673022 0.499189 0.500451 0.916689
C4    C     C_R   0.496744 0.500595 0.742550 0.888861
C5    C     C_3   0.501951 0.604927 0.074746 -0.403777
C6    C     C_3   0.411725 0.455086 0.076505 -0.413212
H1    H     H_    0.565452 0.638027 0.103414 0.189139
H2    H     H_    0.401811 0.384483 0.120656 0.175714
H3    H     H_    0.447427 0.648975 0.118688 0.231643
H4    H     H_    0.355532 0.502593 0.107042 0.253759
C7    C     C_3   0.495276 0.606427 0.932672 0.175462
C8    C     C_3   0.415635 0.441189 0.932992 0.210249
H5    H     H_    0.557111 0.640118 0.897069 0.139974
H6    H     H_    0.432869 0.364296 0.916056 0.130547
H7    H     H_    0.642479 0.475543 0.103946 0.253205
H8    H     H_    0.578284 0.368564 0.095308 0.238570
H9    H     H_    0.640003 0.491569 0.893093 0.236056
H10   H     H_    0.588949 0.377925 0.883211 0.227912
C9    C     C_3   0.580422 0.444750 0.067293 -0.306738
C10   C     C_3   0.498870 0.500518 0.121581 -0.042124
C11   C     C_3   0.494278 0.501327 0.879124 -0.124905
C12   C     C_3   0.581265 0.451151 0.923976 -0.517920
C13   C     C_R   0.815963 0.450647 0.408067 0.304655
C14   C     C_R   0.768347 0.496823 0.505505 -0.259001
C15   C     C_R   0.811478 0.538616 0.608098 -0.075674
C16   C     C_R   0.904565 0.543799 0.603760 0.131993
C17   C     C_R   0.952866 0.492522 0.509544 -0.023717
C18   C     C_R   0.907968 0.438573 0.418216 -0.094313
C19   C     C_R   0.950405 0.600703 0.689272 -0.111289
C20   C     C_R   0.041798 0.605729 0.683889 -0.129341
C21   C     C_R   0.090939 0.555854 0.590873 0.103397
C22   C     C_R   0.046159 0.496636 0.505003 0.046713
C23   C     C_R   0.094055 0.442220 0.413710 0.055367
C24   C     C_R   0.048514 0.379331 0.335316 -0.187965
C25   C     C_R   0.956612 0.376231 0.337248 0.308212
C26   C     C_R   0.183831 0.561489 0.584267 -0.055899
C27   C     C_R   0.230913 0.502808 0.497066 -0.181766
C28   C     C_R   0.186845 0.447386 0.407169 -0.033771
H11   H     H_    0.916492 0.644562 0.759259 0.209905
H12   H     H_    0.072892 0.648590 0.755022 0.214425
H13   H     H_    0.083871 0.328548 0.275261 0.216248
C29   C     C_R   0.561769 0.795382 0.429226 0.023653
C30   C     C_R   0.560685 0.200640 0.427438 0.040074
N1    N     N_R   0.500070 0.750030 0.500050 -0.134465
N2    N     N_R   0.500070 0.249970 0.500050 -0.131135
C31   C     C_R   0.437081 0.800516 0.566640 0.037603
C32   C     C_R   0.438893 0.203253 0.570156 -0.045662
C33   C     C_R   0.436665 0.900966 0.568630 0.043260
C34   C     C_R   0.437376 0.102790 0.569968 0.045100
C35   C     C_R   0.500581 0.949327 0.497060 0.041967
C36   C     C_R   0.500172 0.050504 0.496321 0.059721
C37   C     C_R   0.563959 0.896344 0.425618 -0.143427
C38   C     C_R   0.562092 0.099509 0.422215 -0.151120
C39   C     C_R   0.373762 0.953747 0.640081 -0.116789
C40   C     C_R   0.374470 0.053776 0.641365 -0.183579
C41   C     C_R   0.624165 0.046451 0.347128 0.204002
C42   C     C_R   0.625830 0.945165 0.350395 0.220097
H14   H     H_    0.608159 0.751933 0.374492 0.184354
H15   H     H_    0.608051 0.240972 0.374636 0.219625
H16   H     H_    0.386959 0.762199 0.617616 0.185405
H17   H     H_    0.391325 0.244493 0.626191 0.172732
H18   H     H_    0.324322 0.917612 0.695589 0.198648
H19   H     H_    0.325612 0.092847 0.697955 0.170664
C43   C     C_2   0.232688 0.628608 0.666707 0.501528
H20   H     H_    0.292642 0.604960 0.712826 0.146076
O9    O     O_2   0.209502 0.712362 0.676945 -0.561544
C44   C     C_2   0.237603 0.401519 0.300951 0.344381
H21   H     H_    0.297896 0.360289 0.316423 0.096139
O10   O     O_2   0.212804 0.411597 0.193570 -0.505112
N3    N     N_R   0.914591 0.302332 0.266596 0.253661
O11   O     O_R   0.859730 0.245828 0.322518 -0.280727
O12   O     O_R   0.943107 0.280168 0.154469 -0.280695
N4    N     N_R   0.686205 0.094545 0.267895 0.247394
O13   O     O_R   0.770294 0.071564 0.270238 -0.226597
O14   O     O_R   0.657532 0.152523 0.182571 -0.336120
N5    N     N_R   0.688666 0.892343 0.273569 0.224643
O15   O     O_R   0.689206 0.902824 0.152885 -0.300609
O16   O     O_R   0.749305 0.838763 0.324777 -0.344568
N6    N     N_R   0.419676 0.666810 0.894858 0.211185
O17   O     O_R   0.435485 0.747669 0.841428 -0.400927
O18   O     O_R   0.340514 0.653268 0.940287 -0.348700
N7    N     N_R   0.329540 0.457485 0.871929 0.205000
O19   O     O_R   0.317705 0.420034 0.761778 -0.448414
O20   O     O_R   0.259190 0.484387 0.935955 -0.286896
N8    N     N_R   0.773383 0.430025 0.291349 0.200396
O21   O     O_R   0.710793 0.367602 0.284962 -0.368918
O22   O     O_R   0.803856 0.466890 0.188709 -0.341768
C45   C     C_2   0.758965 0.574510 0.718908 0.368744
H22   H     H_    0.694089 0.607854 0.708082 0.093896
O23   O     O_2   0.786386 0.563241 0.824796 -0.533739

loop_
_geom_bond_atom_site_label_1
_geom_bond_atom_site_label_2
_geom_bond_distance
_ccdc_geom_bond_type
C21   C22   1.415616 A    
N8    O21   1.299522 A    
C4    C11   1.460946 S    
C30   H15   1.077232 S    
C7    N6    1.468898 S    
C44   H21   1.082208 S    
C5    H3    1.113927 S    
C7    C11   1.574262 S    
C17   C18   1.414090 A    
C43   O9    1.221489 D    
C37   C42   1.415255 A    
N4    O13   1.300966 A    
C16   C17   1.416658 A    
C9    C12   1.536727 S    
O4    C2    1.284904 A    
Zn2   O6    2.031739 S    
O7    C4    1.281893 A    
N5    O16   1.301110 A    
C32   C34   1.408415 A    
C33   C35   1.411108 A    
C40   H19   1.083458 S    
C35   C37   1.410181 A    
C14   C15   1.408696 A    
C17   C22   1.407055 A    
C36   C38   1.410319 A    
O5    C3    1.281960 A    
C18   C25   1.411678 A    
C41   N4    1.436667 S    
C15   C16   1.404891 A    
C21   C26   1.403179 A    
N6    O18   1.299908 A    
C15   C45   1.494058 S    
C23   C28   1.401138 A    
C11   C12   1.558077 S    
C29   H14   1.080422 S    
C6    H4    1.110317 S    
C44   O10   1.220929 D    
C41   C42   1.419971 A    
C38   C41   1.418965 A    
H7    C9    1.110098 S    
O3    Zn1   2.012334 S    
C13   N8    1.438810 S    
Zn2   N2    2.001535 S    
C29   N1    1.363124 A    
C30   N2    1.364172 A    
C33   C39   1.404077 A    
N1    C31   1.361718 A    
C34   C36   1.412141 A    
C8    C11   1.573945 S    
H10   C12   1.113626 S    
N3    O12   1.301388 A    
C43   H20   1.082061 S    
C19   C20   1.379573 A    
N5    O15   1.301035 A    
C35   C36   1.417851 A    
O1    C1    1.282180 A    
C28   C44   1.494002 S    
Zn1   O7    2.021330 S    
C23   C24   1.402949 A    
C9    C10   1.546570 S    
C27   C28   1.408658 A    
Zn2   O8    2.012436 S    
N7    O20   1.301884 A    
C13   C14   1.402901 A    
C32   H17   1.082751 S    
C24   H13   1.081378 S    
O3    C2    1.276445 A    
C20   C21   1.404533 A    
C19   H11   1.080403 S    
O8    C4    1.281974 A    
C31   H16   1.080630 S    
C7    H5    1.116765 S    
C8    H6    1.115773 S    
C22   C23   1.414328 A    
C26   C43   1.491465 S    
C24   C25   1.384965 A    
C5    C10   1.553545 S    
C5    H1    1.114961 S    
C26   C27   1.411799 A    
C42   N5    1.435044 S    
C6    C8    1.545500 S    
C2    C10   1.455252 S    
H9    C12   1.108350 S    
O1    Zn1   2.032009 S    
C16   C19   1.402381 A    
O2    Zn2   2.018087 S    
N3    O11   1.300551 A    
O6    C3    1.282175 A    
O4    Zn2   2.021227 S    
N8    O22   1.301448 A    
C45   O23   1.221108 D    
C13   C18   1.397874 A    
C39   C40   1.401905 A    
N2    C32   1.362968 A    
O2    C1    1.284971 A    
C3    C14   1.436499 S    
C29   C37   1.416816 A    
C34   C40   1.404356 A    
C30   C38   1.417378 A    
C20   H12   1.080165 S    
C1    C27   1.444186 S    
N7    O19   1.299678 A    
C31   C33   1.407452 A    
C25   N3    1.435526 S    
C39   H18   1.083570 S    
N4    O14   1.301253 A    
Zn1   O5    2.017813 S    
C5    C7    1.524677 S    
H8    C9    1.113291 S    
C6    H2    1.113265 S    
C45   H22   1.082783 S    
C8    N7    1.473382 S    
Zn1   N1    2.001546 S    
N6    O17   1.299918 A    
C6    C10   1.548450 S    
