data_mof_unit_34595.cif
_audit_creation_date              2012-12-11T17:06:35-0500
_audit_creation_method            fapswitch 2.2
_symmetry_space_group_name_H-M    P1
_symmetry_Int_Tables_number       1
_space_group_crystal_system       triclinic
_cell_length_a                    6.937113
_cell_length_b                    14.67073
_cell_length_c                    15.864636
_cell_angle_alpha                 90.261996
_cell_angle_beta                  89.16049
_cell_angle_gamma                 89.69098
_cell_volume                      1614.36959093

loop_
_atom_site_label
_atom_site_type_symbol
_atom_type_description
_atom_site_fract_x
_atom_site_fract_y
_atom_site_fract_z
_atom_type_partial_charge
O1    O     O_R   0.494400 0.415450 0.412630 -0.529398
O2    O     O_R   0.823940 0.405730 0.586760 -0.542368
O3    O     O_R   0.994240 0.584550 0.587370 -0.543327
C1    C     C_R   0.654596 0.383201 0.615025 0.774768
O4    O     O_R   0.824110 0.404430 0.413240 -0.547093
O5    O     O_R   0.994420 0.583240 0.412620 -0.549349
C2    C     C_R   0.657246 0.384497 0.382392 0.718099
O6    O     O_R   0.494230 0.416760 0.587380 -0.519547
O7    O     O_3   0.660800 0.558670 0.500000 -0.379565
V1    V     V_3+5 0.935650 0.489120 0.500000 1.463192
O8    O     O_R   0.324140 0.594270 0.413240 -0.546889
C3    C     C_R   0.156445 0.613088 0.381640 0.672375
O9    O     O_R   0.323960 0.595570 0.586760 -0.527341
C4    C     C_R   0.153886 0.618072 0.615298 0.738002
V2    V     V_3+5 0.435660 0.510880 0.500000 1.493197
O10   O     O_3   0.160640 0.441330 0.500000 -0.347424
C5    C     C_3   0.955166 0.715754 0.733978 -0.172142
C6    C     C_3   0.061369 0.706374 0.819103 -0.127639
H1    H     H_    0.003961 0.672635 0.876629 0.152499
H2    H     H_    0.807842 0.690516 0.721082 0.169865
C7    C     C_3   0.124601 0.806867 0.812644 -0.078654
C8    C     C_3   0.017534 0.817038 0.728851 -0.165026
C9    C     C_3   0.203964 0.787829 0.681187 -0.004938
C10   C     C_3   0.311878 0.778824 0.765363 -0.194375
C11   C     C_3   0.246695 0.678248 0.770145 0.418188
C12   C     C_3   0.141616 0.687420 0.685744 -0.121619
H3    H     H_    0.922409 0.875052 0.711871 0.111086
H4    H     H_    0.459192 0.802822 0.779991 0.127605
C13   C     C_R   0.302659 0.777884 0.208128 0.150827
C14   C     C_R   0.128912 0.797051 0.167216 -0.129289
C15   C     C_R   0.970832 0.740718 0.188150 -0.191443
H5    H     H_    0.836659 0.747521 0.154803 0.139500
C16   C     C_R   0.981100 0.678745 0.256223 -0.178770
H6    H     H_    0.855305 0.638778 0.272208 0.128473
C17   C     C_R   0.149769 0.671100 0.304844 -0.111594
C18   C     C_R   0.313702 0.715584 0.273557 0.120635
C19   C     C_3   0.465174 0.768580 0.317378 -0.437054
C20   C     C_3   0.450412 0.838170 0.246872 -0.440645
H7    H     H_    0.605329 0.732179 0.317775 0.175982
H8    H     H_    0.416547 0.793996 0.379915 0.189462
H9    H     H_    0.583513 0.843249 0.207560 0.176949
H10   H     H_    0.390686 0.904278 0.269317 0.164149
C21   C     C_R   0.494520 0.316134 0.743280 0.114708
C22   C     C_R   0.646466 0.316244 0.684261 -0.105543
C23   C     C_R   0.797151 0.252841 0.695608 -0.158610
H11   H     H_    0.918472 0.250859 0.652057 0.143166
C24   C     C_R   0.786473 0.187164 0.759886 -0.111649
H12   H     H_    0.899957 0.136608 0.764106 0.124959
C25   C     C_R   0.625110 0.183228 0.814666 -0.150177
C26   C     C_R   0.484090 0.251266 0.806947 0.131742
C27   C     C_3   0.271179 0.242641 0.798742 0.225899
C28   C     C_3   0.282572 0.313857 0.729420 -0.423945
H13   H     H_    0.227548 0.173989 0.776480 0.069293
H14   H     H_    0.211784 0.379906 0.745757 0.237268
H15   H     H_    0.247529 0.286470 0.666074 0.165060
C29   C     C_R   0.503998 0.250152 0.315404 0.115215
C30   C     C_R   0.650359 0.314308 0.314962 -0.146432
C31   C     C_R   0.785797 0.309318 0.248642 -0.214414
H16   H     H_    0.904872 0.356689 0.245994 0.126978
C32   C     C_R   0.765734 0.244068 0.183829 -0.130593
H17   H     H_    0.872247 0.243016 0.133217 0.153148
C33   C     C_R   0.609091 0.182290 0.182661 -0.093604
C34   C     C_R   0.478640 0.182726 0.253774 0.013209
C35   C     C_3   0.258789 0.199887 0.267096 -0.265674
C36   C     C_3   0.304354 0.265214 0.339641 0.174957
H18   H     H_    0.200360 0.236983 0.211910 0.120550
H19   H     H_    0.250362 0.335529 0.328482 0.092666
O11   O     O_R   0.771650 0.079500 0.908680 -0.528986
O12   O     O_R   0.441690 0.091800 0.082800 -0.538937
O13   O     O_R   0.271460 0.912980 0.083410 -0.543351
C37   C     C_R   0.607049 0.112331 0.113850 0.712471
O14   O     O_R   0.441930 0.090510 0.909280 -0.532542
O15   O     O_R   0.271690 0.911670 0.908660 -0.544651
C38   C     C_R   0.611455 0.112472 0.880493 0.727988
O16   O     O_R   0.771410 0.080810 0.083440 -0.531814
O17   O     O_3   0.605100 0.937580 0.996050 -0.379276
V3    V     V_3+5 0.330220 0.007110 0.996030 1.474856
O18   O     O_R   0.941980 0.900620 0.909250 -0.545658
C39   C     C_R   0.112184 0.877236 0.881704 0.697247
O19   O     O_R   0.941740 0.901920 0.082770 -0.547574
C40   C     C_R   0.112365 0.874012 0.106222 0.672887
V4    V     V_3+5 0.830220 0.985300 0.996000 1.451920
O20   O     O_3   0.105210 0.054870 0.996020 -0.345594
Cl1   Cl    Cl    0.146907 0.282110 0.891342 -0.590867
C41   C     C_R   0.115854 0.126753 0.295696 0.170535
C42   C     C_R   0.962399 0.150299 0.352046 -0.008272
C43   C     C_R   0.818590 0.088621 0.373780 -0.129507
C44   C     C_R   0.816754 0.003620 0.335799 -0.159876
C45   C     C_R   0.960232 0.980470 0.277418 -0.143666
C46   C     C_R   0.109714 0.041199 0.256911 -0.146349
H20   H     H_    0.950193 0.217750 0.378995 0.153119
H21   H     H_    0.705648 0.107965 0.418239 0.143929
H22   H     H_    0.704821 0.955336 0.351490 0.125853
H23   H     H_    0.952470 0.914364 0.250008 0.128189
H24   H     H_    0.217438 0.022869 0.210088 0.120519
Cl2   Cl    Cl    0.290498 0.227394 0.447676 -0.704358
C47   C     C_R   0.269014 0.840004 0.604946 0.110048
C48   C     C_R   0.444102 0.887852 0.603936 -0.130126
C49   C     C_R   0.490177 0.945213 0.536448 -0.120820
C50   C     C_R   0.361903 0.955160 0.469973 -0.064125
C51   C     C_R   0.190327 0.905791 0.469941 -0.130304
C52   C     C_R   0.144024 0.848259 0.536818 -0.165352
H25   H     H_    0.542945 0.882793 0.655819 0.092966
H26   H     H_    0.624111 0.982732 0.536228 0.118991
H27   H     H_    0.395779 0.000276 0.418128 0.133977
H28   H     H_    0.093705 0.911040 0.417862 0.142831
H29   H     H_    0.008531 0.811871 0.536498 0.107607
Cl3   Cl    Cl    0.399673 0.585709 0.798336 -0.661464

loop_
_geom_bond_atom_site_label_1
_geom_bond_atom_site_label_2
_ccdc_geom_bond_type
C43   C44   A    
C51   C52   A    
C6    C7    S    
O12   V3    S    
C17   C18   A    
C1    O6    A    
C47   C48   A    
C46   H24   S    
C24   C25   A    
C23   H11   S    
C13   C18   A    
C50   H27   S    
C13   C14   A    
C5    C12   S    
C7    C8    S    
C18   C19   S    
C19   C20   S    
C20   H10   S    
C19   H8    S    
C42   H20   S    
O5    C3    A    
C14   C15   A    
C21   C28   S    
V3    O20   S    
C31   C32   A    
C29   C36   S    
C48   C49   A    
C5    H2    S    
C29   C30   A    
C32   C33   A    
C6    H1    S    
C9    C12   S    
C45   H23   S    
O12   C37   A    
O13   C40   A    
O8    V2    S    
C36   Cl2   S    
C24   H12   S    
C36   H19   S    
C13   C20   S    
C9    C10   S    
C15   C16   A    
O1    V2    S    
O7    V1    S    
C47   C52   A    
C28   H15   S    
C49   H26   S    
C25   C38   S    
O9    C4    A    
O13   V3    S    
C6    C11   S    
C28   H14   S    
C16   H6    S    
C23   C24   A    
V2    O10   S    
C27   C28   S    
C10   C11   S    
C20   H9    S    
O19   V4    S    
O17   V4    S    
O4    C2    A    
C42   C43   A    
C1    C22   S    
C26   C27   S    
C11   C12   S    
C41   C42   A    
C4    C12   S    
C32   H17   S    
C27   H13   S    
C35   H18   S    
O2    C1    A    
C21   C22   A    
O14   V3    S    
O18   V4    S    
C49   C50   A    
C41   C46   A    
C7    C39   S    
C33   C34   A    
C5    C6    S    
O15   C39   A    
C29   C34   A    
C52   H29   S    
C21   C26   A    
O17   V3    S    
C3    C17   S    
O3    C4    A    
O14   C38   A    
C9    C47   S    
C25   C26   A    
O6    V2    S    
C8    H3    S    
O9    V2    S    
O2    V1    S    
C35   C41   S    
C22   C23   A    
C51   H28   S    
C44   H22   S    
O1    C2    A    
C15   H5    S    
C10   H4    S    
O19   C40   A    
O5    V1    S    
O8    C3    A    
O16   V4    S    
C5    C8    S    
O11   V4    S    
C35   C36   S    
C14   C40   S    
C31   H16   S    
O4    V1    S    
C19   H7    S    
O3    V1    S    
V1    O10   S    
C37   O16   A    
O18   C39   A    
C30   C31   A    
C50   C51   A    
C16   C17   A    
C33   C37   S    
O7    V2    S    
C34   C35   S    
C44   C45   A    
V4    O20   S    
C7    C10   S    
O15   V3    S    
C8    C9    S    
C45   C46   A    
C43   H21   S    
O11   C38   A    
C27   Cl1   S    
C2    C30   S    
C48   H25   S    
C11   Cl3   S    
