data_mof_unit_36673.cif
_audit_creation_date              2013-03-05T15:46:26-0500
_audit_creation_method            fapswitch 2.2
_symmetry_space_group_name_H-M    P1
_symmetry_Int_Tables_number       1
_space_group_crystal_system       triclinic
_cell_length_a                    15.898929
_cell_length_b                    10.976577
_cell_length_c                    9.941348
_cell_angle_alpha                 111.191695
_cell_angle_beta                  97.9599
_cell_angle_gamma                 92.029956
_cell_volume                      1595.13605707

loop_
_atom_site_label
_atom_site_type_symbol
_atom_site_description
_atom_site_fract_x
_atom_site_fract_y
_atom_site_fract_z
_atom_type_partial_charge
O1    O     O_R   0.507820 0.332330 0.577400 -0.614427
O2    O     O_R   0.483070 0.295500 0.332660 -0.515932
C1    C     C_R   0.492354 0.253473 0.440619 0.759112
O3    O     O_R   0.391820 0.518430 0.622420 -0.593269
O4    O     O_R   0.367070 0.481600 0.377680 -0.562968
C2    C     C_R   0.340744 0.499880 0.501101 0.790742
Cu1   Cu    Cu3+1 0.514650 0.521810 0.644910 1.036354
Cu2   Cu    Cu3+1 0.485350 0.478190 0.355090 1.093037
O5    O     O_R   0.516930 0.704500 0.667340 -0.549865
O6    O     O_R   0.492180 0.667670 0.422600 -0.523997
O7    O     O_R   0.632930 0.518400 0.622320 -0.540523
O8    O     O_R   0.608180 0.481570 0.377580 -0.509822
C3    C     C_R   0.503599 0.745880 0.559150 0.868421
C4    C     C_R   0.659244 0.499877 0.498919 0.830458
C5    C     C_3   0.062295 0.462773 0.647397 0.334815
C6    C     C_3   0.033921 0.391956 0.353609 0.012018
C7    C     C_3   0.933922 0.384710 0.353749 0.269031
H1    H     H_    0.044742 0.435884 0.273034 0.149307
C8    C     C_1   0.748235 0.496940 0.496967 -0.005972
C9    C     C_3   0.084104 0.493201 0.506945 -0.123107
C10   C     C_3   0.958191 0.452375 0.642951 0.300489
C11   C     C_3   0.916649 0.490023 0.505737 -0.142673
C12   C     C_3   0.957961 0.633215 0.530560 -0.145314
C13   C     C_3   0.056213 0.634717 0.518285 0.190838
C14   C     C_1   0.823689 0.493883 0.499562 0.229567
C15   C     C_1   0.176368 0.495670 0.504581 0.185074
C16   C     C_1   0.251640 0.498196 0.503182 -0.059839
H2    H     H_    0.953996 0.696977 0.644556 0.241430
H3    H     H_    0.472780 0.138678 0.626548 0.159995
C17   C     C_2   0.485124 0.111755 0.408282 0.209891
C18   C     C_2   0.473018 0.069270 0.516246 -0.300135
H4    H     H_    0.545637 0.953751 0.685722 0.154244
C19   C     C_2   0.503830 0.886207 0.589522 -0.244490
C20   C     C_2   0.459257 0.930248 0.494171 0.224881
N1    N     N_2   0.463320 0.445430 0.137380 -0.320392
C21   C     C_2   0.514861 0.500582 0.079984 0.414992
N2    N     N_2   0.536720 0.554500 0.862620 -0.116944
C22   C     C_2   0.490607 0.496135 0.926360 0.171711
H5    H     H_    0.403184 0.407751 0.080371 0.229232
N3    N     N_R   0.923126 0.319510 0.628306 0.178064
O9    O     O_R   0.960000 0.264227 0.713923 -0.210397
O10   O     O_R   0.841444 0.287299 0.587079 -0.288634
N4    N     N_R   0.109381 0.569458 0.782672 0.169278
O11   O     O_R   0.074178 0.669492 0.863497 -0.254874
O12   O     O_R   0.192200 0.574172 0.811713 -0.326261
N5    N     N_R   0.934187 0.539685 0.783289 0.169730
O13   O     O_R   0.877961 0.624185 0.789786 -0.345287
O14   O     O_R   0.957705 0.514998 0.901076 -0.239760
N6    N     N_3   0.909913 0.695648 0.439407 -0.544487
H6    H     H_    0.849617 0.712274 0.469236 0.262764
H7    H     H_    0.939680 0.789723 0.465831 0.267645
N7    N     N_3   0.393203 0.846093 0.380894 -0.535427
H8    H     H_    0.336878 0.892704 0.389386 0.240833
H9    H     H_    0.409252 0.832204 0.278511 0.282348
N8    N     N_R   0.496370 0.022541 0.266176 0.122404
O15   O     O_R   0.460780 0.039017 0.148717 -0.315199
O16   O     O_R   0.551457 0.935975 0.255101 -0.317878
N9    N     N_3   0.411613 0.420806 0.847966 -0.597502
H10   H     H_    0.366618 0.484298 0.835019 0.285736
H11   H     H_    0.419263 0.350655 0.748367 0.264535
N10   N     N_R   0.599411 0.550144 0.156112 0.113008
O17   O     O_R   0.662722 0.479985 0.119280 -0.325024
O18   O     O_R   0.614359 0.668169 0.254907 -0.335426
N11   N     N_3   0.595044 0.661953 0.946052 -0.386144
H12   H     H_    0.652858 0.629269 0.976278 0.291467
H13   H     H_    0.569455 0.724152 0.034618 0.279885
N12   N     N_R   0.097533 0.338793 0.647225 0.155648
O19   O     O_R   0.140856 0.333782 0.766137 -0.240429
O20   O     O_R   0.076281 0.228323 0.538132 -0.244849
N13   N     N_R   0.067625 0.263774 0.285371 0.215354
O21   O     O_R   0.145632 0.243509 0.325394 -0.294216
O22   O     O_R   0.029948 0.187284 0.155520 -0.248245
N14   N     N_R   0.894715 0.252128 0.330898 0.193931
O23   O     O_R   0.813177 0.223458 0.282965 -0.260566
O24   O     O_R   0.938136 0.159994 0.350238 -0.202696
N15   N     N_3   0.890658 0.416466 0.230375 -0.482891
H14   H     H_    0.916614 0.502360 0.225451 0.252717
H15   H     H_    0.897612 0.341992 0.131990 0.287878
N16   N     N_3   0.103933 0.738727 0.650120 -0.479933
H16   H     H_    0.079243 0.828722 0.663066 0.253303
H17   H     H_    0.167822 0.750149 0.638510 0.249400
N17   N     N_3   0.076197 0.665439 0.391329 -0.565479
H18   H     H_    0.086639 0.766823 0.418993 0.256674
H19   H     H_    0.027316 0.634999 0.302169 0.263026

loop_
_geom_bond_atom_site_label_1
_geom_bond_atom_site_label_2
_geom_bond_distance
_ccdc_geom_bond_type
N8    O15   1.301284 A    
N14   O23   1.303170 A    
N1    C21   1.306762 D    
Cu1   Cu2   2.713427 S    
Cu1   O7    1.924600 S    
C15   C16   1.198207 T    
N15   H15   1.046617 S    
O4    C2    1.300424 A    
O7    C4    1.299689 A    
C12   N6    1.472653 S    
N9    H11   1.037731 S    
N10   O18   1.301186 A    
O5    C3    1.305730 A    
C13   N17   1.489562 S    
C22   N9    1.434516 S    
C9    C13   1.599480 S    
C6    C7    1.589266 S    
N6    H7    1.046005 S    
C11   C14   1.473473 S    
C7    N15   1.480324 S    
C12   C13   1.583581 S    
N13   O21   1.301077 A    
C6    C9    1.603398 S    
N3    O10   1.301854 A    
C10   C11   1.626373 S    
C7    N14   1.488480 S    
N14   O24   1.299840 A    
O3    Cu1   1.932095 S    
N7    H9    1.042502 S    
C5    C9    1.626167 S    
N5    O14   1.303729 A    
N12   O19   1.303499 A    
C6    N13   1.480211 S    
N15   H14   1.035870 S    
O3    C2    1.301911 A    
N16   H17   1.046291 S    
N9    H10   1.043406 S    
N12   O20   1.295929 A    
Cu2   N1    2.038323 S    
N11   H13   1.044586 S    
C1    C17   1.466944 S    
N1    H5    1.028990 S    
N4    O11   1.301838 A    
C3    C19   1.458349 S    
N2    C22   1.318463 D    
C13   N16   1.475877 S    
C2    C16   1.419245 S    
Cu2   O8    1.932093 S    
C5    N12   1.489447 S    
C19   C20   1.343122 D    
Cu1   N2    2.038498 S    
C18   C20   1.464780 S    
C12   H2    1.107968 S    
N4    O12   1.303421 A    
C6    H1    1.102392 S    
N3    O9    1.302619 A    
O8    C4    1.302517 A    
N17   H18   1.046245 S    
N17   H19   1.038242 S    
N8    O16   1.300812 A    
C21   N10   1.429874 S    
N2    N11   1.393263 S    
N7    H8    1.045460 S    
C10   N5    1.489039 S    
Cu1   O5    1.934332 S    
N5    O13   1.301925 A    
O1    Cu1   1.934578 S    
C4    C8    1.419019 S    
O2    Cu2   1.934330 S    
O6    C3    1.300338 A    
O4    Cu2   1.924602 S    
C17   N8    1.438361 S    
C20   N7    1.440824 S    
C7    C11   1.602909 S    
H4    C19   1.087433 S    
C21   C22   1.505055 S    
O2    C1    1.305906 A    
C5    N4    1.503593 S    
H3    C18   1.086385 S    
N11   H12   1.043410 S    
C17   C18   1.348797 D    
C10   N3    1.491755 S    
C9    C15   1.469776 S    
N10   O17   1.301326 A    
C8    C14   1.198271 T    
N16   H16   1.046914 S    
C5    C10   1.648389 S    
Cu2   O6    1.934579 S    
N6    H6    1.045103 S    
C11   C12   1.601342 S    
N13   O22   1.302600 A    
O1    C1    1.303873 A    
