data_mof_unit_40956.cif
_audit_creation_date              2012-12-11T16:47:47-0500
_audit_creation_method            fapswitch 2.2
_symmetry_space_group_name_H-M    P1
_symmetry_Int_Tables_number       1
_space_group_crystal_system       triclinic
_cell_length_a                    26.196759
_cell_length_b                    7.200191
_cell_length_c                    23.760191
_cell_angle_alpha                 89.999951
_cell_angle_beta                  101.505103
_cell_angle_gamma                 90.000412
_cell_volume                      4391.63608304

loop_
_atom_site_label
_atom_site_type_symbol
_atom_type_description
_atom_site_fract_x
_atom_site_fract_y
_atom_site_fract_z
_atom_type_partial_charge
O1    O     O_R   0.797620 0.601060 0.203310 -0.536452
O2    O     O_R   0.202380 0.398940 0.796690 -0.537884
O3    O     O_R   0.702380 0.101060 0.296690 -0.536453
O4    O     O_R   0.297620 0.898940 0.703310 -0.537883
O5    O     O_R   0.692070 0.267810 0.186600 -0.538939
O6    O     O_R   0.307930 0.732190 0.813400 -0.533107
O7    O     O_R   0.807930 0.767810 0.313400 -0.538939
O8    O     O_R   0.192070 0.232190 0.686600 -0.533107
C1    C     C_R   0.673895 0.439373 0.171364 0.712055
C2    C     C_R   0.326095 0.560383 0.828525 0.715409
C3    C     C_R   0.826105 0.939374 0.328636 0.712060
C4    C     C_R   0.173904 0.060382 0.671475 0.715414
O9    O     O_R   0.796590 0.271120 0.196480 -0.537772
O10   O     O_R   0.203410 0.728880 0.803520 -0.537945
O11   O     O_R   0.703410 0.771120 0.303520 -0.537773
O12   O     O_R   0.296590 0.228880 0.696480 -0.537946
O13   O     O_R   0.807640 0.104280 0.306650 -0.530347
O14   O     O_R   0.192360 0.895720 0.693350 -0.532094
O15   O     O_R   0.692360 0.604280 0.193350 -0.530347
O16   O     O_R   0.307640 0.395720 0.806650 -0.532093
C5    C     C_R   0.812515 0.439967 0.184511 0.701959
C6    C     C_R   0.187324 0.560070 0.815289 0.698674
C7    C     C_R   0.687485 0.939966 0.315488 0.701959
C8    C     C_R   0.312676 0.060071 0.684711 0.698677
O17   O     O_3   0.753500 0.435660 0.286130 -0.372629
O18   O     O_3   0.246500 0.564340 0.713870 -0.372981
O19   O     O_3   0.746500 0.935660 0.213870 -0.372630
O20   O     O_3   0.253500 0.064340 0.786130 -0.372981
V1    V     V_3+5 0.749350 0.159470 0.243300 1.402713
V2    V     V_3+5 0.250650 0.840530 0.756700 1.415783
V3    V     V_3+5 0.750650 0.659470 0.256700 1.402713
V4    V     V_3+5 0.249350 0.340530 0.743300 1.415780
C9    C     C_R   0.381395 0.886603 0.645698 -0.199029
C10   C     C_R   0.619529 0.113885 0.355711 -0.191175
C11   C     C_R   0.118605 0.386600 0.854303 -0.199025
C12   C     C_R   0.880470 0.613889 0.144288 -0.191176
H1    H     H_    0.376466 0.769110 0.672573 0.154909
H2    H     H_    0.624365 0.231768 0.328948 0.155248
H3    H     H_    0.123535 0.269105 0.827429 0.154909
H4    H     H_    0.875634 0.731773 0.171049 0.155248
C13   C     C_R   0.418434 0.874366 0.610667 0.310251
C14   C     C_R   0.582860 0.125960 0.391203 0.308524
C15   C     C_R   0.081566 0.374362 0.889335 0.310251
C16   C     C_R   0.917139 0.625963 0.108795 0.308522
C17   C     C_R   0.426012 0.024828 0.575432 0.065768
C18   C     C_R   0.575414 0.975045 0.426326 0.064878
C19   C     C_R   0.073989 0.524826 0.924568 0.065767
C20   C     C_R   0.924586 0.475047 0.073674 0.064878
C21   C     C_R   0.396362 0.186747 0.576288 -0.101613
C22   C     C_R   0.604888 0.812962 0.424977 -0.101831
C23   C     C_R   0.103637 0.686747 0.923711 -0.101610
C24   C     C_R   0.895112 0.312962 0.075024 -0.101829
H5    H     H_    0.401556 0.303425 0.549222 0.172278
H6    H     H_    0.599825 0.695994 0.451984 0.172495
H7    H     H_    0.098443 0.803426 0.950776 0.172280
H8    H     H_    0.900175 0.195993 0.048017 0.172497
C25   C     C_R   0.359852 0.199554 0.611967 -0.145593
C26   C     C_R   0.640988 0.800252 0.388804 -0.147206
C27   C     C_R   0.140148 0.699554 0.888032 -0.145591
C28   C     C_R   0.859012 0.300252 0.111196 -0.147206
H9    H     H_    0.337670 0.326576 0.611687 0.141991
H10   H     H_    0.663001 0.673009 0.388676 0.141559
H11   H     H_    0.162329 0.826577 0.888311 0.141991
H12   H     H_    0.836999 0.173008 0.111325 0.141559
C29   C     C_R   0.351630 0.049038 0.646879 -0.106860
C30   C     C_R   0.648988 0.951047 0.353882 -0.105129
C31   C     C_R   0.148370 0.549037 0.853121 -0.106861
C32   C     C_R   0.851011 0.451049 0.146118 -0.105130
C33   C     C_R   0.516225 0.075149 0.556221 0.358889
C34   C     C_R   0.485308 0.924001 0.445704 0.358853
C35   C     C_R   0.983776 0.575156 0.943780 0.358886
C36   C     C_R   0.014691 0.423993 0.054295 0.358850
C37   C     C_R   0.552001 0.060424 0.519707 -0.194630
C38   C     C_R   0.449538 0.938749 0.482210 -0.194729
C39   C     C_R   0.948000 0.560433 0.980293 -0.194626
C40   C     C_R   0.050461 0.438739 0.017789 -0.194725
H13   H     H_    0.591629 0.108218 0.534424 0.162758
H14   H     H_    0.409901 0.891057 0.467478 0.163077
H15   H     H_    0.908373 0.608235 0.965577 0.162760
H16   H     H_    0.090097 0.391041 0.032521 0.163078
C41   C     C_R   0.536997 0.985061 0.464394 -0.008107
C42   C     C_R   0.464530 0.014187 0.537506 -0.008134
C43   C     C_R   0.963003 0.485062 0.035605 -0.008108
C44   C     C_R   0.035470 0.514185 0.962494 -0.008134
C45   C     C_3   0.958107 0.954765 0.525259 0.086847
C46   C     C_3   0.040548 0.018800 0.477698 0.085689
C47   C     C_3   0.541892 0.454805 0.974742 0.086846
C48   C     C_3   0.459450 0.518789 0.022306 0.085687
C49   C     C_3   0.992457 0.132252 0.535410 -0.230262
C50   C     C_3   0.006244 0.841723 0.467643 -0.237944
C51   C     C_3   0.507538 0.632279 0.964596 -0.230277
C52   C     C_3   0.493758 0.341725 0.032355 -0.237965
H17   H     H_    0.986128 0.250238 0.563116 0.127221
H18   H     H_    0.011920 0.726144 0.438832 0.125094
H19   H     H_    0.513864 0.750273 0.936892 0.127229
H20   H     H_    0.488083 0.226133 0.061163 0.125101
C53   C     C_1   0.128122 0.050327 0.625674 -0.194132
C54   C     C_1   0.871677 0.946436 0.374979 -0.191780
C55   C     C_1   0.371878 0.550330 0.874327 -0.194130
C56   C     C_1   0.628323 0.446437 0.125021 -0.191775
C57   C     C_3   0.007565 0.831712 0.533393 0.109882
C58   C     C_3   0.991316 0.140956 0.470061 0.102817
C59   C     C_3   0.492437 0.331735 0.966606 0.109885
C60   C     C_3   0.508679 0.640962 0.029945 0.102830
C61   C     C_3   0.041903 0.008354 0.542851 0.092278
C62   C     C_3   0.957089 0.965662 0.460231 0.079577
C63   C     C_3   0.458095 0.508364 0.957152 0.092275
C64   C     C_3   0.542909 0.465680 0.039771 0.079575
C65   C     C_1   0.089430 0.035188 0.588031 -0.072326
C66   C     C_1   0.910027 0.951893 0.413483 -0.040640
C67   C     C_1   0.410568 0.535194 0.911971 -0.072312
C68   C     C_1   0.589972 0.451902 0.086517 -0.040626
Br1   Br    Br    0.458509 0.650717 0.612803 -0.506710
Br2   Br    Br    0.542979 0.349825 0.389731 -0.505792
Br3   Br    Br    0.041492 0.150711 0.887199 -0.506709
Br4   Br    Br    0.957020 0.849830 0.110267 -0.505792
Br5   Br    Br    0.539538 0.177212 0.631513 -0.445350
Br6   Br    Br    0.461944 0.822035 0.370412 -0.440990
Br7   Br    Br    0.960465 0.677228 0.868489 -0.445347
Br8   Br    Br    0.038053 0.322019 0.129586 -0.440987
C69   C     C_3   0.908513 0.924113 0.548848 -0.380976
C70   C     C_3   0.918706 0.932903 0.614549 -0.308244
C71   C     C_3   0.867772 0.929420 0.636396 -0.696686
H21   H     H_    0.843548 0.052180 0.620245 0.224767
H22   H     H_    0.845646 0.800597 0.621995 0.227096
H23   H     H_    0.876328 0.932975 0.684077 0.245303
H24   H     H_    0.942326 0.811520 0.632792 0.212344
H25   H     H_    0.940275 0.061987 0.630028 0.203902
H26   H     H_    0.880053 0.033624 0.530673 0.178508
H27   H     H_    0.891629 0.786850 0.533975 0.169111
C72   C     C_3   0.089055 0.055068 0.452559 -0.377504
C73   C     C_3   0.079461 0.015704 0.387905 -0.309757
C74   C     C_3   0.128028 0.056752 0.363746 -0.688473
H28   H     H_    0.139090 0.205289 0.370343 0.228181
H29   H     H_    0.160977 0.968228 0.385103 0.224133
H30   H     H_    0.120060 0.026849 0.316962 0.243842
H31   H     H_    0.068768 0.867422 0.379685 0.201699
H32   H     H_    0.047036 0.102785 0.364864 0.203062
H33   H     H_    0.101191 0.201924 0.461157 0.175283
H34   H     H_    0.120942 0.963719 0.474893 0.182520
C75   C     C_3   0.591487 0.424209 0.951152 -0.380984
C76   C     C_3   0.581291 0.432917 0.885452 -0.308243
C77   C     C_3   0.632229 0.429713 0.863607 -0.696700
H35   H     H_    0.656383 0.552674 0.879714 0.224765
H36   H     H_    0.654425 0.301065 0.878050 0.227098
H37   H     H_    0.623673 0.433100 0.815926 0.245304
H38   H     H_    0.557727 0.311383 0.867229 0.212332
H39   H     H_    0.559665 0.561875 0.869954 0.203918
H40   H     H_    0.619933 0.533779 0.969314 0.178532
H41   H     H_    0.608391 0.286985 0.966040 0.169099
C78   C     C_3   0.410943 0.555029 0.047446 -0.377508
C79   C     C_3   0.420534 0.515619 0.112096 -0.309745
C80   C     C_3   0.371976 0.556776 0.136260 -0.688464
H42   H     H_    0.360940 0.705345 0.129668 0.228169
H43   H     H_    0.339011 0.468321 0.114904 0.224138
H44   H     H_    0.379940 0.526860 0.183041 0.243843
H45   H     H_    0.431200 0.367300 0.120303 0.201678
H46   H     H_    0.452977 0.602613 0.135140 0.203074
H47   H     H_    0.398809 0.701890 0.038856 0.175289
H48   H     H_    0.379055 0.463693 0.025105 0.182513
C81   C     C_3   0.980526 0.313094 0.432144 -0.349478
C82   C     C_3   0.929037 0.407229 0.437879 -0.335064
C83   C     C_3   0.900012 0.482506 0.380469 -0.688109
H49   H     H_    0.924268 0.586556 0.363371 0.224329
H50   H     H_    0.889986 0.367983 0.348886 0.229817
H51   H     H_    0.863327 0.548356 0.386772 0.224152
H52   H     H_    0.902683 0.309155 0.454275 0.201146
H53   H     H_    0.937044 0.523106 0.469070 0.187288
H54   H     H_    0.013501 0.411015 0.444167 0.148077
H55   H     H_    0.979076 0.269247 0.387074 0.186460
C84   C     C_3   0.015022 0.646494 0.566308 -0.393201
C85   C     C_3   0.045452 0.665325 0.628334 -0.299458
C86   C     C_3   0.039690 0.492543 0.663745 -0.729873
H56   H     H_    0.998142 0.469739 0.665709 0.233220
H57   H     H_    0.054846 0.368714 0.644603 0.227333
H58   H     H_    0.062336 0.510749 0.708178 0.228896
H59   H     H_    0.087475 0.683497 0.627993 0.208278
H60   H     H_    0.031877 0.788098 0.649517 0.203850
H61   H     H_    0.975932 0.586830 0.566163 0.172174
H62   H     H_    0.036314 0.548537 0.543144 0.174664
C87   C     C_3   0.519465 0.813098 0.067863 -0.349456
C88   C     C_3   0.570953 0.907252 0.062129 -0.335078
C89   C     C_3   0.599983 0.982477 0.119543 -0.688117
H63   H     H_    0.575733 0.086529 0.136649 0.224330
H64   H     H_    0.610004 0.867929 0.151118 0.229820
H65   H     H_    0.636671 0.048309 0.113241 0.224157
H66   H     H_    0.597305 0.809206 0.045719 0.201138
H67   H     H_    0.562943 0.023160 0.030949 0.187292
H68   H     H_    0.486488 0.911009 0.055840 0.148070
H69   H     H_    0.520915 0.769249 0.112934 0.186459
C90   C     C_3   0.484981 0.146527 0.933687 -0.393186
C91   C     C_3   0.454572 0.165378 0.871653 -0.299470
C92   C     C_3   0.460339 0.992594 0.836245 -0.729875
H70   H     H_    0.501889 0.969778 0.834296 0.233216
H71   H     H_    0.445173 0.868769 0.855380 0.227324
H72   H     H_    0.437705 0.010808 0.791807 0.228916
H73   H     H_    0.412546 0.183567 0.871976 0.208279
H74   H     H_    0.468160 0.288147 0.850480 0.203856
H75   H     H_    0.524071 0.086840 0.933850 0.172163
H76   H     H_    0.463673 0.048584 0.956839 0.174662

loop_
_geom_bond_atom_site_label_1
_geom_bond_atom_site_label_2
_ccdc_geom_bond_type
C85   H59   S    
C26   H10   S    
C77   H37   S    
C16   C20   A    
C84   C85   S    
O1    C5    A    
C54   C66   T    
C47   C51   S    
C49   C58   S    
O19   V1    S    
O13   V1    S    
O3    C7    A    
C83   H49   S    
C10   C14   A    
C52   H20   S    
C51   C60   S    
C36   C40   A    
O15   V3    S    
C10   C30   A    
C81   C82   S    
C9    C29   A    
C71   H21   S    
C86   H56   S    
O7    C3    A    
C22   H6    S    
C3    C54   S    
C7    C30   S    
O9    V1    S    
C83   H50   S    
C1    O15   A    
C82   C83   S    
C89   H64   S    
C62   C66   S    
O4    C8    A    
C46   C72   S    
C71   H22   S    
C17   C42   S    
C73   H32   S    
C77   H35   S    
O1    V3    S    
C27   C31   A    
O2    V4    S    
C14   C18   A    
C33   Br5   S    
C70   H24   S    
O3    V1    S    
C34   C41   A    
C88   C89   S    
C33   C42   A    
C24   C28   A    
C52   C59   S    
C15   Br3   S    
C87   H68   S    
C26   C30   A    
C47   C64   S    
C48   C52   S    
C2    O16   A    
C73   C74   S    
C92   H71   S    
C34   C38   A    
C74   H30   S    
C78   C79   S    
C33   C37   A    
C72   H34   S    
C91   C92   S    
C91   H74   S    
C80   H43   S    
C11   C15   A    
C69   H27   S    
C81   H54   S    
O11   C7    A    
C60   C87   S    
O12   C8    A    
C70   H25   S    
C84   H61   S    
O10   V2    S    
C37   C41   A    
C48   C60   S    
C52   C64   S    
C75   H41   S    
C50   H18   S    
O5    V1    S    
C86   H57   S    
C57   C61   S    
C79   H46   S    
C40   C44   A    
C14   Br2   S    
C75   H40   S    
C90   C91   S    
C22   C26   A    
C76   H39   S    
C12   H4    S    
C83   H51   S    
O7    V3    S    
C90   H76   S    
C50   C62   S    
C46   C50   S    
C89   H65   S    
C25   C29   A    
C48   C63   S    
C45   C49   S    
O18   V4    S    
C71   H23   S    
C19   C23   A    
C73   H31   S    
C87   C88   S    
O11   V3    S    
C9    H1    S    
C64   C68   S    
O8    V4    S    
C11   H3    S    
C89   H63   S    
C50   C57   S    
O5    C1    A    
C51   C63   S    
C18   C41   S    
C53   C65   T    
C87   H69   S    
C11   C31   A    
O8    C4    A    
C92   H72   S    
C55   C67   T    
C36   Br8   S    
C17   C21   A    
C4    C53   S    
O9    C5    A    
C88   H67   S    
C19   C44   S    
C47   C75   S    
C80   H44   S    
C45   C69   S    
C16   Br4   S    
C69   C70   S    
C8    C29   S    
C82   H53   S    
C81   H55   S    
O6    V2    S    
C56   C68   T    
C1    C56   S    
C5    C32   S    
C74   H28   S    
C48   C78   S    
C47   C59   S    
C84   H62   S    
C12   C16   A    
C46   C61   S    
C59   C90   S    
C49   C61   S    
C72   C73   S    
C46   C58   S    
C60   C64   S    
C45   C57   S    
C85   C86   S    
O17   V3    S    
C35   C44   A    
O16   V4    S    
C86   H58   S    
C85   H60   S    
C77   H36   S    
C61   C65   S    
C79   H45   S    
C3    O13   A    
C37   H13   S    
C10   H2    S    
C63   C67   S    
C76   H38   S    
C40   H16   S    
C90   H75   S    
O6    C2    A    
C21   C25   A    
C12   C32   A    
C25   H9    S    
O12   V4    S    
C18   C22   A    
C27   H11   S    
C20   C43   S    
C35   Br7   S    
C28   H12   S    
C9    C13   A    
C78   H48   S    
O10   C6    A    
O20   V2    S    
C70   C71   S    
C69   H26   S    
O2    C6    A    
C91   H73   S    
C35   C39   A    
C39   C43   A    
C39   H15   S    
C34   Br6   S    
C58   C81   S    
C21   H5    S    
C13   Br1   S    
C57   C84   S    
C23   H7    S    
C88   H66   S    
C49   H17   S    
C2    C55   S    
O4    V2    S    
C6    C31   S    
C36   C43   A    
C72   H33   S    
O14   V2    S    
C51   H19   S    
C82   H52   S    
C24   H8    S    
C20   C24   A    
C23   C27   A    
C79   C80   S    
C28   C32   A    
C92   H70   S    
C38   H14   S    
C58   C62   S    
C4    O14   A    
C74   H29   S    
C13   C17   A    
C76   C77   S    
C59   C63   S    
C80   H42   S    
C75   C76   S    
C15   C19   A    
C38   C42   A    
C45   C62   S    
C78   H47   S    
