data_mof_unit_63764.cif
_audit_creation_date              2012-10-26T19:56:13-0400
_audit_creation_method            fapswitch 2.2
_symmetry_space_group_name_H-M    P1
_symmetry_Int_Tables_number       1
_space_group_crystal_system       triclinic
_cell_length_a                    10.841394
_cell_length_b                    10.651326
_cell_length_c                    9.469757
_cell_angle_alpha                 88.981867
_cell_angle_beta                  93.037742
_cell_angle_gamma                 86.992988
_cell_volume                      1090.25064909

loop_
_atom_site_label
_atom_site_type_symbol
_atom_type_description
_atom_site_fract_x
_atom_site_fract_y
_atom_site_fract_z
_atom_type_partial_charge
C1    C     C_R   0.502669 0.259561 0.501452 0.537848
C2    C     C_3   0.387000 0.052839 0.457526 -0.136548
C3    C     C_3   0.496134 0.877134 0.495689 0.021920
C4    C     C_3   0.502801 0.122720 0.503788 0.021604
C5    C     C_3   0.413117 0.961223 0.586879 -0.117514
C6    C     C_3   0.585845 0.038551 0.412561 -0.118414
C7    C     C_3   0.532390 0.607560 0.051738 -0.001238
C8    C     C_3   0.467263 0.392560 0.948491 -0.032549
C9    C     C_3   0.423701 0.587833 0.942543 -0.019585
C10   C     C_3   0.576061 0.412314 0.057576 -0.010943
C11   C     C_3   0.606449 0.519754 0.959259 0.235599
C12   C     C_R   0.496835 0.740382 0.498445 0.539626
C13   C     C_3   0.393207 0.480491 0.041401 0.237309
C14   C     C_R   0.262377 0.506333 0.496705 0.540097
C15   C     C_R   0.737834 0.492641 0.503375 0.537034
C16   C     C_R   0.140454 0.890610 0.260824 -0.124926
C17   C     C_R   0.860900 0.103559 0.729779 -0.123441
C18   C     C_R   0.131771 0.787583 0.352438 -0.089829
C19   C     C_R   0.865639 0.210563 0.643142 -0.086069
C20   C     C_R   0.090281 0.674164 0.299781 0.062904
C21   C     C_R   0.913297 0.320234 0.698622 0.030563
C22   C     C_R   0.059556 0.665090 0.154357 -0.079736
C23   C     C_R   0.872249 0.493139 0.506946 -0.006763
C24   C     C_R   0.954090 0.321153 0.842487 -0.116260
C25   C     C_R   0.075122 0.766198 0.062149 -0.128208
C26   C     C_R   0.942335 0.216182 0.930202 -0.122572
C27   C     C_R   0.114620 0.879433 0.115604 -0.120550
C28   C     C_R   0.896661 0.106852 0.873473 -0.118832
C29   C     C_R   0.921915 0.571657 0.407192 -0.149402
C30   C     C_R   0.079167 0.426380 0.592754 -0.150784
C31   C     C_3   0.759478 0.661642 0.874846 -0.303932
C32   C     C_3   0.244845 0.337029 0.129874 -0.299867
C33   C     C_3   0.601096 0.966837 0.868936 -0.323802
C34   C     C_R   0.128436 0.504860 0.493223 -0.005451
C35   C     C_3   0.399521 0.032007 0.129596 -0.324460
C36   C     C_R   0.952188 0.418630 0.601292 -0.036062
C37   C     C_R   0.048987 0.578734 0.398747 -0.034205
C38   C     C_3   0.528355 0.032137 0.630127 0.156791
C39   C     C_3   0.470716 0.967564 0.369280 0.156104
C40   C     C_3   0.611880 0.946863 0.541719 -0.136365
Cu1   Cu    Cu3+1 0.500030 0.499990 0.643150 0.916359
Cu2   Cu    Cu3+1 0.499970 0.500010 0.356850 0.948548
H1    H     H_    0.122908 0.959202 0.044986 0.105585
H2    H     H_    0.840510 0.205061 0.531247 0.095762
H3    H     H_    0.020047 0.580888 0.113277 0.110472
H4    H     H_    0.996539 0.402938 0.885911 0.104151
H5    H     H_    0.052444 0.758224 0.950108 0.093804
H6    H     H_    0.972603 0.218148 0.040864 0.100622
H7    H     H_    0.860611 0.631183 0.336972 0.137456
H8    H     H_    0.141066 0.366710 0.662187 0.135574
H9    H     H_    0.700787 0.895503 0.573592 0.086455
H10   H     H_    0.297257 0.102235 0.424600 0.087753
H11   H     H_    0.343920 0.927498 0.659057 0.105080
H12   H     H_    0.891363 0.023885 0.940066 0.105047
H13   H     H_    0.655116 0.072226 0.340450 0.104934
H14   H     H_    0.762529 0.465652 0.854938 0.282423
H15   H     H_    0.855671 0.660253 0.839895 0.126242
H16   H     H_    0.752988 0.725323 0.965991 0.129307
H17   H     H_    0.695721 0.697422 0.786192 0.186164
H18   H     H_    0.203619 0.499190 0.012051 0.222354
H19   H     H_    0.154301 0.338056 0.179531 0.134358
H20   H     H_    0.317105 0.299068 0.208401 0.191843
H21   H     H_    0.240749 0.275188 0.036653 0.103621
H22   H     H_    0.615399 0.144186 0.779207 0.272403
H23   H     H_    0.358111 0.659964 0.890209 0.096558
H24   H     H_    0.617753 0.002873 0.977018 0.149618
H25   H     H_    0.689519 0.923307 0.835433 0.122069
H26   H     H_    0.531101 0.894387 0.871207 0.160479
H27   H     H_    0.385338 0.854626 0.219690 0.275734
H28   H     H_    0.383477 0.995472 0.021652 0.150243
H29   H     H_    0.469598 0.104386 0.127448 0.159116
H30   H     H_    0.310852 0.075663 0.162150 0.121748
H31   H     H_    0.641851 0.340380 0.109925 0.102919
H32   H     H_    0.560986 0.696906 0.098823 0.117999
H33   H     H_    0.438472 0.303163 0.901672 0.120984
H34   H     H_    0.165146 0.979806 0.302689 0.103242
H35   H     H_    0.832286 0.017020 0.684997 0.103079
H36   H     H_    0.149542 0.798709 0.465072 0.091739
N1    N     N_3   0.500090 0.499970 0.858290 -0.243822
N2    N     N_3   0.499910 0.500030 0.141710 -0.229363
N3    N     N_2   0.730377 0.536255 0.917068 -0.517101
N4    N     N_2   0.269724 0.463321 0.086195 -0.475308
N5    N     N_2   0.559010 0.069408 0.773440 -0.516652
N6    N     N_2   0.441041 0.929890 0.225910 -0.517240
O1    O     O_R   0.500060 0.316850 0.620870 -0.499467
O2    O     O_R   0.499940 0.683150 0.379130 -0.498080
O3    O     O_R   0.500000 0.316860 0.379090 -0.523748
O4    O     O_R   0.500000 0.683140 0.620910 -0.518830
O5    O     O_R   0.319670 0.500010 0.620890 -0.514237
O6    O     O_R   0.680330 0.499990 0.379110 -0.504737
O7    O     O_R   0.319620 0.500010 0.379110 -0.460119
O8    O     O_R   0.680380 0.499990 0.620890 -0.502231

loop_
_geom_bond_atom_site_label_1
_geom_bond_atom_site_label_2
_ccdc_geom_bond_type
C1    O3    A    
Cu1   O5    S    
Cu2   N2    S    
C8    C13   S    
C38   N5    S    
C34   C37   A    
Cu1   Cu2   S    
C6    H13   S    
C30   C34   A    
H14   N3    S    
H22   N5    S    
C21   C36   S    
C29   H7    S    
C11   N3    S    
C7    C11   S    
C23   C29   A    
C31   H16   S    
C5    H11   S    
C19   C21   A    
C24   C26   A    
C39   N6    S    
C10   H31   S    
Cu2   O7    S    
C9    N1    S    
C31   H17   S    
C9    C13   S    
C3    C12   S    
C15   O8    A    
H18   N4    S    
C2    C39   S    
C32   H19   S    
C35   H28   S    
C22   C25   A    
C8    N1    S    
Cu2   O2    S    
C25   H5    S    
C26   H6    S    
C16   C27   A    
C15   C23   S    
C30   H8    S    
C13   N2    S    
C35   H29   S    
C5    C38   S    
C11   N1    S    
C33   H24   S    
C7    H32   S    
C1    O1    A    
C12   O4    A    
C4    C6    S    
C10   N2    S    
C13   N4    S    
C8    H33   S    
Cu2   O6    S    
C2    C4    S    
C14   O5    A    
Cu1   N1    S    
C18   H36   S    
Cu1   O8    S    
C17   H35   S    
C33   N5    S    
C2    H10   S    
C16   C18   A    
C4    C38   S    
C35   H30   S    
C6    C40   S    
C2    C5    S    
Cu1   O1    S    
C19   H2    S    
C33   H25   S    
C7    C9    S    
Cu1   O4    S    
C28   H12   S    
C3    C40   S    
C16   H34   S    
C17   C28   A    
C32   H21   S    
C20   C22   A    
C3    C5    S    
C14   C34   S    
C35   N6    S    
C12   O2    A    
C25   C27   A    
C40   H9    S    
C32   N4    S    
C26   C28   A    
C31   N3    S    
C30   C36   A    
C1    C4    S    
C24   H4    S    
C31   H15   S    
C32   H20   S    
H27   N6    S    
C15   O6    A    
C38   C40   S    
C20   C37   S    
C17   C19   A    
C18   C20   A    
C9    H23   S    
C14   O7    A    
C10   C11   S    
C3    C39   S    
C27   H1    S    
C22   H3    S    
C8    C10   S    
C23   C36   A    
C21   C24   A    
C29   C37   A    
C6    C39   S    
Cu2   O3    S    
C33   H26   S    
C7    N2    S    
