data_mof_unit_66746.cif
_audit_creation_date              2012-12-11T14:19:19-0500
_audit_creation_method            fapswitch 2.2
_symmetry_space_group_name_H-M    P1
_symmetry_Int_Tables_number       1
_space_group_crystal_system       triclinic
_cell_length_a                    8.340282
_cell_length_b                    12.822207
_cell_length_c                    15.07161
_cell_angle_alpha                 96.1217
_cell_angle_beta                  99.007066
_cell_angle_gamma                 97.838405
_cell_volume                      1563.47101766

loop_
_atom_site_label
_atom_site_type_symbol
_atom_type_description
_atom_site_fract_x
_atom_site_fract_y
_atom_site_fract_z
_atom_type_partial_charge
Ba1   Ba    Ba6+2 0.153570 0.551840 0.456200 1.754815
Ba2   Ba    Ba6+2 0.656590 0.448150 0.543720 1.724820
C1    C     C_3   0.334894 0.857656 0.127756 0.447958
C2    C     C_3   0.348839 0.803372 0.212804 0.788378
C3    C     C_3   0.642940 0.771726 0.766605 0.310871
C4    C     C_3   0.672453 0.857204 0.848069 -0.409259
C5    C     C_3   0.942558 0.159521 0.740071 0.738405
C6    C     C_3   0.036401 0.093177 0.801900 -0.309512
C7    C     C_3   0.481131 0.217213 0.795323 0.820115
C8    C     C_3   0.563882 0.197358 0.891025 0.729941
C9    C     C_R   0.081674 0.183504 0.532410 -0.197460
C10   C     C_R   0.733858 0.815166 0.466667 -0.268373
C11   C     C_R   0.698954 0.992508 0.431686 -0.112181
C12   C     C_3   0.880726 0.830068 0.244145 0.959568
C13   C     C_R   0.635526 0.884953 0.430619 -0.008072
C14   C     C_R   0.894525 0.850190 0.510768 0.069950
C15   C     C_R   0.959298 0.962623 0.517548 0.047137
C16   C     C_R   0.860224 0.034842 0.475722 0.029165
C17   C     C_R   0.922603 0.147683 0.484242 0.075303
C18   C     C_R   0.180092 0.114198 0.570959 0.064836
C19   C     C_R   0.117853 0.005774 0.565941 0.000929
C20   C     C_R   0.242860 0.428810 0.764111 -0.203617
C21   C     C_R   0.139324 0.401998 0.825484 -0.001018
C22   C     C_R   0.198000 0.424387 0.919101 0.543894
C23   C     C_3   0.825807 0.918730 0.192942 -0.272458
C24   C     C_R   0.365563 0.469951 0.952867 -0.004569
C25   C     C_R   0.461920 0.501746 0.887889 -0.180535
C26   C     C_R   0.398003 0.486714 0.795464 0.104572
C27   C     C_R   0.597203 0.550870 0.085842 -0.113969
C28   C     C_R   0.663067 0.569595 0.178303 -0.003051
C29   C     C_R   0.412838 0.477878 0.212305 0.121988
C30   C     C_R   0.351677 0.451319 0.119536 -0.092930
C31   C     C_R   0.437254 0.492326 0.053523 0.028167
C32   C     C_R   0.566524 0.539849 0.241423 -0.101419
C33   C     C_3   0.750332 0.310500 0.270527 0.818728
C34   C     C_3   0.726230 0.283410 0.168417 -0.310800
C35   C     C_3   0.173610 0.768607 0.735493 0.713862
C36   C     C_3   0.195188 0.808626 0.838840 0.812054
C37   C     C_3   0.237376 0.224583 0.341582 0.269362
C38   C     C_3   0.239068 0.107023 0.316772 0.494664
H1    H     H_    0.243875 0.738250 0.205939 0.056405
H2    H     H_    0.617190 0.220924 0.144554 0.130554
H3    H     H_    0.706998 0.354739 0.135000 0.068995
H4    H     H_    0.838140 0.255123 0.149811 0.047692
H5    H     H_    0.277452 0.813072 0.710242 -0.051054
H6    H     H_    0.321411 0.852999 0.859696 -0.053763
H7    H     H_    0.115244 0.236913 0.356957 -0.078352
H8    H     H_    0.334017 0.253735 0.401965 0.072780
H9    H     H_    0.144983 0.075451 0.256117 0.075175
H10   H     H_    0.361650 0.094508 0.301803 0.051998
H11   H     H_    0.331814 0.798637 0.067926 0.011223
H12   H     H_    0.753367 0.732477 0.772536 0.058685
H13   H     H_    0.627539 0.806135 0.701557 -0.047091
H14   H     H_    0.798048 0.901014 0.856679 0.153455
H15   H     H_    0.581954 0.912743 0.838284 0.123395
H16   H     H_    0.661528 0.820740 0.911312 0.121158
H17   H     H_    0.442379 0.920482 0.132793 0.004274
H18   H     H_    0.719704 0.885753 0.138592 0.042569
H19   H     H_    0.041188 0.205838 0.712093 -0.010011
H20   H     H_    0.952692 0.040246 0.832618 0.132757
H21   H     H_    0.111514 0.046401 0.763244 0.102913
H22   H     H_    0.114710 0.147098 0.859408 0.149427
H23   H     H_    0.554633 0.287631 0.776871 0.006217
H24   H     H_    0.641198 0.274927 0.921323 -0.017976
H25   H     H_    0.618759 0.042772 0.400690 0.103628
H26   H     H_    0.196029 0.956003 0.599271 0.051597
H27   H     H_    0.132326 0.266646 0.537380 0.017562
H28   H     H_    0.680891 0.732848 0.464629 0.053827
H29   H     H_    0.676754 0.581000 0.041775 0.068725
H30   H     H_    0.241520 0.393948 0.101537 0.160661
H31   H     H_    0.584393 0.545194 0.906509 0.083216
H32   H     H_    0.617009 0.556582 0.313035 0.069524
H33   H     H_    0.778273 0.798930 0.277659 -0.034561
H34   H     H_    0.196371 0.415108 0.692040 0.037391
H35   H     H_    0.788734 0.980216 0.239871 0.058458
H36   H     H_    0.926335 0.956047 0.161188 0.159921
H37   H     H_    0.858301 0.373323 0.291863 0.024711
O1    O     O_2   0.168170 0.764170 0.543850 -0.457707
O2    O     O_3   0.266507 0.274066 0.266238 -0.643903
O3    O     O_3   0.925995 0.752708 0.183266 -0.621344
O4    O     O_2   0.642110 0.235770 0.456130 -0.433520
O5    O     O_3   0.911620 0.370210 0.454030 -0.505610
O6    O     O_3   0.444310 0.304480 0.619110 -0.495186
O7    O     O_3   0.769954 0.219275 0.311009 -0.670300
O8    O     O_3   0.400800 0.556680 0.607590 -0.449369
O9    O     O_3   0.875770 0.359510 0.664420 -0.505590
O10   O     O_2   0.803271 0.421527 0.825036 -0.503829
O11   O     O_3   0.856760 0.223474 0.791952 -0.596899
O12   O     O_3   0.898670 0.629780 0.545890 -0.500800
O13   O     O_3   0.409490 0.443300 0.392340 -0.457824
O14   O     O_2   0.674250 0.555830 0.719690 -0.532781
O15   O     O_3   0.497639 0.705286 0.770364 -0.619520
O16   O     O_2   0.505475 0.117002 0.557520 -0.442929
O17   O     O_3   0.468904 0.130104 0.727712 -0.642314
O18   O     O_3   0.365980 0.695510 0.380810 -0.479964
O19   O     O_2   0.316616 0.883729 0.455373 -0.385801
O20   O     O_3   0.027328 0.792799 0.687939 -0.707671
O21   O     O_3   0.345970 0.879294 0.286811 -0.549322
O22   O     O_2   0.136040 0.444100 0.280280 -0.495989
O23   O     O_3   0.934510 0.640480 0.335500 -0.471844
O24   O     O_2   0.995963 0.560074 0.175796 -0.474715
P1    P     P_3+3 0.998660 0.747790 0.570900 0.987150
P2    P     P_3+3 0.306970 0.411860 0.294270 1.068618
P3    P     P_3+3 0.879691 0.627648 0.217749 0.976235
P4    P     P_3+3 0.811620 0.252200 0.429030 1.032977
P5    P     P_3+3 0.918760 0.355644 0.780353 0.983962
P6    P     P_3+3 0.416956 0.834165 0.389069 1.121493
P7    P     P_3+3 0.493173 0.574060 0.722781 1.012406
P8    P     P_3+3 0.397991 0.166651 0.619943 1.018879
O25   O     O_3   0.182710 0.659642 0.719391 -0.693557
C39   C     C_3   0.035707 0.596401 0.726586 0.244443
H38   H     H_    0.012005 0.530495 0.671249 0.091608
H39   H     H_    0.928129 0.635598 0.719422 0.071988
H40   H     H_    0.045145 0.569851 0.793528 0.002510
O26   O     O_3   0.186925 0.724929 0.893599 -0.691498
C40   C     C_3   0.046236 0.716424 0.935478 0.202353
H41   H     H_    0.931895 0.696252 0.884623 0.009686
H42   H     H_    0.042215 0.789954 0.980229 0.165393
H43   H     H_    0.050640 0.651130 0.978211 0.089460
F1    F     F_    0.089928 0.881027 0.854719 -0.807307
F2    F     F_    0.193973 0.904266 0.117413 -0.738802
F3    F     F_    0.206274 0.052984 0.387305 -0.696848
F4    F     F_    0.493287 0.761000 0.221188 -0.861281
O27   O     O_3   0.833840 0.102021 0.662984 -0.659406
C41   C     C_3   0.747791 0.006084 0.680495 0.155980
H44   H     H_    0.688440 0.018083 0.740418 0.133410
H45   H     H_    0.830672 0.945636 0.688008 0.010657
H46   H     H_    0.649746 0.973883 0.621784 0.067581
F5    F     F_    0.327172 0.240585 0.800247 -0.836427
O28   O     O_3   0.446506 0.176920 0.948991 -0.675892
C42   C     C_3   0.378341 0.068133 0.938563 0.250275
H47   H     H_    0.463398 0.022157 0.976058 0.040324
H48   H     H_    0.346811 0.033737 0.866076 0.067987
H49   H     H_    0.264330 0.059854 0.968501 0.117985
F6    F     F_    0.014138 0.871071 0.310785 -0.656761
O29   O     O_3   0.664814 0.116849 0.885429 -0.686356
C43   C     C_3   0.781385 0.126642 0.966076 0.110226
H50   H     H_    0.721519 0.126083 0.027019 0.048652
H51   H     H_    0.874984 0.199311 0.972065 0.113643
H52   H     H_    0.846392 0.056727 0.964525 0.077122
F7    F     F_    0.085531 0.410165 0.974218 -0.746166
F8    F     F_    0.614649 0.346636 0.293840 -0.764316

loop_
_geom_bond_atom_site_label_1
_geom_bond_atom_site_label_2
_ccdc_geom_bond_type
O22   P2    D    
Ba1   O13   S    
C2    O21   S    
C19   H26   S    
O1    P1    D    
C34   H2    S    
C39   H38   S    
C5    O27   S    
C42   H49   S    
Ba1   O22   S    
C35   O20   S    
C5    C6    S    
C11   H25   S    
C10   H28   S    
C9    C17   A    
C24   C25   A    
C35   C36   S    
C11   C16   A    
O3    P3    S    
C3    H13   S    
C8    O29   S    
C16   C17   A    
C3    C4    S    
O12   P1    S    
C37   O2    S    
C12   F6    S    
C38   H9    S    
C27   C31   A    
O23   P3    S    
C40   H41   S    
Ba2   O8    S    
Ba1   Ba2   S    
O5    P4    S    
C13   P6    S    
Ba2   O13   S    
O25   C39   S    
O15   P7    S    
C10   C14   A    
C14   C15   A    
C41   H46   S    
C21   C22   A    
O6    P8    S    
C3    H12   S    
C12   O3    S    
O8    P7    S    
C7    C8    S    
Ba1   P2    S    
O20   P1    S    
C6    H21   S    
C36   F1    S    
C20   C26   A    
Ba1   O1    S    
O2    P2    S    
Ba2   O6    S    
O9    P5    S    
C4    H14   S    
C4    H15   S    
Ba1   O23   S    
C5    H19   S    
C9    H27   S    
C15   C16   A    
C27   H29   S    
Ba1   O8    S    
C43   H52   S    
O4    P4    D    
C9    C18   A    
C28   C32   A    
C12   H33   S    
C37   C38   S    
C1    H11   S    
C30   H30   S    
Ba1   O5    S    
C21   P5    S    
C33   H37   S    
C15   C19   A    
O21   P6    S    
C2    F4    S    
C23   H35   S    
C33   C34   S    
C29   P2    S    
Ba2   O4    S    
Ba2   O12   S    
C8    O28   S    
C27   C28   A    
O11   P5    S    
C24   C31   S    
C5    O11   S    
C10   C13   A    
C22   F7    S    
Ba1   O18   S    
O7    P4    S    
C29   C32   A    
C39   H39   S    
C43   H51   S    
C35   O25   S    
O18   P6    S    
C1    H17   S    
C14   P1    S    
O19   P6    D    
C6    H22   S    
O24   P3    D    
C11   C13   A    
C41   H44   S    
C34   H4    S    
C23   H18   S    
C20   H34   S    
C35   H5    S    
C1    C2    S    
C32   H32   S    
C25   H31   S    
C37   H7    S    
Ba1   O12   S    
Ba2   P4    S    
C7    H23   S    
O14   P7    D    
C29   C30   A    
C8    H24   S    
C22   C24   A    
C4    H16   S    
O29   C43   S    
C42   H48   S    
C33   O7    S    
C7    F5    S    
C38   F3    S    
C43   H50   S    
O17   P8    S    
C40   H43   S    
C23   H36   S    
C30   C31   A    
O28   C42   S    
C6    H20   S    
C36   O26   S    
O26   C40   S    
O10   P5    D    
C26   P7    S    
C38   H10   S    
Ba1   P1    S    
C40   H42   S    
Ba2   O9    S    
C39   H40   S    
C12   C23   S    
Ba2   O14   S    
O13   P2    S    
C36   H6    S    
C3    O15   S    
Ba2   O5    S    
C33   F8    S    
C18   P8    S    
C1    F2    S    
C18   C19   A    
C17   P4    S    
C2    H1    S    
C28   P3    S    
C25   C26   A    
C41   H45   S    
C20   C21   A    
O27   C41   S    
C34   H3    S    
C7    O17   S    
C42   H47   S    
O16   P8    D    
C37   H8    S    
