data_mof_unit_6229.cif
_audit_creation_date              2013-03-05T16:26:37-0500
_audit_creation_method            fapswitch 2.2
_symmetry_space_group_name_H-M    P1
_symmetry_Int_Tables_number       1
_space_group_crystal_system       triclinic
_cell_length_a                    19.448092
_cell_length_b                    18.111646
_cell_length_c                    10.619097
_cell_angle_alpha                 90.449689
_cell_angle_beta                  88.874866
_cell_angle_gamma                 89.870708
_cell_volume                      3739.59119038

loop_
_atom_site_label
_atom_site_type_symbol
_atom_site_description
_atom_site_fract_x
_atom_site_fract_y
_atom_site_fract_z
_atom_type_partial_charge
O1    O     O_R   0.400190 0.561980 0.499980 -0.562608
O2    O     O_R   0.599810 0.438020 0.500020 -0.567427
O3    O     O_R   0.599810 0.561980 0.500020 -0.558652
O4    O     O_R   0.400190 0.438020 0.499980 -0.558699
C1    C     C_R   0.367549 0.500078 0.498111 0.863106
C2    C     C_R   0.632472 0.499905 0.501162 0.849606
O5    O     O_R   0.500000 0.561950 0.319660 -0.582743
O6    O     O_R   0.500000 0.438050 0.680340 -0.580939
O7    O     O_R   0.500000 0.561950 0.680340 -0.584776
O8    O     O_R   0.500000 0.438050 0.319660 -0.583828
C3    C     C_R   0.511516 0.499557 0.261510 0.861842
C4    C     C_R   0.488774 0.500469 0.738706 0.880324
Cu1   Cu    Cu3+1 0.500000 0.573360 0.500000 1.045723
Cu2   Cu    Cu3+1 0.500000 0.426640 0.500000 1.044353
C5    C     C_R   0.557041 0.632377 0.098726 0.449303
C6    C     C_R   0.445133 0.367646 0.902092 0.468650
C7    C     C_R   0.460932 0.638700 0.905193 0.442050
C8    C     C_R   0.541845 0.361856 0.094688 0.469982
C9    C     C_R   0.539774 0.699665 0.044277 -0.297568
C10   C     C_R   0.463469 0.300321 0.955333 -0.286797
C11   C     C_R   0.490182 0.703117 0.952816 -0.296562
C12   C     C_R   0.513381 0.297181 0.046289 -0.305882
C13   C     C_R   0.485868 0.568735 0.945089 -0.108802
C14   C     C_R   0.516220 0.431574 0.055203 -0.109987
C15   C     C_R   0.524260 0.566229 0.056988 -0.102146
C16   C     C_R   0.477596 0.433957 0.943632 -0.120233
C17   C     C_R   0.474917 0.501706 0.877820 -0.027428
C18   C     C_R   0.526530 0.498485 0.122787 -0.024751
C19   C     C_R   0.744402 0.432777 0.494583 -0.171157
C20   C     C_R   0.255487 0.567013 0.502363 -0.118376
C21   C     C_R   0.256022 0.433248 0.489506 -0.162983
C22   C     C_R   0.744230 0.566616 0.503771 -0.097347
C23   C     C_R   0.815999 0.432719 0.492767 -0.158714
C24   C     C_R   0.183896 0.566907 0.501789 -0.150158
C25   C     C_R   0.184463 0.433183 0.489208 -0.154754
C26   C     C_R   0.815816 0.566516 0.501986 -0.149135
H1    H     H_    0.843064 0.380441 0.486935 0.143059
H2    H     H_    0.156637 0.619057 0.508115 0.140946
H3    H     H_    0.157703 0.380951 0.482771 0.143079
H4    H     H_    0.842707 0.618739 0.506502 0.137044
C27   C     C_R   0.852249 0.499575 0.496634 0.098278
C28   C     C_R   0.147870 0.499991 0.495368 0.095404
C29   C     C_R   0.707951 0.499736 0.500225 -0.023808
C30   C     C_R   0.292106 0.500165 0.496339 -0.045580
C31   C     C_R   0.964829 0.550012 0.421250 -0.156005
C32   C     C_R   0.035350 0.449255 0.569809 -0.156803
C33   C     C_R   0.036431 0.550200 0.421122 -0.162364
C34   C     C_R   0.963764 0.449110 0.570034 -0.162012
C35   C     C_R   0.072207 0.499824 0.495411 0.095562
C36   C     C_R   0.927953 0.499497 0.495785 0.093828
C37   C     C_R   0.461213 0.720651 0.415572 0.173601
C38   C     C_R   0.538852 0.279343 0.584330 0.175955
C39   C     C_R   0.538558 0.721206 0.584830 0.173106
C40   C     C_R   0.461295 0.278795 0.415393 0.179603
C41   C     C_R   0.460568 0.798045 0.413867 -0.272739
C42   C     C_R   0.539425 0.201949 0.586141 -0.264901
C43   C     C_R   0.539083 0.798622 0.586808 -0.279276
C44   C     C_R   0.460700 0.201380 0.413521 -0.264540
H5    H     H_    0.428714 0.825941 0.346560 0.135801
H6    H     H_    0.571326 0.174042 0.653364 0.134566
H7    H     H_    0.570848 0.826960 0.654284 0.131185
H8    H     H_    0.428831 0.173038 0.346215 0.131325
C45   C     C_R   0.499839 0.838434 0.500328 0.105352
C46   C     C_R   0.500022 0.161566 0.499880 0.109812
N1    N     N_R   0.500000 0.683620 0.500000 -0.142549
N2    N     N_R   0.500000 0.316380 0.500000 -0.143763
C47   C     C_R   0.502172 0.961825 0.613764 -0.169517
C48   C     C_R   0.497645 0.038180 0.386479 -0.162404
C49   C     C_R   0.497615 0.960688 0.386597 -0.164370
C50   C     C_R   0.502216 0.039320 0.613643 -0.161212
C51   C     C_R   0.499955 0.078737 0.499997 0.120045
C52   C     C_R   0.499874 0.921266 0.500240 0.121071
H9    H     H_    0.530713 0.243677 0.077865 0.199327
H10   H     H_    0.473572 0.756748 0.920713 0.173231
H11   H     H_    0.439728 0.249453 0.924297 0.201249
H12   H     H_    0.563772 0.750395 0.075230 0.174813
S1    S     S_3+6 0.629577 0.634972 0.197050 0.014160
O9    O     O_2   0.614126 0.682851 0.310265 -0.328782
O10   O     O_2   0.650670 0.559926 0.239776 -0.256761
O11   O     O_3   0.695904 0.672019 0.115630 -0.504452
H13   H     H_    0.689539 0.726160 0.123149 0.343670
S2    S     S_3+6 0.371558 0.364974 0.806495 0.002076
O12   O     O_2   0.387454 0.321017 0.689079 -0.298306
O13   O     O_2   0.315151 0.326336 0.878829 -0.300992
O14   O     O_3   0.343953 0.449214 0.767511 -0.520233
H14   H     H_    0.293519 0.444428 0.759260 0.383848
S3    S     S_3+6 0.381088 0.649963 0.830245 0.012883
O15   O     O_2   0.391553 0.660511 0.691324 -0.315459
O16   O     O_2   0.335731 0.584459 0.853075 -0.224726
O17   O     O_3   0.340719 0.725068 0.890290 -0.518093
H15   H     H_    0.354981 0.766488 0.835352 0.345512
S4    S     S_3+6 0.621037 0.351500 0.172289 -0.000216
O18   O     O_2   0.608491 0.337774 0.309796 -0.304065
O19   O     O_2   0.658822 0.286028 0.116837 -0.295520
O20   O     O_3   0.670471 0.426380 0.152599 -0.486727
H16   H     H_    0.711949 0.416671 0.202623 0.382335
H17   H     H_    0.717693 0.380421 0.490996 0.183416
H18   H     H_    0.282050 0.619384 0.508189 0.180960
H19   H     H_    0.283019 0.380902 0.484582 0.182083
H20   H     H_    0.717369 0.619054 0.508167 0.174889
H21   H     H_    0.938280 0.588684 0.361862 0.147126
H22   H     H_    0.061916 0.410607 0.629224 0.144129
H23   H     H_    0.063884 0.589004 0.361665 0.141678
H24   H     H_    0.936365 0.410393 0.629734 0.141279
H25   H     H_    0.430537 0.690120 0.349227 0.111990
H26   H     H_    0.569618 0.309873 0.650535 0.110049
H27   H     H_    0.569175 0.691092 0.651215 0.105232
H28   H     H_    0.430612 0.308913 0.349114 0.105189
H29   H     H_    0.502752 0.933659 0.703281 0.129617
H30   H     H_    0.497056 0.066349 0.296965 0.135335
H31   H     H_    0.497012 0.931619 0.297159 0.133697
H32   H     H_    0.502837 0.068397 0.703072 0.135288

loop_
_geom_bond_atom_site_label_1
_geom_bond_atom_site_label_2
_geom_bond_distance
_ccdc_geom_bond_type
C44   H8    1.082387 S    
S3    O15   1.498999 D    
C41   H5    1.082385 S    
O20   H16   0.990692 S    
C24   C28   1.403129 A    
O3    C2    1.290327 A    
C33   C35   1.403168 A    
Cu1   N1    1.996990 S    
S1    O9    1.501982 D    
C15   C18   1.417745 A    
C5    C9    1.396110 A    
C32   H22   1.083092 S    
C32   C35   1.403170 A    
C16   C17   1.418225 A    
C7    C13   1.426251 A    
O1    C1    1.289844 A    
C22   C26   1.391971 A    
C9    H12   1.083184 S    
C9    C11   1.383791 A    
C14   C16   1.416133 A    
O11   H13   0.990498 S    
C5    C15   1.429835 A    
C34   H24   1.083033 S    
C19   C23   1.392186 A    
C47   C52   1.408274 A    
C37   N1    1.362482 A    
C46   C51   1.500187 S    
C25   C28   1.402823 A    
O7    Cu1   1.927776 S    
C47   H29   1.082585 S    
C48   C49   1.403529 A    
C41   C45   1.407448 A    
C42   C46   1.407421 A    
C43   C45   1.407567 A    
C50   C51   1.408352 A    
C8    C14   1.425573 A    
C21   H19   1.083123 S    
C39   N1    1.362508 A    
O3    Cu1   1.951566 S    
C6    C10   1.396581 A    
C34   C36   1.403396 A    
C38   H26   1.081636 S    
C7    S3    1.770854 S    
Cu1   Cu2   2.657339 S    
C19   C29   1.403622 A    
C6    C16   1.428846 A    
C20   C30   1.403663 A    
C26   C27   1.403099 A    
O2    C2    1.289666 A    
S4    O19   1.503661 D    
O5    C3    1.300358 A    
S1    O10   1.495343 D    
C44   C46   1.407551 A    
C32   C34   1.392184 A    
C33   H23   1.083071 S    
C21   C30   1.403940 A    
C20   C24   1.392431 A    
C4    C17   1.496422 S    
C26   H4    1.083018 S    
O8    Cu2   1.927777 S    
C39   C43   1.402169 A    
C31   H21   1.083038 S    
O14   H14   0.990415 S    
C11   H10   1.082661 S    
S4    O20   1.676217 S    
C23   H1    1.083023 S    
C42   H6    1.082393 S    
C10   H11   1.083393 S    
C49   C52   1.408371 A    
C25   H3    1.083066 S    
C39   H27   1.081684 S    
O6    C4    1.300937 A    
C6    S2    1.771143 S    
Cu2   N2    1.996990 S    
C48   H30   1.082586 S    
C50   H32   1.082582 S    
C1    C30   1.467712 S    
C10   C12   1.384131 A    
C13   C17   1.422312 A    
C2    C29   1.467761 S    
S3    O16   1.498414 D    
C21   C25   1.391761 A    
O1    Cu1   1.952494 S    
C27   C36   1.472137 S    
C38   N2    1.362544 A    
C40   C44   1.402184 A    
S1    O11   1.682541 S    
O6    Cu2   1.924551 S    
C24   H2    1.083059 S    
C14   C18   1.420211 A    
O4    C1    1.290085 A    
C43   H7    1.082377 S    
C40   N2    1.362530 A    
C40   H28   1.081692 S    
S2    O14   1.674032 S    
C20   H18   1.083026 S    
S2    O13   1.503972 D    
C19   H17   1.083013 S    
C47   C50   1.403577 A    
C23   C27   1.403265 A    
C8    C12   1.395484 A    
C8    S4    1.771215 S    
C31   C36   1.403529 A    
C49   H31   1.082576 S    
O17   H15   0.990715 S    
C5    S1    1.771936 S    
C3    C18   1.496111 S    
C48   C51   1.408224 A    
S4    O18   1.498505 D    
C22   C29   1.403800 A    
C37   C41   1.402021 A    
C13   C15   1.416701 A    
O4    Cu2   1.951570 S    
O2    Cu2   1.952490 S    
O7    C4    1.295513 A    
C7    C11   1.394829 A    
C37   H25   1.081630 S    
O8    C3    1.295738 A    
C28   C35   1.471504 S    
C22   H20   1.083129 S    
O5    Cu1   1.924552 S    
C31   C33   1.392516 A    
C45   C52   1.500239 S    
S2    O12   1.500742 D    
S3    O17   1.683796 S    
C12   H9    1.083119 S    
C38   C42   1.402054 A    
