data_mof_unit_5198.cif
_audit_creation_date              2013-03-05T16:06:20-0500
_audit_creation_method            fapswitch 2.2
_symmetry_space_group_name_H-M    P1
_symmetry_Int_Tables_number       1
_space_group_crystal_system       triclinic
_cell_length_a                    10.780918
_cell_length_b                    9.508739
_cell_length_c                    27.775258
_cell_angle_alpha                 89.913039
_cell_angle_beta                  89.826886
_cell_angle_gamma                 90.222197
_cell_volume                      2847.28549246

loop_
_atom_site_label
_atom_site_type_symbol
_atom_site_description
_atom_site_fract_x
_atom_site_fract_y
_atom_site_fract_z
_atom_type_partial_charge
O1    O     O_R   0.319640 0.618740 0.500000 -0.577340
O2    O     O_R   0.680360 0.381260 0.500000 -0.577091
O3    O     O_R   0.680360 0.618740 0.500000 -0.578243
O4    O     O_R   0.319640 0.381260 0.500000 -0.577941
C1    C     C_R   0.262569 0.499746 0.500229 0.838534
C2    C     C_R   0.737432 0.500255 0.499774 0.837831
O5    O     O_R   0.500020 0.618770 0.430260 -0.584956
O6    O     O_R   0.499980 0.381230 0.569740 -0.584408
O7    O     O_R   0.499980 0.618770 0.569740 -0.588060
O8    O     O_R   0.500020 0.381230 0.430260 -0.586376
C3    C     C_R   0.499743 0.500161 0.407394 0.780094
C4    C     C_R   0.500483 0.499949 0.592622 0.780103
Cu1   Cu    Cu3+1 0.500000 0.640660 0.500000 0.943361
Cu2   Cu    Cu3+1 0.500000 0.359340 0.500000 0.944568
C5    C     C_R   0.417385 0.585127 0.177738 0.559230
C6    C     C_R   0.609055 0.464978 0.822038 0.559833
O9    O     O_2   0.328993 0.653955 0.202767 -0.544313
O10   O     O_2   0.709555 0.423308 0.796808 -0.539463
N1    N     N_R   0.504235 0.506989 0.201606 -0.465550
N2    N     N_R   0.503385 0.503564 0.798321 -0.467523
C7    C     C_R   0.593878 0.434442 0.177101 0.535306
C8    C     C_R   0.400347 0.547645 0.822841 0.533206
C9    C     C_R   0.523098 0.628909 0.279159 -0.103633
C10   C     C_R   0.506114 0.374180 0.721733 -0.100966
C11   C     C_R   0.521385 0.627491 0.329306 -0.219193
C12   C     C_R   0.505498 0.373175 0.671498 -0.218312
C13   C     C_R   0.481393 0.376266 0.328430 -0.217592
C14   C     C_R   0.496717 0.628117 0.670915 -0.217212
C15   C     C_R   0.482270 0.378112 0.278183 -0.099390
C16   C     C_R   0.497157 0.628804 0.721081 -0.105905
C17   C     C_R   0.503212 0.504456 0.253325 0.346829
C18   C     C_R   0.501870 0.501986 0.746679 0.353071
C19   C     C_R   0.510456 0.519594 0.101465 -0.061539
C20   C     C_R   0.509415 0.516635 0.898368 -0.054347
C21   C     C_R   0.419317 0.593515 0.127291 -0.095597
C22   C     C_R   0.613984 0.470535 0.872510 -0.101265
C23   C     C_R   0.334908 0.677880 0.102443 -0.211808
C24   C     C_R   0.722844 0.437787 0.897312 -0.215876
C25   C     C_R   0.598600 0.439201 0.126601 0.001137
C26   C     C_R   0.401573 0.555628 0.873287 0.006246
C27   C     C_R   0.500713 0.501121 0.354412 -0.040449
C28   C     C_R   0.500846 0.500260 0.645636 -0.039718
H1    H     H_    0.464778 0.277527 0.346884 0.155092
H2    H     H_    0.493187 0.727682 0.651993 0.158002
H3    H     H_    0.466253 0.281504 0.258528 0.145863
H4    H     H_    0.494421 0.727995 0.740153 0.139585
H5    H     H_    0.268681 0.741998 0.121855 0.201172
H6    H     H_    0.806790 0.411267 0.877844 0.207044
C29   C     C_R   0.410084 0.579920 0.974801 0.067176
C30   C     C_R   0.610735 0.459091 0.025017 0.063392
C31   C     C_R   0.618500 0.475482 0.974315 -0.084922
C32   C     C_R   0.418498 0.597893 0.025441 -0.080703
C33   C     C_R   0.512586 0.523730 0.949287 0.016444
C34   C     C_R   0.513182 0.525523 0.050521 0.012678
C35   C     C_R   0.301129 0.611064 0.948971 -0.190880
C36   C     C_R   0.694657 0.374438 0.050898 -0.195977
C37   C     C_R   0.297288 0.600254 0.899061 -0.181275
C38   C     C_R   0.688896 0.365107 0.100842 -0.176358
O11   O     O_2   0.297033 0.583361 0.798451 -0.538696
O12   O     O_2   0.679233 0.359616 0.201545 -0.543392
C39   C     C_R   0.337222 0.686080 0.052300 0.424398
C40   C     C_R   0.728306 0.447611 0.947395 0.425670
H7    H     H_    0.508889 0.273114 0.652979 0.156639
H8    H     H_    0.537112 0.725185 0.348373 0.160785
H9    H     H_    0.509685 0.275736 0.741319 0.141135
H10   H     H_    0.540106 0.726866 0.260281 0.145521
H11   H     H_    0.211990 0.626780 0.880732 0.185080
H12   H     H_    0.755591 0.299240 0.119177 0.189979
H13   H     H_    0.215882 0.638184 0.966937 0.198515
H14   H     H_    0.762642 0.309868 0.032944 0.197629
C41   C     C_R   0.066363 0.472565 0.456721 0.122917
C42   C     C_R   0.933641 0.527365 0.543286 0.120392
C43   C     C_R   0.935854 0.473748 0.456158 0.129844
C44   C     C_R   0.064152 0.526343 0.543839 0.129001
C45   C     C_R   0.871443 0.500811 0.499561 -0.107495
C46   C     C_R   0.128561 0.499197 0.500442 -0.107410
C47   C     C_R   0.424496 0.074268 0.469593 -0.014177
C48   C     C_R   0.575501 0.925733 0.530408 -0.016576
C49   C     C_R   0.575489 0.074641 0.530412 -0.014681
C50   C     C_R   0.424505 0.925360 0.469591 -0.014642
H15   H     H_    0.364029 0.130317 0.445252 0.116782
H16   H     H_    0.635966 0.869684 0.554749 0.118334
H17   H     H_    0.635934 0.130991 0.554763 0.122232
H18   H     H_    0.364051 0.869011 0.445243 0.124434
N3    N     N_R   0.500000 0.852070 0.500000 -0.159298
N4    N     N_R   0.500000 0.147930 0.500000 -0.158617
O13   O     O_3   0.261667 0.785298 0.030853 -0.645405
C51   C     C_3   0.333411 0.901863 0.015010 0.048682
H19   H     H_    0.285451 0.948155 0.983417 0.175960
H20   H     H_    0.428290 0.872867 0.002374 0.138125
C52   C     C_3   0.341560 0.013763 0.054567 -0.358474
H21   H     H_    0.246489 0.042246 0.066575 0.236161
H22   H     H_    0.392790 0.970839 0.085933 0.218489
C53   C     C_3   0.408294 0.145997 0.036758 -0.874791
H23   H     H_    0.504398 0.120501 0.025280 0.255751
H24   H     H_    0.412791 0.224299 0.066320 0.265652
H25   H     H_    0.357624 0.193398 0.006018 0.258893
O14   O     O_3   0.844445 0.439234 0.968432 -0.626510
C54   C     C_3   0.882934 0.574434 0.984146 0.065031
H26   H     H_    0.959075 0.559291 0.010497 0.178921
H27   H     H_    0.808514 0.632286 0.003653 0.143800
C55   C     C_3   0.932822 0.663578 0.942159 -0.381055
H28   H     H_    0.011716 0.608089 0.924958 0.225354
H29   H     H_    0.859478 0.678754 0.914682 0.226606
C56   C     C_3   0.975191 0.808333 0.959307 -0.890204
H30   H     H_    0.894665 0.869058 0.972988 0.258238
H31   H     H_    0.017917 0.866945 0.928845 0.262559
H32   H     H_    0.044560 0.798267 0.988475 0.287776
C57   C     C_3   0.142213 0.445094 0.411346 -0.829654
H33   H     H_    0.199985 0.349870 0.416466 0.225769
H34   H     H_    0.086806 0.427564 0.378472 0.244487
H35   H     H_    0.204008 0.536429 0.404016 0.219777
C58   C     C_3   0.857787 0.554611 0.588676 -0.824231
H36   H     H_    0.799986 0.649830 0.583601 0.226420
H37   H     H_    0.796026 0.463214 0.595962 0.218690
H38   H     H_    0.913191 0.572003 0.621560 0.245920
C59   C     C_3   0.866722 0.448187 0.409328 -0.809438
H39   H     H_    0.764632 0.453574 0.412612 0.217495
H40   H     H_    0.893799 0.529206 0.382409 0.235720
H41   H     H_    0.889045 0.341850 0.395379 0.238569
C60   C     C_3   0.133288 0.552186 0.590652 -0.807672
H42   H     H_    0.235391 0.547158 0.587350 0.217081
H43   H     H_    0.110715 0.658468 0.604591 0.237716
H44   H     H_    0.106447 0.471120 0.617589 0.237871

loop_
_geom_bond_atom_site_label_1
_geom_bond_atom_site_label_2
_geom_bond_distance
_ccdc_geom_bond_type
C16   C18   1.400121 A    
O13   C51   1.417820 S    
C13   C15   1.395721 A    
C50   H18   1.081772 S    
O3    C2    1.285818 A    
N1    C17   1.436668 S    
C2    C45   1.444741 S    
O5    C3    1.295189 A    
C56   H31   1.110356 S    
C30   C34   1.417358 A    
C44   C46   1.413856 A    
O1    C1    1.285850 A    
C9    H10   1.082941 S    
N1    C7    1.369575 A    
C10   C12   1.395359 A    
C32   C39   1.425175 A    
C57   H34   1.105131 S    
C41   C46   1.411726 A    
C55   C56   1.525949 S    
C14   C28   1.405662 A    
O7    Cu1   1.947883 S    
C60   H44   1.110358 S    
C4    C28   1.472499 S    
C39   O13   1.384058 S    
C40   O14   1.385828 S    
C13   C27   1.405424 A    
C23   H5    1.083628 S    
C24   H6    1.083633 S    
O3    Cu1   1.956389 S    
C6    N2    1.368731 A    
C53   H24   1.110284 S    
C58   H38   1.105132 S    
Cu1   Cu2   2.674998 S    
C43   C45   1.413846 A    
O2    C2    1.285861 A    
C31   C40   1.424226 A    
C37   H11   1.082904 S    
C42   C45   1.411720 A    
C5    C21   1.403399 A    
C32   C34   1.417421 A    
C56   H32   1.108488 S    
C43   C59   1.520474 S    
Cu2   N4    2.010243 S    
C7    O12   1.349573 S    
C42   C44   1.407229 A    
O8    Cu2   1.947883 S    
C59   H41   1.110372 S    
C11   C27   1.405074 A    
C52   H21   1.111522 S    
C41   C43   1.407225 A    
C48   C49   1.415934 A    
C53   H25   1.110917 S    
C29   C35   1.410433 A    
C25   C38   1.399487 A    
C42   C58   1.523700 S    
C14   H2    1.082990 S    
C30   C36   1.411055 A    
C15   H3    1.082840 S    
C31   C33   1.416144 A    
C11   H8    1.083042 S    
C9    C17   1.401003 A    
C5    N1    1.369637 A    
C12   H7    1.082977 S    
C10   C18   1.400670 A    
C50   N3    1.366843 A    
C52   H22   1.110944 S    
C48   H16   1.081811 S    
C54   H26   1.111055 S    
C7    C25   1.404074 A    
C51   C52   1.533112 S    
C47   H15   1.081822 S    
O6    C4    1.296320 A    
C29   C32   1.420265 A    
C8    C26   1.403420 A    
C44   C60   1.520509 S    
C30   C31   1.418809 A    
C53   H23   1.110885 S    
C19   C25   1.408131 A    
C55   H29   1.110258 S    
C60   H42   1.105532 S    
C35   H13   1.076851 S    
C10   H9    1.082836 S    
C48   N3    1.366761 A    
C38   H12   1.083216 S    
C54   H27   1.114256 S    
C51   H20   1.116164 S    
C47   N4    1.366761 A    
C36   H14   1.079377 S    
C35   C37   1.390951 A    
C20   C26   1.407825 A    
C57   H35   1.110719 S    
O1    Cu1   1.954782 S    
C8    O11   1.349678 S    
C12   C28   1.406010 A    
C58   H36   1.110173 S    
N2    C18   1.434624 S    
C47   C50   1.415931 A    
C19   C34   1.416254 A    
C5    O9    1.349786 S    
O6    Cu2   1.948511 S    
C26   C37   1.398687 A    
C21   C23   1.398471 A    
C16   H4    1.082920 S    
N2    C8    1.368717 A    
O4    C1    1.285817 A    
C23   C39   1.394954 A    
C56   H30   1.110873 S    
C1    C46   1.444712 S    
C59   H40   1.110369 S    
C14   C16   1.393399 A    
C15   C17   1.401936 A    
C57   H33   1.110182 S    
C6    C22   1.404101 A    
C52   C53   1.527166 S    
C49   H17   1.081788 S    
C29   C33   1.417686 A    
C41   C57   1.523729 S    
C22   C24   1.398558 A    
C19   C21   1.405935 A    
C36   C38   1.391081 A    
C3    C27   1.471614 S    
C20   C22   1.406704 A    
C9    C11   1.392965 A    
O4    Cu2   1.956389 S    
C55   H28   1.109899 S    
O2    Cu2   1.954782 S    
O7    C4    1.295522 A    
C60   H43   1.110380 S    
O8    C3    1.296200 A    
C13   H1    1.083053 S    
O5    Cu1   1.948511 S    
C54   C55   1.535421 S    
C51   H19   1.111068 S    
C20   C33   1.416505 A    
C6    O10   1.349666 S    
O14   C54   1.419183 S    
Cu1   N3    2.010243 S    
C24   C40   1.395742 A    
C59   H39   1.105512 S    
C49   N4    1.366845 A    
C58   H37   1.110741 S    
