data_mof_unit_37873.cif
_audit_creation_date              2012-12-10T17:48:47-0500
_audit_creation_method            fapswitch 2.2
_symmetry_space_group_name_H-M    P1
_symmetry_Int_Tables_number       1
_space_group_crystal_system       triclinic
_cell_length_a                    15.730073
_cell_length_b                    10.609731
_cell_length_c                    10.027461
_cell_angle_alpha                 86.81769
_cell_angle_beta                  89.822244
_cell_angle_gamma                 91.022774
_cell_volume                      1670.64057131

loop_
_atom_site_label
_atom_site_type_symbol
_atom_type_description
_atom_site_fract_x
_atom_site_fract_y
_atom_site_fract_z
_atom_type_partial_charge
C1    C     C_R   0.502324 0.260724 0.503979 1.027162
C2    C     C_R   0.723760 0.052891 0.644892 -0.155345
C3    C     C_R   0.733788 0.936128 0.589702 -0.178393
C4    C     C_R   0.338712 0.499462 0.500097 0.891397
C5    C     C_R   0.667775 0.882358 0.517784 -0.011132
C6    C     C_R   0.586204 0.937761 0.517396 -0.030905
C7    C     C_R   0.580019 0.063773 0.551155 -0.088924
C8    C     C_R   0.504759 0.127492 0.513602 -0.301579
C9    C     C_R   0.433096 0.064369 0.467554 0.551719
C10   C     C_R   0.434669 0.936053 0.459238 0.546097
C11   C     C_R   0.510297 0.873201 0.484677 -0.286303
C12   C     C_3   0.950968 0.457381 0.646506 0.379341
C13   C     C_R   0.348163 0.549212 0.112619 -0.240582
C14   C     C_R   0.272483 0.504873 0.055281 0.782146
C15   C     C_R   0.276084 0.420229 0.951718 -0.323990
C16   C     C_R   0.504567 0.739425 0.495958 1.008669
C17   C     C_R   0.355421 0.403545 0.887354 -0.179404
C18   C     C_R   0.427895 0.467859 0.933858 0.177179
C19   C     C_R   0.425621 0.502189 0.068349 -0.024059
C20   C     C_R   0.573792 0.507053 0.068938 -0.030993
C21   C     C_R   0.571579 0.527255 0.926623 -0.032846
C22   C     C_R   0.661111 0.495782 0.500074 0.896363
C23   C     C_3   0.916828 0.484519 0.500668 -0.408334
C24   C     C_3   0.050003 0.450500 0.641411 0.920395
C25   C     C_3   0.049407 0.389935 0.399317 1.106256
C26   C     C_3   0.949858 0.382461 0.406367 -0.477087
C27   C     C_1   0.749776 0.488664 0.500279 -0.148366
C28   C     C_3   0.082720 0.488737 0.497531 -0.534663
C29   C     C_2   0.922516 0.555478 0.741281 0.627409
C30   C     C_2   0.792354 0.107774 0.725607 0.594849
C31   C     C_2   0.692487 0.788336 0.422365 0.428955
C32   C     C_2   0.657048 0.492169 0.133378 0.479079
C33   C     C_2   0.348266 0.667955 0.183851 0.614898
C34   C     C_3   0.950964 0.615057 0.441631 0.209135
C35   C     C_2   0.198205 0.349637 0.913165 0.701693
C36   C     C_2   0.366786 0.294466 0.804216 0.538371
C37   C     C_2   0.646825 0.582562 0.856639 0.587917
C38   C     C_2   0.911643 0.251583 0.439049 0.737685
C39   C     C_3   0.048921 0.621906 0.453323 1.043211
C40   C     C_1   0.825002 0.485340 0.500300 0.156973
C41   C     C_1   0.174466 0.492507 0.497680 0.356168
C42   C     C_1   0.249800 0.496004 0.499458 -0.023345
C43   C     C_R   0.649321 0.120397 0.618029 0.545091
F1    F     F_    0.918456 0.341666 0.696514 -0.568175
F2    F     F_    0.072468 0.709080 0.545195 -0.524151
F3    F     F_    0.083554 0.663370 0.330837 -0.508367
F4    F     F_    0.914133 0.715094 0.502284 -0.635731
F5    F     F_    0.087642 0.528190 0.732517 -0.627068
F6    F     F_    0.360824 0.127299 0.435088 -0.584136
F7    F     F_    0.644379 0.237426 0.664491 -0.692983
F8    F     F_    0.362444 0.872503 0.427346 -0.574072
F9    F     F_    0.074437 0.328177 0.676604 -0.535041
F10   F     F_    0.196181 0.544123 0.099426 -0.485843
F11   F     F_    0.073811 0.427149 0.269849 -0.538508
F12   F     F_    0.086470 0.273991 0.428420 -0.514406
H1    H     H_    0.933246 0.625709 0.334190 0.203458
H2    H     H_    0.324365 0.277942 0.721694 0.060662
H3    H     H_    0.708070 0.538231 0.868302 0.110522
H4    H     H_    0.847594 0.230716 0.405657 -0.020823
H5    H     H_    0.794797 0.890256 0.596203 0.241399
H6    H     H_    0.926223 0.407979 0.303894 0.181520
H7    H     H_    0.946782 0.651781 0.730559 0.160148
H8    H     H_    0.785070 0.200046 0.765309 0.150770
H9    H     H_    0.749780 0.735061 0.439512 0.116157
H10   H     H_    0.672178 0.402701 0.184760 0.067657
H11   H     H_    0.406816 0.722230 0.191709 0.087282
H12   H     H_    0.199442 0.288048 0.830785 0.075968
N1    N     N_R   0.499210 0.498800 0.142780 -0.133990
N2    N     N_R   0.499180 0.498720 0.857170 -0.115070
O1    O     O_R   0.500000 0.316780 0.614690 -0.539082
O2    O     O_2   0.857455 0.050104 0.750331 -0.430363
O3    O     O_2   0.654659 0.778790 0.317259 -0.499290
O4    O     O_2   0.709566 0.578474 0.128872 -0.513688
O5    O     O_2   0.283213 0.708003 0.231516 -0.382091
O6    O     O_2   0.131502 0.357399 0.974547 -0.344071
O7    O     O_2   0.421869 0.217867 0.832243 -0.513859
O8    O     O_2   0.641558 0.681952 0.790133 -0.547413
O9    O     O_2   0.949456 0.170200 0.504681 -0.354417
O10   O     O_R   0.499990 0.316750 0.385360 -0.617139
O11   O     O_R   0.377150 0.500020 0.614720 -0.654324
O12   O     O_R   0.377140 0.499990 0.385380 -0.611280
O13   O     O_R   0.500010 0.683250 0.614640 -0.576432
O14   O     O_R   0.500000 0.683220 0.385310 -0.600208
O15   O     O_R   0.622860 0.500010 0.614620 -0.580822
O16   O     O_R   0.622850 0.499980 0.385280 -0.628737
O17   O     O_2   0.873732 0.526654 0.833333 -0.510329
Zn1   Zn    Zn3+2 0.500010 0.500020 0.653130 1.055501
Zn2   Zn    Zn3+2 0.499990 0.499980 0.346870 1.018958

loop_
_geom_bond_atom_site_label_1
_geom_bond_atom_site_label_2
_ccdc_geom_bond_type
C24   F9    S    
C34   H1    S    
C12   C29   S    
C1    C8    S    
C41   C42   T    
O15   Zn1   S    
C30   O2    D    
C7    C8    A    
C25   C28   S    
C12   C23   S    
C35   O6    D    
C26   H6    S    
C4    O11   A    
O11   Zn1   S    
C5    C6    A    
C23   C26   S    
O1    Zn1   S    
C23   C40   S    
C28   C41   S    
C18   C19   A    
C22   O16   A    
C36   O7    D    
C4    O12   A    
C8    C9    A    
C17   C36   S    
C7    C43   A    
C9    C10   A    
C2    C43   A    
C37   H3    S    
N2    Zn1   S    
C39   F2    S    
C3    H5    S    
C18   N2    A    
O14   Zn2   S    
C13   C14   A    
C10   F8    S    
C15   C35   S    
O10   Zn2   S    
C33   H11   S    
C13   C19   A    
C34   C39   S    
C24   F5    S    
C24   C28   S    
C9    F6    S    
C25   F11   S    
C36   H2    S    
C6    C11   A    
C26   C38   S    
C38   O9    D    
C28   C39   S    
C25   C26   S    
C37   O8    D    
C16   O14   A    
C21   N2    A    
C22   O15   A    
C13   C33   S    
C11   C16   S    
C35   H12   S    
C27   C40   T    
C23   C34   S    
C16   O13   A    
C17   C18   A    
C19   N1    A    
C29   O17   D    
C39   F3    S    
C31   O3    D    
C22   C27   S    
N1    Zn2   S    
C32   O4    D    
C20   C32   S    
O16   Zn2   S    
C15   C17   A    
C29   H7    S    
C31   H9    S    
C20   N1    A    
C25   F12   S    
C3    C5    A    
C43   F7    S    
C6    C7    A    
C12   C24   S    
C1    O1    A    
C2    C30   S    
C2    C3    A    
C12   F1    S    
C4    C42   S    
C1    O10   A    
O12   Zn2   S    
C10   C11   A    
C38   H4    S    
C33   O5    D    
C14   F10   S    
C21   C37   S    
C20   C21   A    
C14   C15   A    
C34   F4    S    
C30   H8    S    
O13   Zn1   S    
C32   H10   S    
C5    C31   S    
