data_mof_unit_42286.cif
_audit_creation_date              2012-12-10T17:30:20-0500
_audit_creation_method            fapswitch 2.2
_symmetry_space_group_name_H-M    P1
_symmetry_Int_Tables_number       1
_space_group_crystal_system       triclinic
_cell_length_a                    11.986534
_cell_length_b                    12.874413
_cell_length_c                    14.991786
_cell_angle_alpha                 90.728929
_cell_angle_beta                  87.077786
_cell_angle_gamma                 93.193632
_cell_volume                      2306.81629741

loop_
_atom_site_label
_atom_site_type_symbol
_atom_type_description
_atom_site_fract_x
_atom_site_fract_y
_atom_site_fract_z
_atom_type_partial_charge
C1    C     C_R   0.521916 0.700435 0.498681 0.867817
C2    C     C_R   0.359923 0.137269 0.495955 -0.217178
C3    C     C_R   0.439984 0.867705 0.490739 -0.288029
C4    C     C_R   0.559587 0.132649 0.517487 -0.287490
C5    C     C_R   0.447250 0.974251 0.498027 0.183844
C6    C     C_R   0.551984 0.025844 0.512320 0.184327
C7    C     C_R   0.953965 0.399962 0.418310 -0.417960
C8    C     C_R   0.046095 0.600906 0.580748 -0.419418
C9    C     C_R   0.836258 0.407543 0.426897 0.699978
C10   C     C_R   0.163715 0.592112 0.573440 0.700664
C11   C     C_R   0.859210 0.545380 0.532769 -0.155549
C12   C     C_R   0.478122 0.299628 0.503252 0.874119
C13   C     C_R   0.141066 0.456639 0.465166 -0.139039
C14   C     C_R   0.976211 0.537379 0.528395 0.039853
C15   C     C_R   0.023973 0.463980 0.470195 0.036332
C16   C     C_R   0.501542 0.503737 0.672930 0.872267
C17   C     C_R   0.498613 0.496943 0.327028 0.914490
C18   C     C_R   0.423914 0.423645 0.187118 0.188440
C19   C     C_R   0.579665 0.573782 0.812780 0.172279
C20   C     C_R   0.497374 0.493013 0.231478 -0.118531
C21   C     C_R   0.503721 0.506801 0.768406 -0.146464
C22   C     C_R   0.572513 0.560954 0.185384 -0.251020
C23   C     C_R   0.634775 0.653153 0.955573 0.457180
C24   C     C_R   0.429136 0.438460 0.814649 -0.221909
C25   C     C_R   0.573348 0.566161 0.093216 0.046810
C26   C     C_R   0.433191 0.428828 0.906301 0.040998
C27   C     C_R   0.502883 0.495155 0.046426 -0.074315
C28   C     C_R   0.503701 0.499714 0.953197 -0.085566
C29   C     C_R   0.432029 0.419447 0.092990 -0.075328
C30   C     C_R   0.573407 0.576342 0.906788 -0.045376
C31   C     C_R   0.640768 0.643550 0.047910 0.092264
C32   C     C_R   0.369176 0.348740 0.951282 0.112719
C33   C     C_3   0.363391 0.281472 0.290329 -0.720076
C34   C     C_R   0.373385 0.341028 0.044047 0.438775
C35   C     C_3   0.773760 0.598237 0.761498 -0.668284
C36   C     C_3   0.822964 0.675486 0.106590 -0.760437
C37   C     C_3   0.357385 0.197268 0.850601 -0.816805
C38   C     C_3   0.616821 0.815889 0.903967 -0.321772
C39   C     C_3   0.405309 0.177659 0.086842 -0.325735
C40   C     C_3   0.207778 0.754191 0.636494 -0.354690
C41   C     C_3   0.791259 0.243882 0.367960 -0.356372
C42   C     C_R   0.464715 0.188344 0.506586 -0.048095
C43   C     C_R   0.535036 0.811790 0.499930 -0.045959
C44   C     C_R   0.647714 0.969990 0.519897 -0.231991
C45   C     C_R   0.351280 0.029843 0.491304 -0.229241
C46   C     C_R   0.639200 0.862492 0.513885 -0.207975
H1    H     H_    0.990902 0.345575 0.371390 0.154163
H2    H     H_    0.270456 0.990473 0.481445 0.133631
H3    H     H_    0.179242 0.400801 0.420380 0.151842
H4    H     H_    0.821149 0.603663 0.574920 0.150957
H5    H     H_    0.257924 0.361891 0.209705 0.254282
H6    H     H_    0.329463 0.207277 0.261531 0.246828
H7    H     H_    0.323189 0.289661 0.357735 0.232647
H8    H     H_    0.455272 0.277830 0.295710 0.223970
H9    H     H_    0.639944 0.664027 0.703193 0.215211
H10   H     H_    0.834191 0.656791 0.729890 0.212282
H11   H     H_    0.775973 0.524129 0.722914 0.225967
H12   H     H_    0.009016 0.655443 0.627387 0.149386
H13   H     H_    0.800252 0.584367 0.830048 0.249497
H14   H     H_    0.717316 0.789183 0.073609 0.255747
H15   H     H_    0.868486 0.668105 0.040530 0.252669
H16   H     H_    0.816023 0.598629 0.139926 0.249344
H17   H     H_    0.871646 0.730970 0.148896 0.233391
H18   H     H_    0.228738 0.246262 0.938133 0.264238
H19   H     H_    0.340943 0.119375 0.881095 0.237006
H20   H     H_    0.449398 0.214704 0.844757 0.242149
H21   H     H_    0.324970 0.194528 0.782533 0.247163
H22   H     H_    0.580942 0.842403 0.969768 0.138003
H23   H     H_    0.626050 0.614123 0.223006 0.186753
H24   H     H_    0.548287 0.790155 0.860001 0.169655
H25   H     H_    0.663068 0.883742 0.871960 0.195152
H26   H     H_    0.476563 0.204571 0.127637 0.173717
H27   H     H_    0.437376 0.156458 0.018583 0.172375
H28   H     H_    0.365784 0.105997 0.117751 0.184510
H29   H     H_    0.142590 0.761947 0.691144 0.169068
H30   H     H_    0.180674 0.786869 0.573128 0.140725
H31   H     H_    0.282998 0.801583 0.655908 0.201252
H32   H     H_    0.817687 0.213495 0.432426 0.141304
H33   H     H_    0.856703 0.233580 0.313938 0.167843
H34   H     H_    0.371716 0.388930 0.777366 0.191141
H35   H     H_    0.715766 0.196230 0.349516 0.200444
H36   H     H_    0.640020 0.172261 0.528480 0.161641
H37   H     H_    0.359726 0.828463 0.478452 0.163619
H38   H     H_    0.285604 0.180065 0.489183 0.155967
H39   H     H_    0.713106 0.819267 0.521367 0.158730
H40   H     H_    0.728342 0.009230 0.530737 0.134579
N1    N     N_R   0.207800 0.519350 0.516680 -0.142777
N2    N     N_R   0.792200 0.480650 0.483320 -0.140153
N3    N     N_2   0.335367 0.368200 0.236830 -0.284625
N4    N     N_2   0.662501 0.636964 0.763757 -0.261327
N5    N     N_2   0.713239 0.713475 0.095600 -0.308886
N6    N     N_2   0.300353 0.275048 0.903754 -0.295681
O1    O     O_R   0.421700 0.658830 0.504450 -0.587124
O2    O     O_3   0.324347 0.253228 0.085304 -0.615988
O3    O     O_3   0.236429 0.649598 0.626822 -0.573428
O4    O     O_3   0.763542 0.348971 0.374378 -0.574703
O5    O     O_R   0.578300 0.341170 0.495550 -0.583565
O6    O     O_R   0.609310 0.646410 0.493750 -0.643927
O7    O     O_R   0.390690 0.353590 0.506250 -0.645737
O8    O     O_R   0.406180 0.506230 0.637500 -0.570526
O9    O     O_R   0.593820 0.493770 0.362500 -0.579278
O10   O     O_R   0.593800 0.493820 0.626800 -0.634682
O11   O     O_R   0.406200 0.506180 0.373200 -0.612620
O12   O     O_3   0.692166 0.736839 0.913852 -0.586688
Zn1   Zn    Zn3+2 0.374730 0.508290 0.507150 0.983841
Zn2   Zn    Zn3+2 0.625270 0.491710 0.492850 0.976467

loop_
_geom_bond_atom_site_label_1
_geom_bond_atom_site_label_2
_ccdc_geom_bond_type
C25   C31   A    
C38   H24   S    
C26   C32   A    
C16   C21   S    
C27   C29   A    
C2    H38   S    
C33   H6    S    
C3    C43   A    
O8    Zn1   S    
C19   C21   A    
C24   C26   A    
H9    N4    S    
C9    N2    A    
C5    C6    A    
C11   C14   A    
C36   H16   S    
C45   H2    S    
C41   O4    S    
C33   H8    S    
C17   C20   S    
C35   H13   S    
C39   H28   S    
C17   O9    A    
C12   O7    A    
C38   O12   S    
O1    Zn1   S    
C24   H34   S    
C44   C46   A    
C22   C25   A    
C37   H19   S    
C12   C42   S    
C39   H26   S    
C36   H17   S    
C22   H23   S    
C46   H39   S    
C8    H12   S    
C7    C15   A    
C6    C44   A    
C44   H40   S    
C1    C43   S    
C2    C45   A    
C33   H7    S    
O7    Zn1   S    
C10   N1    A    
C23   C30   A    
C4    C6    A    
C41   H32   S    
C16   O8    A    
C5    C45   A    
C29   C34   A    
C40   H30   S    
C23   C31   A    
C39   O2    S    
C33   N3    S    
N2    Zn2   S    
C23   O12   S    
N1    Zn1   S    
C11   N2    A    
C41   H35   S    
C37   H20   S    
C13   N1    A    
O11   Zn1   S    
C18   C29   A    
C9    O4    S    
C12   O5    A    
C13   H3    S    
O5    Zn2   S    
C36   N5    S    
C16   O10   A    
C20   C22   A    
C31   N5    S    
C13   C15   A    
C3    H37   S    
H18   N6    S    
C40   O3    S    
C36   H15   S    
H14   N5    S    
O9    Zn2   S    
C7    C9    A    
C38   H25   S    
C8    C14   A    
C37   N6    S    
C35   H10   S    
C14   C15   A    
C18   N3    S    
C8    C10   A    
C34   O2    S    
C38   H22   S    
C3    C5    A    
C1    O6    A    
C41   H33   S    
C25   C27   A    
C7    H1    S    
C26   C28   A    
O6    Zn2   S    
C40   H29   S    
C35   H11   S    
C28   C30   A    
C17   O11   A    
C19   N4    S    
H5    N3    S    
C32   N6    S    
C4    C42   A    
C10   O3    S    
C2    C42   A    
C37   H21   S    
O10   Zn2   S    
C18   C20   A    
C39   H27   S    
C43   C46   A    
C35   N4    S    
C4    H36   S    
C1    O1    A    
C21   C24   A    
C27   C28   A    
C11   H4    S    
C40   H31   S    
C19   C30   A    
C32   C34   A    
