data_mof_unit_54196.cif
_audit_creation_date              2012-12-10T17:48:20-0500
_audit_creation_method            fapswitch 2.2
_symmetry_space_group_name_H-M    P1
_symmetry_Int_Tables_number       1
_space_group_crystal_system       triclinic
_cell_length_a                    13.905303
_cell_length_b                    14.777557
_cell_length_c                    14.658903
_cell_angle_alpha                 115.483975
_cell_angle_beta                  106.670411
_cell_angle_gamma                 71.791649
_cell_volume                      2541.84598876

loop_
_atom_site_label
_atom_site_type_symbol
_atom_type_description
_atom_site_fract_x
_atom_site_fract_y
_atom_site_fract_z
_atom_type_partial_charge
C1    C     C_R   0.516083 0.119064 0.688769 0.854131
C2    C     C_R   0.483165 0.880994 0.310623 0.833287
C3    C     C_R   0.467635 0.361729 0.920232 -0.117572
C4    C     C_R   0.441304 0.644033 0.072532 -0.089641
C5    C     C_R   0.519705 0.327683 0.001933 -0.121786
C6    C     C_R   0.401362 0.685751 0.995633 -0.084529
C7    C     C_R   0.435783 0.470102 0.941255 -0.054347
C8    C     C_R   0.445572 0.538366 0.046194 -0.069386
C9    C     C_R   0.460529 0.497551 0.122015 0.490709
C10   C     C_R   0.404048 0.512311 0.863242 0.465109
C11   C     C_R   0.507627 0.394689 0.102090 -0.214776
C12   C     C_R   0.382706 0.619972 0.892903 -0.258603
C13   C     C_R   0.296616 0.326478 0.373129 0.316979
C14   C     C_R   0.705996 0.669529 0.618798 0.339719
C15   C     C_R   0.337812 0.229807 0.381030 0.482091
C16   C     C_R   0.663566 0.767943 0.615556 0.469945
C17   C     C_R   0.494789 0.279106 0.478106 0.027600
C18   C     C_R   0.505618 0.720415 0.520398 0.070529
C19   C     C_R   0.461376 0.373916 0.462204 -0.090239
C20   C     C_R   0.540137 0.623596 0.532335 -0.067985
C21   C     C_R   0.357562 0.399500 0.417157 -0.035762
C22   C     C_R   0.644708 0.596837 0.574782 -0.033943
C23   C     C_R   0.687040 0.986075 0.503442 0.801468
C24   C     C_R   0.312839 0.012911 0.494952 0.824139
C25   C     C_R   0.524300 0.447034 0.495493 0.013140
C26   C     C_R   0.477180 0.550307 0.498725 0.032659
C27   C     C_R   0.368674 0.577240 0.471517 0.358466
C28   C     C_R   0.632746 0.419660 0.522536 0.372756
C29   C     C_R   0.312592 0.500269 0.423304 -0.266408
C30   C     C_R   0.689522 0.495951 0.568382 -0.209656
C31   C     C_1   0.207164 0.020542 0.491739 -0.144546
C32   C     C_1   0.792350 0.975761 0.502526 -0.124004
C33   C     C_2   0.012379 0.034970 0.490808 0.368751
C34   C     C_2   0.986527 0.958356 0.498259 0.371911
C35   C     C_1   0.880705 0.967204 0.500792 -0.022761
C36   C     C_1   0.118497 0.027250 0.490531 -0.028886
C37   C     C_R   0.520112 0.188565 0.798073 -0.309195
C38   C     C_R   0.464229 0.814348 0.199545 -0.347362
C39   C     C_R   0.579567 0.226845 0.981691 0.435418
C40   C     C_R   0.387445 0.791935 0.020498 0.424638
C41   C     C_R   0.589158 0.161552 0.879043 0.233760
C42   C     C_R   0.419007 0.856290 0.122381 0.237067
C43   C     C_R   0.450460 0.284303 0.821832 0.469519
C44   C     C_R   0.485353 0.706742 0.170930 0.412236
Cu1   Cu    Cu3+1 0.526370 0.916390 0.524860 0.978144
Cu2   Cu    Cu3+1 0.473630 0.083610 0.475140 0.989494
H1    H     H_    0.531819 0.367293 0.164599 0.216402
H2    H     H_    0.358719 0.653319 0.835317 0.207443
H3    H     H_    0.230775 0.521674 0.396579 0.192092
H4    H     H_    0.771520 0.474085 0.593978 0.194857
H5    H     H_    0.434332 0.738193 0.471926 0.208763
H6    H     H_    0.565198 0.263219 0.529016 0.216668
N1    N     N_R   0.433980 0.209250 0.437830 -0.257831
N2    N     N_R   0.566020 0.790750 0.562170 -0.264097
O1    O     O_R   0.534760 0.019630 0.662610 -0.591980
O2    O     O_R   0.465240 0.980370 0.337390 -0.591040
O3    O     O_R   0.490220 0.160840 0.620610 -0.534822
O4    O     O_R   0.509780 0.839160 0.379390 -0.542664
O5    O     O_R   0.663260 0.919400 0.523940 -0.562980
O6    O     O_R   0.336740 0.080600 0.476060 -0.542161
O7    O     O_R   0.618720 0.060610 0.481950 -0.569145
O8    O     O_R   0.381280 0.939390 0.518050 -0.572745
O9    O     O_3   0.060853 0.872200 0.503787 -0.748556
H7    H     H_    0.027190 0.824627 0.508527 0.324939
O10   O     O_3   0.938015 0.120999 0.484996 -0.744928
H8    H     H_    0.971792 0.168828 0.480846 0.328489
O11   O     O_3   0.197140 0.351979 0.323113 -0.744221
H9    H     H_    0.162016 0.294546 0.297098 0.376380
O12   O     O_3   0.806810 0.642335 0.665093 -0.739375
H10   H     H_    0.842538 0.699149 0.689909 0.372909
O13   O     O_3   0.317165 0.679068 0.498323 -0.745698
H11   H     H_    0.241880 0.683975 0.476942 0.341770
O14   O     O_3   0.683535 0.317683 0.497614 -0.728125
H12   H     H_    0.758796 0.312317 0.520512 0.346447
O15   O     O_3   0.553258 0.662108 0.237853 -0.542978
C45   C     C_3   0.656044 0.658327 0.236845 0.086839
H13   H     H_    0.701079 0.665446 0.314747 0.176746
H14   H     H_    0.664522 0.723038 0.221666 0.105090
C46   C     C_3   0.702148 0.555193 0.159102 -0.363944
H15   H     H_    0.694083 0.491491 0.175630 0.246678
H16   H     H_    0.660120 0.547980 0.080265 0.218860
C47   C     C_3   0.815762 0.545663 0.163763 -0.868394
H17   H     H_    0.825573 0.607801 0.145994 0.254346
H18   H     H_    0.846756 0.470399 0.106431 0.268204
H19   H     H_    0.860144 0.550355 0.241305 0.261143
O16   O     O_3   0.359080 0.293867 0.753080 -0.556705
C48   C     C_3   0.274706 0.309243 0.798012 0.037120
H20   H     H_    0.242155 0.393043 0.832368 0.152482
H21   H     H_    0.295818 0.277034 0.859355 0.128952
C49   C     C_3   0.193020 0.256022 0.714853 -0.338836
H22   H     H_    0.176015 0.278373 0.647614 0.231800
H23   H     H_    0.223398 0.171686 0.689237 0.217553
C50   C     C_3   0.093715 0.282943 0.754766 -0.883334
H24   H     H_    0.108708 0.259783 0.821175 0.263216
H25   H     H_    0.036899 0.241570 0.693029 0.272597
H26   H     H_    0.060539 0.366836 0.778674 0.257608
O17   O     O_3   0.408547 0.958731 0.143274 -0.725621
H27   H     H_    0.477151 0.974831 0.177545 0.346569
O18   O     O_3   0.666064 0.073820 0.860728 -0.714057
H28   H     H_    0.691922 0.064124 0.800115 0.324993
O19   O     O_3   0.634357 0.197848 0.063437 -0.710762
H29   H     H_    0.667228 0.123780 0.037474 0.378982
O20   O     O_3   0.344524 0.830127 0.942881 -0.720705
H30   H     H_    0.336763 0.905527 0.970778 0.380596
O21   O     O_3   0.428902 0.557099 0.215590 -0.568340
C51   C     C_3   0.320569 0.573054 0.202580 0.053626
H31   H     H_    0.304606 0.535757 0.246469 0.175844
H32   H     H_    0.280999 0.539076 0.121462 0.110037
C52   C     C_3   0.273226 0.688263 0.245160 -0.316377
H33   H     H_    0.313936 0.724353 0.324199 0.247309
H34   H     H_    0.281850 0.724756 0.196566 0.206808
C53   C     C_3   0.159186 0.708616 0.247307 -0.858260
H35   H     H_    0.116052 0.676040 0.168351 0.250396
H36   H     H_    0.127693 0.792747 0.279485 0.271467
H37   H     H_    0.148245 0.673741 0.296259 0.258082
O22   O     O_3   0.407384 0.446180 0.761139 -0.575863
C54   C     C_3   0.340340 0.483382 0.685397 0.106245
H38   H     H_    0.348770 0.419303 0.610628 0.179907
H39   H     H_    0.365425 0.545901 0.681716 0.133663
C55   C     C_3   0.225702 0.511234 0.692966 -0.397805
H40   H     H_    0.202981 0.442707 0.685710 0.241309
H41   H     H_    0.210346 0.572770 0.767723 0.218165
C56   C     C_3   0.158129 0.547617 0.607579 -0.856838
H42   H     H_    0.180200 0.615331 0.611253 0.266786
H43   H     H_    0.076331 0.569800 0.616441 0.270377
H44   H     H_    0.165891 0.484983 0.531441 0.273748
O23   O     O_3   0.725008 0.838021 0.662552 -0.735808
H45   H     H_    0.679988 0.905224 0.690673 0.374786
O24   O     O_3   0.275947 0.159926 0.336212 -0.730262
H46   H     H_    0.319454 0.092172 0.305420 0.386887

loop_
_geom_bond_atom_site_label_1
_geom_bond_atom_site_label_2
_ccdc_geom_bond_type
C7    C10   A    
C48   H20   S    
C50   H24   S    
C27   C29   A    
O14   H12   S    
C11   H1    S    
C45   C46   S    
C4    C8    A    
C53   H36   S    
O17   H27   S    
C33   O10   S    
C7    C8    A    
C39   C41   A    
C29   H3    S    
Cu1   Cu2   S    
C25   C28   A    
C23   O5    A    
C3    C43   A    
C26   C27   A    
O19   H29   S    
C20   C26   A    
C15   N1    A    
C19   C21   A    
C45   H14   S    
C5    C11   A    
C3    C7    A    
C54   H39   S    
C6    C12   A    
C56   H43   S    
C51   H31   S    
C9    O21   S    
Cu1   O8    S    
C33   C36   S    
O22   C54   S    
C34   C35   S    
C8    C9    A    
C41   O18   S    
C18   C20   A    
C55   C56   S    
C12   H2    S    
C40   C42   A    
C30   H4    S    
C50   H25   S    
C28   O14   S    
C17   H6    S    
C53   H35   S    
C55   H41   S    
C18   H5    S    
C39   O19   S    
Cu1   O4    S    
Cu2   O7    S    
O11   H9    S    
C32   C35   T    
C56   H42   S    
C10   O22   S    
C45   H13   S    
C4    C6    A    
C42   O17   S    
C46   H16   S    
O16   C48   S    
C56   H44   S    
C4    C44   A    
C25   C26   A    
C21   C29   A    
C52   C53   S    
C37   C43   A    
C44   O15   S    
O15   C45   S    
C38   C44   A    
C1    O3    A    
C2    C38   S    
C49   H23   S    
O18   H28   S    
C15   O24   S    
C24   O6    A    
C33   C34   D    
C13   C21   A    
C9    C11   A    
C10   C12   A    
C20   C22   A    
Cu1   N2    S    
O10   H8    S    
C50   H26   S    
C47   H18   S    
C13   C15   A    
Cu2   O3    S    
C14   O12   S    
C14   C16   A    
C46   H15   S    
C54   C55   S    
O23   H45   S    
C17   N1    A    
C27   O13   S    
C55   H40   S    
C49   C50   S    
O24   H46   S    
C13   O11   S    
C5    C39   A    
Cu1   O5    S    
C24   O8    A    
C22   C30   A    
Cu2   O6    S    
C43   O16   S    
C3    C5    A    
C46   C47   S    
C2    O4    A    
C38   C42   A    
C1    C37   S    
C47   H19   S    
O21   C51   S    
C23   C32   S    
C14   C22   A    
C52   H34   S    
C1    O1    A    
C24   C31   S    
O13   H11   S    
C2    O2    A    
C52   H33   S    
C40   O20   S    
C49   H22   S    
C51   H32   S    
Cu2   N1    S    
C28   C30   A    
C34   O9    S    
C17   C19   A    
C6    C40   A    
C37   C41   A    
O12   H10   S    
C19   C25   A    
C16   O23   S    
C16   N2    A    
C18   N2    A    
O9    H7    S    
C23   O7    A    
Cu1   O1    S    
C47   H17   S    
C48   C49   S    
Cu2   O2    S    
O20   H30   S    
C48   H21   S    
C31   C36   T    
C54   H38   S    
C53   H37   S    
C51   C52   S    
