data_mof_unit_12442.cif
_audit_creation_date              2012-12-10T17:30:17-0500
_audit_creation_method            fapswitch 2.2
_symmetry_space_group_name_H-M    P1
_symmetry_Int_Tables_number       1
_space_group_crystal_system       triclinic
_cell_length_a                    12.102925
_cell_length_b                    12.875234
_cell_length_c                    14.99425
_cell_angle_alpha                 90.527683
_cell_angle_beta                  87.080729
_cell_angle_gamma                 92.912386
_cell_volume                      2330.4264082

loop_
_atom_site_label
_atom_site_type_symbol
_atom_type_description
_atom_site_fract_x
_atom_site_fract_y
_atom_site_fract_z
_atom_type_partial_charge
C1    C     C_R   0.521085 0.699740 0.488988 0.880664
C2    C     C_R   0.361463 0.136293 0.537594 0.147818
C3    C     C_R   0.436610 0.870251 0.474302 0.108376
C4    C     C_R   0.563390 0.129749 0.525699 0.108377
C5    C     C_R   0.446874 0.975078 0.498487 0.071250
C6    C     C_R   0.553126 0.024922 0.501514 0.071250
C7    C     C_R   0.951429 0.386826 0.431621 0.130661
C8    C     C_R   0.048571 0.613174 0.568379 0.130660
C9    C     C_R   0.839105 0.409556 0.425791 0.300633
C10   C     C_R   0.160895 0.590444 0.574209 0.300634
C11   C     C_R   0.857779 0.542180 0.535748 0.019828
C12   C     C_R   0.478915 0.300260 0.511012 0.880663
C13   C     C_R   0.142221 0.457820 0.464252 0.019828
C14   C     C_R   0.976145 0.540262 0.525991 -0.063622
C15   C     C_R   0.023855 0.459738 0.474009 -0.063622
C16   C     C_R   0.500790 0.498144 0.672431 0.916890
C17   C     C_R   0.499210 0.501856 0.327568 0.916890
C18   C     C_R   0.510661 0.404497 0.186795 0.107550
C19   C     C_R   0.489337 0.595503 0.813205 0.107547
C20   C     C_R   0.496289 0.499181 0.232128 -0.082218
C21   C     C_R   0.503710 0.500818 0.767872 -0.082216
C22   C     C_R   0.477928 0.591516 0.187922 0.090313
C23   C     C_R   0.466709 0.687158 0.958885 0.191258
C24   C     C_R   0.522069 0.408483 0.812078 0.090312
C25   C     C_R   0.493270 0.594434 0.094780 0.075496
C26   C     C_R   0.506726 0.405565 0.905220 0.075497
C27   C     C_R   0.501853 0.499597 0.046915 -0.096136
C28   C     C_R   0.498144 0.500402 0.953085 -0.096135
C29   C     C_R   0.517608 0.404745 0.092291 0.057693
C30   C     C_R   0.482389 0.595253 0.907709 0.057693
C31   C     C_R   0.494774 0.688976 0.047777 0.182565
C32   C     C_R   0.505221 0.311023 0.952222 0.182565
C33   C     C_3   0.496646 0.303576 0.239792 -0.861548
C34   C     C_R   0.533286 0.312841 0.041115 0.191259
C35   C     C_3   0.503354 0.696424 0.760209 -0.861549
C36   C     C_3   0.987107 0.279797 0.403121 -0.930947
C37   C     C_3   0.012893 0.720203 0.596879 -0.930946
C38   C     C_3   0.423921 0.678875 0.240203 -0.908088
C39   C     C_3   0.576074 0.321124 0.759797 -0.908090
C40   C     C_3   0.544011 0.790234 0.084862 -0.905458
C41   C     C_3   0.455982 0.209766 0.915138 -0.905458
C42   C     C_3   0.403471 0.777498 0.927521 -0.902520
C43   C     C_3   0.596522 0.222499 0.072479 -0.902524
C44   C     C_3   0.674601 0.174534 0.555064 -0.873150
C45   C     C_R   0.467226 0.188319 0.527504 -0.110848
C46   C     C_3   0.325399 0.825466 0.444936 -0.873152
C47   C     C_3   0.257216 0.190189 0.565629 -0.853977
C48   C     C_3   0.742784 0.809811 0.434371 -0.853980
C49   C     C_1   0.196233 0.397045 0.395259 0.261979
C50   C     C_1   0.803767 0.602955 0.604741 0.261979
C51   C     C_3   0.224461 0.637560 0.650165 -0.831023
C52   C     C_3   0.775539 0.362440 0.349834 -0.831022
C53   C     C_R   0.532774 0.811681 0.472496 -0.110847
C54   C     C_R   0.647072 0.970186 0.476738 -0.209674
C55   C     C_R   0.352929 0.029814 0.523263 -0.209674
C56   C     C_R   0.638537 0.863707 0.462406 0.147818
H1    H     H_    0.728158 0.009664 0.469724 0.162031
H2    H     H_    0.916717 0.221160 0.409943 0.237707
H3    H     H_    0.019725 0.280727 0.332594 0.253735
H4    H     H_    0.950507 0.748026 0.552301 0.240064
H5    H     H_    0.980275 0.719273 0.667405 0.253735
H6    H     H_    0.083283 0.778840 0.590057 0.237707
H7    H     H_    0.484154 0.718623 0.284165 0.230051
H8    H     H_    0.387046 0.736119 0.197666 0.255625
H9    H     H_    0.351394 0.646543 0.280737 0.251576
H10   H     H_    0.515843 0.281380 0.715832 0.230051
H11   H     H_    0.648603 0.353455 0.719266 0.251576
H12   H     H_    0.271842 0.990336 0.530277 0.162032
H13   H     H_    0.612945 0.263877 0.802333 0.255625
H14   H     H_    0.479355 0.846967 0.099303 0.240476
H15   H     H_    0.589586 0.777715 0.145892 0.254406
H16   H     H_    0.605620 0.825377 0.035026 0.243337
H17   H     H_    0.410405 0.222286 0.854109 0.254407
H18   H     H_    0.520636 0.153032 0.900697 0.240475
H19   H     H_    0.394373 0.174624 0.964974 0.243338
H20   H     H_    0.357963 0.814479 0.984591 0.238836
H21   H     H_    0.460011 0.838376 0.895729 0.247296
H22   H     H_    0.337761 0.749862 0.882851 0.243157
H23   H     H_    0.458509 0.313427 0.307803 0.238323
H24   H     H_    0.642025 0.185515 0.015409 0.238838
H25   H     H_    0.662234 0.250133 0.117147 0.243157
H26   H     H_    0.539981 0.161624 0.104274 0.247297
H27   H     H_    0.666072 0.242983 0.599171 0.259910
H28   H     H_    0.714662 0.117262 0.596175 0.228644
H29   H     H_    0.730035 0.195174 0.496035 0.244142
H30   H     H_    0.333929 0.757017 0.400829 0.259910
H31   H     H_    0.269965 0.804826 0.503965 0.244143
H32   H     H_    0.285338 0.882739 0.403825 0.228644
H33   H     H_    0.189371 0.133985 0.588863 0.219423
H34   H     H_    0.438402 0.247845 0.207113 0.248378
H35   H     H_    0.273053 0.244550 0.622034 0.245441
H36   H     H_    0.227441 0.232392 0.508360 0.253607
H37   H     H_    0.810628 0.866015 0.411136 0.219423
H38   H     H_    0.772559 0.767608 0.491639 0.253608
H39   H     H_    0.726946 0.755451 0.377966 0.245441
H40   H     H_    0.175975 0.691344 0.692716 0.208419
H41   H     H_    0.243024 0.575070 0.696441 0.250279
H42   H     H_    0.300152 0.681956 0.626618 0.266813
H43   H     H_    0.824025 0.308656 0.307284 0.208419
H44   H     H_    0.699848 0.318044 0.373382 0.266814
H45   H     H_    0.577554 0.269729 0.248634 0.235301
H46   H     H_    0.756976 0.424930 0.303559 0.250279
H47   H     H_    0.541494 0.686574 0.692199 0.238324
H48   H     H_    0.422445 0.730270 0.751364 0.235301
H49   H     H_    0.561595 0.752156 0.792890 0.248378
H50   H     H_    0.049493 0.251974 0.447699 0.240064
N1    N     N_R   0.207800 0.519350 0.516680 -0.141494
N2    N     N_R   0.792200 0.480650 0.483320 -0.141494
N3    N     N_1   0.238736 0.348006 0.339568 -0.220311
N4    N     N_1   0.761265 0.651994 0.660432 -0.220312
O1    O     O_R   0.421700 0.658830 0.504450 -0.623004
O2    O     O_R   0.578300 0.341170 0.495550 -0.623004
O3    O     O_R   0.609310 0.646410 0.493750 -0.613340
O4    O     O_R   0.390690 0.353590 0.506250 -0.613339
O5    O     O_R   0.406180 0.506230 0.637500 -0.626784
O6    O     O_R   0.593820 0.493770 0.362500 -0.626784
O7    O     O_R   0.593800 0.493820 0.626800 -0.618645
O8    O     O_R   0.406200 0.506180 0.373200 -0.618645
Zn1   Zn    Zn3+2 0.374730 0.508290 0.507150 0.932837
Zn2   Zn    Zn3+2 0.625270 0.491710 0.492850 0.932837

loop_
_geom_bond_atom_site_label_1
_geom_bond_atom_site_label_2
_ccdc_geom_bond_type
C25   C31   A    
C51   H41   S    
C16   C21   S    
C48   H39   S    
C27   C29   A    
C7    C36   S    
N2    Zn2   S    
C13   N1    A    
C36   H3    S    
C24   C39   S    
C52   H43   S    
C37   H6    S    
C9    N2    A    
C26   C32   A    
C52   H46   S    
C23   C42   S    
C40   H14   S    
C33   H45   S    
C40   H15   S    
C24   C26   A    
C46   H31   S    
C35   H47   S    
C2    C55   A    
C5    C6    A    
C11   C14   A    
C22   C38   S    
C50   N4    T    
C17   C20   S    
C31   C40   S    
O1    Zn1   S    
C47   H36   S    
C1    C53   S    
O8    Zn1   S    
C41   H18   S    
C39   H11   S    
C22   C25   A    
C32   C41   S    
C12   O4    A    
O4    Zn1   S    
C51   H40   S    
C44   H27   S    
C51   H42   S    
C7    C15   A    
C47   H33   S    
C10   N1    A    
C9    C52   S    
C1    O3    A    
C6    C54   A    
C10   C51   S    
N1    Zn1   S    
C47   H35   S    
C55   H12   S    
C46   H32   S    
C4    C45   A    
C2    C45   A    
C54   C56   A    
C48   H37   S    
C36   H2    S    
C36   H50   S    
C23   C30   A    
C4    C6    A    
C35   H48   S    
O7    Zn2   S    
O2    Zn2   S    
C33   H23   S    
C4    C44   S    
C44   H28   S    
C43   H24   S    
C29   C34   A    
C52   H44   S    
O6    Zn2   S    
C32   C34   A    
C35   H49   S    
C41   H19   S    
O3    Zn2   S    
C38   H9    S    
C39   H13   S    
C18   C29   A    
C48   H38   S    
C17   O8    A    
C13   C49   S    
C20   C22   A    
C42   H22   S    
O5    Zn1   S    
C13   C15   A    
C43   H25   S    
C39   H10   S    
C8    C37   S    
C44   H29   S    
C16   O5    A    
C12   O2    A    
C49   N3    T    
C38   H7    S    
C53   C56   A    
C48   C56   S    
C8    C14   A    
C40   H16   S    
C19   C21   A    
C26   C28   A    
C5    C55   A    
C34   C43   S    
C12   C45   S    
C3    C5    A    
C37   H5    S    
C2    C47   S    
C25   C27   A    
C3    C46   S    
C42   H20   S    
C28   C30   A    
C11   C50   S    
C19   C35   S    
C16   O7    A    
C1    O1    A    
C3    C53   A    
C18   C20   A    
C18   C33   S    
C37   H4    S    
C41   H17   S    
C7    C9    A    
C42   H21   S    
C8    C10   A    
C21   C24   A    
C11   N2    A    
C38   H8    S    
C14   C15   A    
C46   H30   S    
C33   H34   S    
C19   C30   A    
C43   H26   S    
C17   O6    A    
C23   C31   A    
C27   C28   A    
C54   H1    S    
