data_mof_unit_16129.cif
_audit_creation_date              2012-12-10T21:26:02-0500
_audit_creation_method            fapswitch 2.2
_symmetry_space_group_name_H-M    P1
_symmetry_Int_Tables_number       1
_space_group_crystal_system       triclinic
_cell_length_a                    8.65836
_cell_length_b                    16.24746
_cell_length_c                    16.908144
_cell_angle_alpha                 87.71712
_cell_angle_beta                  92.811149
_cell_angle_gamma                 100.721168
_cell_volume                      2333.1004547

loop_
_atom_site_label
_atom_site_type_symbol
_atom_type_description
_atom_site_fract_x
_atom_site_fract_y
_atom_site_fract_z
_atom_type_partial_charge
C1    C     C_R   0.494619 0.488686 0.653302 0.899756
C2    C     C_R   0.498986 0.511031 0.348070 0.935185
C3    C     C_R   0.436836 0.760554 0.455156 0.155545
C4    C     C_R   0.588064 0.248086 0.537104 0.201139
C5    C     C_R   0.449452 0.848417 0.456728 -0.093342
C6    C     C_R   0.584229 0.160293 0.541418 -0.139974
C7    C     C_R   0.542123 0.894515 0.517074 0.188421
C8    C     C_R   0.465449 0.106056 0.497606 0.211757
C9    C     C_R   0.628154 0.850196 0.571114 -0.158716
C10   C     C_R   0.355734 0.143211 0.450772 -0.155889
C11   C     C_R   0.617327 0.762394 0.565502 0.034249
C12   C     C_R   0.368845 0.231382 0.445854 0.013733
C13   C     C_R   0.799925 0.521252 0.502503 0.930359
C14   C     C_R   0.200051 0.478845 0.497145 0.916847
C15   C     C_2   0.963946 0.529264 0.514725 -0.251643
C16   C     C_2   0.036150 0.471290 0.484344 -0.253359
C17   C     C_R   0.496635 0.483221 0.740924 -0.135470
C18   C     C_R   0.491238 0.518442 0.263121 -0.092680
C19   C     C_R   0.504959 0.557728 0.783231 0.038634
C20   C     C_R   0.343801 0.498883 0.223337 0.001223
C21   C     C_R   0.540960 0.557530 0.864541 0.060652
C22   C     C_R   0.335494 0.500586 0.140490 0.053195
C23   C     C_R   0.545941 0.481394 0.906031 0.246202
C24   C     C_R   0.473918 0.521808 0.099257 0.250834
C25   C     C_R   0.525860 0.406139 0.866151 -0.099980
C26   C     C_R   0.620579 0.549301 0.139366 -0.079528
C27   C     C_R   0.498646 0.406187 0.783602 -0.123309
C28   C     C_R   0.629213 0.546628 0.222142 -0.127667
N1    N     N_2   0.556851 0.479345 0.989340 -0.163526
N2    N     N_2   0.460826 0.517836 0.016558 -0.129894
N3    N     N_R   0.519180 0.718290 0.509780 -0.128287
N4    N     N_R   0.480820 0.281710 0.490220 -0.113496
N5    N     N_2   0.564768 0.984671 0.520171 -0.146044
N6    N     N_2   0.446545 0.015694 0.499269 -0.153667
O1    O     O_R   0.493140 0.422050 0.612640 -0.610099
O2    O     O_R   0.506860 0.577950 0.387360 -0.645049
O3    O     O_R   0.505450 0.562230 0.618920 -0.587039
O4    O     O_R   0.494550 0.437770 0.381080 -0.606488
O5    O     O_R   0.723530 0.446300 0.497600 -0.601168
O6    O     O_R   0.276470 0.553700 0.502400 -0.631110
O7    O     O_R   0.735850 0.586490 0.503880 -0.616803
O8    O     O_R   0.264150 0.413510 0.496120 -0.619069
Zn1   Zn    Zn3+2 0.491780 0.406400 0.495810 0.989232
Zn2   Zn    Zn3+2 0.508220 0.593600 0.504190 0.967545
C29   C     C_1   0.038977 0.592164 0.570531 0.237349
N7    N     N_1   0.099900 0.641931 0.614677 -0.176563
C30   C     C_1   0.961166 0.409528 0.427526 0.242120
N8    N     N_1   0.899809 0.360831 0.382502 -0.183002
N9    N     N_3   0.203836 0.479387 0.267719 -0.458866
H1    H     H_    0.139493 0.421640 0.250218 0.212195
H2    H     H_    0.135738 0.525059 0.253628 0.200578
N10   N     N_3   0.466528 0.632277 0.744782 -0.411468
H3    H     H_    0.364674 0.644691 0.768905 0.193077
H4    H     H_    0.557663 0.682896 0.755707 0.186071
N11   N     N_3   0.187872 0.478961 0.096991 -0.431968
H5    H     H_    0.136839 0.417365 0.112576 0.195671
H6    H     H_    0.113559 0.518849 0.112828 0.201190
N12   N     N_3   0.572337 0.634563 0.906423 -0.430953
H7    H     H_    0.474436 0.663763 0.899810 0.192458
H8    H     H_    0.669250 0.673906 0.882286 0.195120
C31   C     C_1   0.528074 0.328492 0.911233 0.218517
N13   N     N_1   0.529850 0.266561 0.947236 -0.175309
C32   C     C_1   0.759773 0.582602 0.095682 0.230885
N14   N     N_1   0.870691 0.609313 0.060761 -0.198486
C33   C     C_1   0.459872 0.326192 0.745304 0.235873
N15   N     N_1   0.427203 0.262008 0.715483 -0.195186
C34   C     C_1   0.778166 0.573281 0.265301 0.177099
N16   N     N_1   0.896352 0.594795 0.300061 -0.220295
N17   N     N_3   0.705308 0.303267 0.582106 -0.380723
H9    H     H_    0.698102 0.285333 0.642005 0.180130
H10   H     H_    0.816078 0.296839 0.563992 0.175293
N18   N     N_3   0.343688 0.717860 0.391649 -0.447078
H11   H     H_    0.266707 0.665853 0.413078 0.237793
H12   H     H_    0.417733 0.701576 0.350544 0.218594
C35   C     C_1   0.699007 0.128905 0.593494 0.202935
N19   N     N_1   0.791986 0.105096 0.635401 -0.168578
C36   C     C_1   0.379593 0.890119 0.390743 0.256848
N20   N     N_1   0.324408 0.922702 0.337306 -0.170720
C37   C     C_1   0.729638 0.894734 0.632180 0.214969
N21   N     N_1   0.811095 0.929370 0.681403 -0.165239
C38   C     C_1   0.227212 0.090620 0.408392 0.223238
N22   N     N_1   0.123589 0.049103 0.374727 -0.166746
C39   C     C_1   0.716401 0.719512 0.616890 0.264294
N23   N     N_1   0.796552 0.685954 0.658610 -0.207061
C40   C     C_1   0.266671 0.269001 0.391857 0.267605
N24   N     N_1   0.184854 0.298131 0.347431 -0.202877

loop_
_geom_bond_atom_site_label_1
_geom_bond_atom_site_label_2
_ccdc_geom_bond_type
C36   N20   T    
N11   H5    S    
C2    C18   S    
C35   N19   T    
C13   O7    A    
C38   N22   T    
C6    C35   S    
C40   N24   T    
C20   N9    S    
C12   C40   S    
C23   N1    S    
C19   C21   A    
C24   C26   A    
N12   H8    S    
C15   C16   D    
C9    C37   S    
N17   H10   S    
C8    N6    S    
C19   N10   S    
C30   N8    T    
N9    H2    S    
O1    Zn1   S    
C18   C20   A    
C1    O3    A    
C14   O8    A    
C11   N3    A    
C12   N4    A    
C7    N5    S    
C31   N13   T    
C16   C30   S    
C4    N17   S    
N10   H4    S    
C21   C23   A    
N3    Zn2   S    
C34   N16   T    
C17   C27   A    
C28   C34   S    
C18   C28   A    
N18   H12   S    
C5    C7    A    
C6    C8    A    
C11   C39   S    
N12   H7    S    
C29   N7    T    
C37   N21   T    
C26   C32   S    
N1    N2    D    
C27   C33   S    
C2    O4    A    
C39   N23   T    
O6    Zn2   S    
N5    N6    D    
C25   C31   S    
C3    N3    A    
C9    C11   A    
C4    N4    A    
C10   C12   A    
C4    C6    A    
C20   C22   A    
C33   N15   T    
C13   C15   S    
O7    Zn2   S    
C22   C24   A    
O2    Zn2   S    
O8    Zn1   S    
C15   C29   S    
C5    C36   S    
N10   H3    S    
C1    O1    A    
C2    O2    A    
C7    C9    A    
C1    C17   S    
N18   H11   S    
C3    C5    A    
O5    Zn1   S    
C22   N11   S    
C25   C27   A    
C10   C38   S    
C26   C28   A    
O3    Zn2   S    
N11   H6    S    
C3    N18   S    
C21   N12   S    
C17   C19   A    
N4    Zn1   S    
C14   C16   S    
C23   C25   A    
N17   H9    S    
C24   N2    S    
C13   O5    A    
C14   O6    A    
C32   N14   T    
O4    Zn1   S    
C8    C10   A    
N9    H1    S    
