data_mof_unit_63315.cif
_audit_creation_date              2012-12-10T18:19:12-0500
_audit_creation_method            fapswitch 2.2
_symmetry_space_group_name_H-M    P1
_symmetry_Int_Tables_number       1
_space_group_crystal_system       triclinic
_cell_length_a                    32.286772
_cell_length_b                    32.286924
_cell_length_c                    35.590231
_cell_angle_alpha                 90.000232
_cell_angle_beta                  90.000071
_cell_angle_gamma                 89.999973
_cell_volume                      37100.7001121

loop_
_atom_site_label
_atom_site_type_symbol
_atom_type_description
_atom_site_fract_x
_atom_site_fract_y
_atom_site_fract_z
_atom_type_partial_charge
C1    C     C_R   0.920512 0.500000 1.000000 0.845235
C2    C     C_R   0.500000 0.079489 1.000000 0.844983
C3    C     C_R   0.079489 0.500000 0.000000 0.845183
C4    C     C_R   0.500000 0.920511 0.000000 0.844960
C5    C     C_R   0.420511 0.000000 0.500000 0.845038
C6    C     C_R   1.000000 0.579489 0.500000 0.845028
C7    C     C_R   0.579489 0.000000 0.500000 0.845030
C8    C     C_R   0.000000 0.420511 0.500000 0.845039
C9    C     C_R   0.771707 0.494949 0.966020 -0.094349
C10   C     C_R   0.493841 0.228295 0.966170 -0.094460
C11   C     C_R   0.228295 0.505879 0.966129 -0.094458
C12   C     C_R   0.506626 0.771703 0.966244 -0.094568
C13   C     C_R   0.771707 0.505052 0.033980 -0.094330
C14   C     C_R   0.493373 0.771704 0.033757 -0.094531
C15   C     C_R   0.228295 0.494121 0.033870 -0.094477
C16   C     C_R   0.506157 0.228295 0.033829 -0.094498
C17   C     C_R   0.271705 0.993911 0.466160 -0.094469
C18   C     C_R   0.993751 0.728296 0.466184 -0.094492
C19   C     C_R   0.728295 0.006183 0.466174 -0.094491
C20   C     C_R   0.005993 0.271705 0.466146 -0.094462
C21   C     C_R   0.271705 0.006089 0.533840 -0.094477
C22   C     C_R   0.994006 0.271705 0.533854 -0.094452
C23   C     C_R   0.728295 0.993817 0.533826 -0.094484
C24   C     C_R   0.006249 0.728296 0.533816 -0.094501
C25   C     C_R   0.793634 0.500000 1.000000 -0.040874
C26   C     C_R   0.499999 0.206368 1.000000 -0.040869
C27   C     C_R   0.206368 0.500000 0.000000 -0.040867
C28   C     C_R   0.500000 0.793631 0.000000 -0.040863
C29   C     C_R   0.293632 1.000000 0.500000 -0.040867
C30   C     C_R   1.000000 0.706368 0.500000 -0.040863
C31   C     C_R   0.706368 1.000000 0.500000 -0.040865
C32   C     C_R   1.000000 0.293632 0.500000 -0.040867
C33   C     C_1   0.661458 0.500000 1.000000 0.116698
C34   C     C_1   0.499999 0.338544 0.000000 0.116652
C35   C     C_1   0.338544 0.500000 0.000000 0.116698
C36   C     C_1   0.500000 0.661456 1.000000 0.116652
C37   C     C_1   0.161456 1.000000 0.500000 0.116685
C38   C     C_1   1.000000 0.838544 0.500000 0.116689
C39   C     C_1   0.838544 1.000000 0.500000 0.116685
C40   C     C_1   1.000000 0.161456 0.500000 0.116689
C41   C     C_1   0.838637 0.500000 1.000000 0.006567
C42   C     C_1   0.500000 0.161365 1.000000 0.006296
C43   C     C_1   0.161366 0.500000 0.000000 0.006391
C44   C     C_1   0.500000 0.838634 0.000000 0.006197
C45   C     C_1   0.338635 1.000000 0.500000 0.006323
C46   C     C_1   1.000000 0.661365 0.500000 0.006293
C47   C     C_1   0.661365 1.000000 0.500000 0.006302
C48   C     C_1   1.000000 0.338635 0.500000 0.006347
C49   C     C_1   0.876021 0.500000 1.000000 -0.089296
C50   C     C_1   0.500000 0.123980 1.000000 -0.089632
C51   C     C_1   0.123980 0.500000 0.000000 -0.089431
C52   C     C_1   0.500000 0.876019 0.000000 -0.089705
C53   C     C_1   0.376020 0.000000 0.500000 -0.089573
C54   C     C_1   1.000000 0.623980 0.500000 -0.089596
C55   C     C_1   0.623980 1.000000 0.500000 -0.089589
C56   C     C_1   1.000000 0.376020 0.500000 -0.089557
C57   C     C_1   0.624056 0.500000 0.000000 -0.074205
C58   C     C_1   0.500000 0.375946 1.000000 -0.074250
C59   C     C_1   0.375946 0.500000 0.000000 -0.074194
C60   C     C_1   0.500000 0.624054 0.000000 -0.074246
C61   C     C_1   0.124054 1.000000 0.500000 -0.074214
C62   C     C_1   1.000000 0.875946 0.500000 -0.074211
C63   C     C_1   0.875946 1.000000 0.500000 -0.074212
C64   C     C_1   1.000000 0.124054 0.500000 -0.074214
C65   C     C_R   0.500000 0.420459 1.000000 0.801704
C66   C     C_R   0.420459 0.500000 0.000000 0.801744
C67   C     C_R   0.500000 0.579541 0.000000 0.801743
C68   C     C_R   0.579541 0.500000 0.000000 0.801675
C69   C     C_R   0.000000 0.920459 0.500000 0.801754
C70   C     C_R   0.920459 1.000000 0.500000 0.801751
C71   C     C_R   1.000000 0.079541 0.500000 0.801734
C72   C     C_R   0.079541 1.000000 0.500000 0.801741
C73   C     C_R   0.999998 0.500000 0.927616 0.866333
C74   C     C_R   0.500000 0.000001 0.927615 0.866124
C75   C     C_R   0.999998 0.500000 0.072384 0.866334
C76   C     C_R   0.500000 0.000001 0.072385 0.866126
C77   C     C_R   0.500000 1.000000 0.427615 0.866180
C78   C     C_R   1.000000 0.500000 0.427615 0.866178
C79   C     C_R   0.499999 0.000000 0.572385 0.866181
C80   C     C_R   0.000000 0.499999 0.572385 0.866179
C81   C     C_R   0.977998 0.469647 0.673067 -0.143102
C82   C     C_R   0.469650 0.022000 0.673066 -0.143128
C83   C     C_R   0.021993 0.530341 0.673071 -0.143119
C84   C     C_R   0.530344 0.978005 0.673068 -0.143131
C85   C     C_R   0.977997 0.530346 0.326932 -0.143122
C86   C     C_R   0.469653 0.978005 0.326932 -0.143131
C87   C     C_R   0.021992 0.469653 0.326930 -0.143099
C88   C     C_R   0.530347 0.022000 0.326934 -0.143128
C89   C     C_R   0.477971 0.969681 0.173070 -0.143183
C90   C     C_R   0.969585 0.521916 0.173063 -0.143005
C91   C     C_R   0.522026 0.030331 0.173068 -0.143142
C92   C     C_R   0.030394 0.478078 0.173065 -0.143054
C93   C     C_R   0.477972 0.030331 0.826932 -0.143151
C94   C     C_R   0.969584 0.478081 0.826938 -0.143001
C95   C     C_R   0.522028 0.969682 0.826930 -0.143175
C96   C     C_R   0.030392 0.521918 0.826934 -0.143058
C97   C     C_R   0.977833 0.469433 0.633776 0.220970
C98   C     C_R   0.469435 0.022166 0.633776 0.220955
C99   C     C_R   0.022164 0.530557 0.633781 0.220950
C100  C     C_R   0.530560 0.977836 0.633778 0.220947
C101  C     C_R   0.977831 0.530561 0.366222 0.220952
C102  C     C_R   0.469438 0.977836 0.366222 0.220955
C103  C     C_R   0.022163 0.469438 0.366220 0.220968
C104  C     C_R   0.530563 0.022167 0.366224 0.220948
C105  C     C_R   0.477803 0.969464 0.133780 0.220942
C106  C     C_R   0.969372 0.522083 0.133772 0.220959
C107  C     C_R   0.522194 0.030545 0.133778 0.220975
C108  C     C_R   0.030611 0.477911 0.133775 0.220903
C109  C     C_R   0.477805 0.030546 0.866222 0.220976
C110  C     C_R   0.969371 0.477916 0.866228 0.220960
C111  C     C_R   0.522197 0.969465 0.866220 0.220943
C112  C     C_R   0.030610 0.522088 0.866224 0.220902
C113  C     C_R   1.000000 0.499996 0.613738 -0.160406
C114  C     C_R   0.499998 0.000000 0.613737 -0.160408
C115  C     C_R   0.999999 0.500000 0.386262 -0.160407
C116  C     C_R   0.500000 0.000000 0.386263 -0.160409
C117  C     C_R   0.499999 0.000003 0.113738 -0.160461
C118  C     C_R   0.999994 0.499999 0.113735 -0.160268
C119  C     C_R   0.500000 0.000004 0.886262 -0.160462
C120  C     C_R   0.999993 0.500001 0.886265 -0.160268
C121  C     C_R   0.999993 0.499994 0.692701 0.016387
C122  C     C_R   0.499997 0.000004 0.692698 0.016384
C123  C     C_R   0.999993 0.499999 0.307299 0.016387
C124  C     C_R   0.500000 0.000004 0.307302 0.016384
C125  C     C_R   0.499999 0.000006 0.192700 0.016390
C126  C     C_R   0.999990 0.499998 0.192696 0.016373
C127  C     C_R   0.499999 0.000007 0.807300 0.016390
C128  C     C_R   0.999988 0.499997 0.807304 0.016372
C129  C     C_1   0.999989 0.499994 0.733083 0.019456
C130  C     C_1   0.499997 0.000006 0.733079 0.019421
C131  C     C_1   0.999991 0.499999 0.266917 0.019456
C132  C     C_1   0.500000 0.000005 0.266920 0.019421
C133  C     C_1   0.500000 0.000006 0.233081 0.019420
C134  C     C_1   0.999989 0.499999 0.233078 0.019455
C135  C     C_1   0.499998 0.000007 0.766918 0.019421
C136  C     C_1   0.999988 0.499995 0.766922 0.019455
C137  C     C_R   0.728078 0.505048 0.033960 0.204204
C138  C     C_R   0.506155 0.271924 0.033810 0.204200
C139  C     C_R   0.271924 0.494123 0.033851 0.204212
C140  C     C_R   0.493374 0.728075 0.033737 0.204154
C141  C     C_R   0.728077 0.494954 0.966039 0.204224
C142  C     C_R   0.506625 0.728074 0.966263 0.204190
C143  C     C_R   0.271924 0.505877 0.966149 0.204192
C144  C     C_R   0.493843 0.271924 0.966190 0.204163
C145  C     C_R   0.228076 0.006087 0.533820 0.204202
C146  C     C_R   0.006247 0.771925 0.533796 0.204198
C147  C     C_R   0.771925 0.993819 0.533806 0.204190
C148  C     C_R   0.994009 0.228076 0.533834 0.204197
C149  C     C_R   0.228076 0.993913 0.466180 0.204192
C150  C     C_R   0.005991 0.228076 0.466166 0.204204
C151  C     C_R   0.771924 0.006181 0.466194 0.204200
C152  C     C_R   0.993753 0.771924 0.466204 0.204191
C153  C     C_R   0.706291 0.500000 1.000000 -0.016171
C154  C     C_R   0.499999 0.293710 0.000000 -0.016114
C155  C     C_R   0.293710 0.500000 0.000000 -0.016095
C156  C     C_R   0.499999 0.706289 1.000000 -0.016070
C157  C     C_R   0.206290 1.000000 0.500000 -0.016096
C158  C     C_R   1.000000 0.793710 0.500000 -0.016079
C159  C     C_R   0.793710 1.000000 0.500000 -0.016088
C160  C     C_R   1.000000 0.206290 0.500000 -0.016104
Cu1   Cu    Cu3+1 0.000000 0.540940 0.000000 1.092526
Cu2   Cu    Cu3+1 0.540940 0.000000 0.000000 1.092598
Cu3   Cu    Cu3+1 0.000000 0.459060 0.000000 1.092523
Cu4   Cu    Cu3+1 0.459060 0.000000 0.000000 1.092617
Cu5   Cu    Cu3+1 0.500000 0.040940 0.500000 1.092593
Cu6   Cu    Cu3+1 0.040940 0.500000 0.500000 1.092593
Cu7   Cu    Cu3+1 0.500000 0.959060 0.500000 1.092585
Cu8   Cu    Cu3+1 0.959060 0.500000 0.500000 1.092618
Cu9   Cu    Cu3+1 0.500000 0.500000 0.962670 1.091245
Cu10  Cu    Cu3+1 0.500000 0.500000 0.037330 1.091245
Cu11  Cu    Cu3+1 0.000000 0.000000 0.462670 1.091206
Cu12  Cu    Cu3+1 1.000000 0.000000 0.537330 1.091206
H1    H     H_    0.961129 0.445968 0.688283 0.184330
H2    H     H_    0.445971 0.038868 0.688284 0.184330
H3    H     H_    0.038860 0.554019 0.688291 0.184335
H4    H     H_    0.554023 0.961138 0.688287 0.184335
H5    H     H_    0.961127 0.554024 0.311715 0.184330
H6    H     H_    0.445974 0.961138 0.311713 0.184331
H7    H     H_    0.038859 0.445973 0.311711 0.184336
H8    H     H_    0.554026 0.038869 0.311716 0.184334
H9    H     H_    0.461080 0.946019 0.188289 0.184331
H10   H     H_    0.945861 0.538722 0.188279 0.184326
H11   H     H_    0.538917 0.053994 0.188286 0.184336
H12   H     H_    0.054115 0.461271 0.188284 0.184335
H13   H     H_    0.461081 0.053994 0.811715 0.184330
H14   H     H_    0.945859 0.461275 0.811722 0.184328
H15   H     H_    0.538919 0.946020 0.811710 0.184338
H16   H     H_    0.054114 0.538725 0.811714 0.184333
O1    O     O_R   0.940210 0.534560 0.999910 -0.564285
O2    O     O_R   0.534560 0.059790 0.999910 -0.564268
O3    O     O_R   0.059790 0.465440 0.999910 -0.564291
O4    O     O_R   0.465440 0.940210 0.999910 -0.564265
O5    O     O_R   0.940210 0.465440 0.000090 -0.564286
O6    O     O_R   0.534560 0.940210 0.000090 -0.564273
O7    O     O_R   0.059790 0.534560 0.000090 -0.564291
O8    O     O_R   0.465440 0.059790 0.000090 -0.564261
O9    O     O_R   0.440210 0.034560 0.499910 -0.564269
O10   O     O_R   0.034560 0.559790 0.499910 -0.564277
O11   O     O_R   0.559790 0.965440 0.499910 -0.564273
O12   O     O_R   0.965440 0.440210 0.499910 -0.564263
O13   O     O_R   0.440210 0.965440 0.500090 -0.564272
O14   O     O_R   0.034560 0.440210 0.500090 -0.564274
O15   O     O_R   0.559790 0.034560 0.500090 -0.564271
O16   O     O_R   0.965440 0.559790 0.500090 -0.564267
O17   O     O_R   0.000060 0.534560 0.945550 -0.554867
O18   O     O_R   0.534560 0.999940 0.945550 -0.554805
O19   O     O_R   0.999940 0.465440 0.945550 -0.554917
O20   O     O_R   0.465440 0.000060 0.945550 -0.554825
O21   O     O_R   0.000060 0.465440 0.054450 -0.554869
O22   O     O_R   0.534560 0.000060 0.054450 -0.554832
O23   O     O_R   0.999940 0.534560 0.054450 -0.554916
O24   O     O_R   0.465440 0.999940 0.054450 -0.554800
O25   O     O_R   0.500060 0.034560 0.445550 -0.554831
O26   O     O_R   0.034560 0.499940 0.445550 -0.554842
O27   O     O_R   0.499940 0.965440 0.445550 -0.554841
O28   O     O_R   0.965440 0.500060 0.445550 -0.554823
O29   O     O_R   0.500060 0.965440 0.554450 -0.554833
O30   O     O_R   0.034560 0.500060 0.554450 -0.554831
O31   O     O_R   0.499940 0.034560 0.554450 -0.554841
O32   O     O_R   0.965440 0.499940 0.554450 -0.554836
O33   O     O_R   0.500080 0.440090 0.968430 -0.561867
O34   O     O_R   0.440090 0.499920 0.968430 -0.561818
O35   O     O_R   0.499920 0.559910 0.968430 -0.561743
O36   O     O_R   0.559910 0.500080 0.968430 -0.561696
O37   O     O_R   0.500080 0.559910 0.031570 -0.561892
O38   O     O_R   0.440090 0.500080 0.031570 -0.561736
O39   O     O_R   0.499920 0.440090 0.031570 -0.561719
O40   O     O_R   0.559910 0.499920 0.031570 -0.561778
O41   O     O_R   0.000080 0.940090 0.468430 -0.561807
O42   O     O_R   0.940090 0.999920 0.468430 -0.561773
O43   O     O_R   0.999920 0.059910 0.468430 -0.561776
O44   O     O_R   0.059910 0.000080 0.468430 -0.561812
O45   O     O_R   0.000080 0.059910 0.531570 -0.561795
O46   O     O_R   0.940090 0.000080 0.531570 -0.561816
O47   O     O_R   0.999920 0.940090 0.531570 -0.561788
O48   O     O_R   0.059910 0.999920 0.531570 -0.561769
Br1   Br    Br    0.948536 0.425526 0.608879 -0.443203
Br2   Br    Br    0.425528 0.051465 0.608880 -0.443202
Br3   Br    Br    0.051469 0.574462 0.608889 -0.443172
Br4   Br    Br    0.574466 0.948533 0.608885 -0.443175
Br5   Br    Br    0.948529 0.574467 0.391118 -0.443187
Br6   Br    Br    0.425531 0.948535 0.391116 -0.443199
Br7   Br    Br    0.051463 0.425530 0.391114 -0.443188
Br8   Br    Br    0.574469 0.051468 0.391119 -0.443178
Br9   Br    Br    0.448454 0.925587 0.108889 -0.443093
Br10  Br    Br    0.925391 0.551262 0.108869 -0.443476
Br11  Br    Br    0.551533 0.074427 0.108884 -0.443113
Br12  Br    Br    0.074585 0.448715 0.108876 -0.443381
Br13  Br    Br    0.448466 0.074427 0.891117 -0.443131
Br14  Br    Br    0.925389 0.448738 0.891133 -0.443472
Br15  Br    Br    0.551546 0.925588 0.891110 -0.443073
Br16  Br    Br    0.074584 0.551284 0.891122 -0.443386
C161  C     C_1   0.793923 0.510254 0.069002 0.380563
N1    N     N_1   0.811723 0.514407 0.096976 -0.180529
C162  C     C_1   0.512495 0.206081 0.068698 0.380267
N2    N     N_1   0.517554 0.188282 0.096549 -0.179511
C163  C     C_1   0.206081 0.488070 0.068781 0.380387
N3    N     N_1   0.188280 0.483241 0.096665 -0.179632
C164  C     C_1   0.486553 0.793916 0.068551 0.380137
N4    N     N_1   0.481109 0.811713 0.096343 -0.179056
C165  C     C_1   0.793922 0.489747 0.930998 0.380575
N5    N     N_1   0.811723 0.485594 0.903024 -0.180515
C166  C     C_1   0.513446 0.793916 0.931449 0.380160
N6    N     N_1   0.518890 0.811713 0.903657 -0.179019
C167  C     C_1   0.206080 0.511929 0.931219 0.380375
N7    N     N_1   0.188280 0.516759 0.903335 -0.179645
C168  C     C_1   0.487503 0.206081 0.931302 0.380242
N8    N     N_1   0.482444 0.188282 0.903450 -0.179548
C169  C     C_1   0.293919 0.012356 0.568719 0.380294
N9    N     N_1   0.311719 0.017358 0.596579 -0.179552
C170  C     C_1   0.012681 0.706082 0.568670 0.380264
N10   N     N_1   0.017815 0.688285 0.596511 -0.179371
C171  C     C_1   0.706082 0.987452 0.568690 0.380270
N11   N     N_1   0.688283 0.982373 0.596539 -0.179452
C172  C     C_1   0.987837 0.293920 0.568747 0.380312
N12   N     N_1   0.982913 0.311720 0.596618 -0.179664
C173  C     C_1   0.293919 0.987644 0.431281 0.380291
N13   N     N_1   0.311719 0.982641 0.403421 -0.179553
C174  C     C_1   0.012163 0.293919 0.431253 0.380322
N14   N     N_1   0.017087 0.311719 0.403382 -0.179642
C175  C     C_1   0.706082 0.012547 0.431310 0.380273
N15   N     N_1   0.688283 0.017627 0.403461 -0.179452
C176  C     C_1   0.987319 0.706082 0.431330 0.380253
N16   N     N_1   0.982185 0.688284 0.403489 -0.179392
Br17  Br    Br    0.698100 0.511962 0.080514 -0.412830
Br18  Br    Br    0.514594 0.301902 0.080156 -0.412791
Br19  Br    Br    0.301902 0.486065 0.080252 -0.412838
Br20  Br    Br    0.484289 0.698097 0.079982 -0.413195
Br21  Br    Br    0.698100 0.488040 0.919486 -0.412667
Br22  Br    Br    0.515710 0.698096 0.920018 -0.412886
Br23  Br    Br    0.301902 0.513935 0.919748 -0.413001
Br24  Br    Br    0.485404 0.301902 0.919845 -0.413101
Br25  Br    Br    0.198098 0.014432 0.580180 -0.412922
Br26  Br    Br    0.014810 0.801903 0.580123 -0.412965
Br27  Br    Br    0.801903 0.985344 0.580146 -0.413014
Br28  Br    Br    0.985795 0.198099 0.580213 -0.412970
Br29  Br    Br    0.198098 0.985568 0.419820 -0.413000
Br30  Br    Br    0.014205 0.198098 0.419787 -0.412910
Br31  Br    Br    0.801903 0.014655 0.419854 -0.412936
Br32  Br    Br    0.985189 0.801902 0.419877 -0.413025

loop_
_geom_bond_atom_site_label_1
_geom_bond_atom_site_label_2
_ccdc_geom_bond_type
Cu10  O40   S    
C78   C115  S    
C20   C174  S    
C7    C55   S    
C66   O34   A    
C78   O26   A    
Cu3   O21   S    
C89   C125  A    
C4    O6    A    
C109  Br13  S    
C150  Br30  S    
C14   C164  S    
C59   C66   S    
C98   C114  A    
C170  N10   T    
C86   H6    S    
C148  C160  A    
C7    O15   A    
C104  C116  A    
C82   H2    S    
C15   C163  S    
C39   C159  S    
C138  C154  A    
Cu11  O42   S    
C106  C118  A    
C82   C98   A    
Cu1   O17   S    
C6    C54   S    
C18   C152  A    
C41   C49   T    
Cu1   Cu3   S    
C15   C139  A    
Cu12  O48   S    
C77   O25   A    
C84   C100  A    
C91   C107  A    
C151  Br31  S    
C25   C41   S    
C112  C120  A    
Cu2   O22   S    
C21   C29   A    
C28   C44   S    
C144  Br24  S    
C72   O48   A    
C29   C45   S    
C89   H9    S    
C1    O5    A    
Cu6   O10   S    
C145  C157  A    
C15   C27   A    
C36   C156  S    
C11   C27   A    
C90   C126  A    
C137  C153  A    
Cu8   O32   S    
C67   O35   A    
C140  C156  A    
C87   C103  A    
C22   C148  A    
Cu10  O38   S    
C92   H12   S    
C101  C115  A    
C78   O28   A    
Cu2   O2    S    
C22   C172  S    
C76   O22   A    
C91   C125  A    
C16   C138  A    
C2    O2    A    
C68   O40   A    
C97   Br1   S    
C108  Br12  S    
C23   C171  S    
Cu4   O24   S    
C85   C123  A    
C144  C154  A    
C126  C134  S    
C34   C58   T    
C71   O43   A    
C142  C156  A    
C11   C143  A    
C82   C122  A    
C81   H1    S    
C38   C62   T    
C109  C119  A    
Cu7   O27   S    
C88   C124  A    
C93   C127  A    
C146  Br26  S    
C95   C127  A    
Cu1   O7    S    
C22   C32   A    
C35   C155  S    
C21   C169  S    
C5    O13   A    
C165  N5    T    
C16   C162  S    
C33   C153  S    
C79   O29   A    
C124  C132  S    
C111  C119  A    
C163  N3    T    
C37   C157  S    
C2    C50   S    
C92   C108  A    
C18   C176  S    
C60   C67   S    
C19   C151  A    
C102  Br6   S    
C66   O38   A    
C44   C52   T    
C45   C53   T    
Cu5   Cu7   S    
C173  N13   T    
Cu6   Cu8   S    
C68   O36   A    
C88   C104  A    
C19   C175  S    
Cu11  O43   S    
C100  C114  A    
Cu4   O20   S    
C5    O9    A    
C83   C121  A    
Cu8   O16   S    
C151  C159  A    
C69   O41   A    
C58   C65   S    
C143  C155  A    
Cu9   O34   S    
C139  C155  A    
C10   C144  A    
C105  Br9   S    
C42   C50   T    
Cu5   O25   S    
C14   C140  A    
C86   C124  A    
C8    O12   A    
C57   C68   S    
C86   C102  A    
C26   C42   S    
C20   C32   A    
C73   O17   A    
C72   O44   A    
C30   C46   S    
C94   H14   S    
C168  N8    T    
Cu4   O8    S    
C146  C158  A    
Cu8   O28   S    
C69   O47   A    
Cu6   O14   S    
C87   C123  A    
C141  C153  A    
C149  Br29  S    
C20   C150  A    
C100  Br4   S    
C2    O8    A    
C71   O45   A    
Cu5   O31   S    
C80   C113  S    
C89   C105  A    
C176  N16   T    
Cu7   O11   S    
C83   C99   A    
Cu4   O4    S    
C111  Br15  S    
Cu7   O29   S    
C17   C173  S    
C162  N2    T    
C93   C109  A    
C1    O1    A    
C142  Br22  S    
Cu11  O41   S    
C91   H11   S    
C17   C29   A    
C4    O4    A    
C172  N12   T    
C131  C134  T    
C19   C31   A    
C65   O33   A    
C9    C25   A    
C166  N6    T    
Cu12  O45   S    
C110  Br14  S    
C75   O23   A    
C150  C160  A    
C12   C28   A    
C127  C135  S    
C128  C136  S    
Cu9   O36   S    
C67   O37   A    
C96   C128  A    
C35   C59   T    
C64   C71   S    
C174  N14   T    
Cu2   Cu4   S    
C99   Br3   S    
C73   O19   A    
C73   C120  S    
C31   C47   S    
Cu10  O39   S    
Cu2   O18   S    
C8    C56   S    
C32   C48   S    
C105  C117  A    
C75   C118  S    
C88   H8    S    
C34   C154  S    
C16   C26   A    
C152  C158  A    
C90   C106  A    
C3    C51   S    
C23   C147  A    
C94   C110  A    
C62   C69   S    
C21   C145  A    
C103  C115  A    
C6    O16   A    
Cu5   O9    S    
Cu1   O23   S    
C46   C54   T    
C139  Br19  S    
C140  Br20  S    
C38   C158  S    
C61   C72   S    
C130  C135  T    
C95   H15   S    
C77   O27   A    
Cu12  O47   S    
C5    C53   S    
C75   O21   A    
Cu8   O12   S    
C123  C131  S    
C40   C160  S    
C121  C129  S    
C92   C126  A    
C99   C113  A    
C98   Br2   S    
C94   C128  A    
C76   C117  S    
Cu5   O15   S    
C24   C146  A    
C43   C51   T    
C161  N1    T    
C147  Br27  S    
Cu3   O19   S    
C12   C142  A    
Cu7   O13   S    
C152  Br32  S    
C3    O7    A    
C27   C43   S    
C85   H5    S    
Cu10  O37   S    
C81   C121  A    
C145  Br25  S    
C84   H4    S    
C149  C157  A    
C107  C117  A    
C23   C31   A    
C93   H13   S    
Cu11  Cu12  S    
C83   H3    S    
Cu9   Cu10  S    
C96   H16   S    
C147  C159  A    
C74   O20   A    
C74   C119  S    
C96   C112  A    
C65   O39   A    
C4    C52   S    
C107  Br11  S    
C80   O30   A    
Cu3   O5    S    
C84   C122  A    
C169  N9    T    
C70   O46   A    
C79   O31   A    
Cu9   O33   S    
C90   H10   S    
C132  C133  T    
C9    C165  S    
C103  Br7   S    
C18   C30   A    
C77   C116  S    
C101  Br5   S    
C167  N7    T    
Cu6   O30   S    
C10   C26   A    
C13   C25   A    
C112  Br16  S    
C148  Br28  S    
C10   C168  S    
C24   C170  S    
C108  C118  A    
Cu1   O1    S    
C110  C120  A    
C6    O10   A    
C9    C141  A    
C175  N15   T    
C104  Br8   S    
C12   C166  S    
C13   C137  A    
C70   O42   A    
C3    O3    A    
C129  C136  T    
C63   C70   S    
C137  Br17  S    
C13   C161  S    
Cu2   O6    S    
C171  N11   T    
C11   C167  S    
C106  Br10  S    
Cu6   O26   S    
C143  Br23  S    
C97   C113  A    
C164  N4    T    
C85   C101  A    
C47   C55   T    
C74   O18   A    
C125  C133  S    
C48   C56   T    
Cu11  O44   S    
C33   C57   T    
Cu3   O3    S    
C17   C149  A    
C36   C60   T    
C80   O32   A    
C37   C61   T    
C141  Br21  S    
Cu12  O46   S    
C39   C63   T    
C138  Br18  S    
C40   C64   T    
C8    O14   A    
C95   C111  A    
C76   O24   A    
Cu9   O35   S    
C81   C97   A    
C7    O11   A    
C24   C30   A    
C102  C116  A    
C87   H7    S    
C79   C114  S    
C14   C28   A    
C1    C49   S    
C122  C130  S    
