data_mof_unit_10995.cif
_audit_creation_date              2012-12-10T17:48:51-0500
_audit_creation_method            fapswitch 2.2
_symmetry_space_group_name_H-M    P1
_symmetry_Int_Tables_number       1
_space_group_crystal_system       triclinic
_cell_length_a                    10.72212
_cell_length_b                    14.671252
_cell_length_c                    14.704047
_cell_angle_alpha                 64.877996
_cell_angle_beta                  104.153413
_cell_angle_gamma                 101.893513
_cell_volume                      2016.84651594

loop_
_atom_site_label
_atom_site_type_symbol
_atom_type_description
_atom_site_fract_x
_atom_site_fract_y
_atom_site_fract_z
_atom_type_partial_charge
C1    C     C_R   0.479451 0.119780 0.312081 0.767357
C2    C     C_3   0.876183 0.002084 0.493234 0.029917
C3    C     C_3   0.956679 0.985667 0.601800 -0.494962
C4    C     C_3   0.930208 0.107589 0.413212 0.531740
C5    C     C_R   0.478034 0.187723 0.204489 -0.054668
C6    C     C_R   0.548581 0.812643 0.796788 -0.116459
C7    C     C_R   0.461907 0.217291 0.027391 -0.203300
C8    C     C_R   0.457092 0.150335 0.128138 -0.190506
C9    C     C_R   0.505074 0.292133 0.179332 -0.272951
C10   C     C_R   0.516979 0.360523 0.079596 0.084664
C11   C     C_R   0.490463 0.322006 0.002441 0.163009
C12   C     C_R   0.259937 0.000432 0.499687 0.792380
C13   C     C_R   0.551123 0.466253 0.054308 0.072007
C14   C     C_R   0.539530 0.533552 0.950177 0.084511
C15   C     C_R   0.514957 0.492347 0.875170 -0.231774
C16   C     C_R   0.492732 0.388373 0.901354 -0.236821
C17   C     C_R   0.600800 0.506423 0.129664 -0.225808
C18   C     C_R   0.630270 0.610003 0.103732 -0.202319
C19   C     C_R   0.605649 0.678630 0.001882 0.096110
C20   C     C_R   0.556935 0.639903 0.924548 0.058078
C21   C     C_R   0.630160 0.784987 0.975693 0.263585
C22   C     C_R   0.602060 0.850797 0.872249 -0.238264
C23   C     C_R   0.523962 0.880233 0.688123 0.809486
C24   C     C_R   0.523942 0.708410 0.823734 -0.275922
C25   C     C_R   0.729672 0.282029 0.667713 -0.340007
C26   C     C_R   0.688595 0.200834 0.637120 0.024247
C27   C     C_R   0.522291 0.290428 0.510108 0.387657
C28   C     C_R   0.573743 0.380191 0.528277 -0.031927
C29   C     C_R   0.670440 0.371467 0.614589 0.117105
C30   C     C_R   0.524109 0.475658 0.468133 0.065478
C31   C     C_R   0.546364 0.551773 0.507872 0.054943
C32   C     C_R   0.638186 0.537495 0.598761 -0.242713
C33   C     C_R   0.703149 0.450863 0.648307 -0.182850
C34   C     C_R   0.739176 0.000555 0.497642 0.773347
C35   C     C_R   0.457776 0.498058 0.367499 -0.232340
C36   C     C_R   0.390866 0.582953 0.313175 -0.012027
C37   C     C_R   0.392480 0.650255 0.359627 0.111772
C38   C     C_R   0.475988 0.638611 0.454635 -0.047355
C39   C     C_R   0.314008 0.729913 0.312635 -0.321139
C40   C     C_R   0.327274 0.802014 0.353380 0.074176
C41   C     C_R   0.485574 0.715474 0.491344 0.019554
C42   C     C_3   0.038752 0.907505 0.477593 -0.415790
C43   C     C_3   0.893801 0.910258 0.470442 0.079572
C44   C     C_3   0.101662 0.993117 0.601208 -0.406600
C45   C     C_3   0.070923 0.097138 0.409146 -0.450207
C46   C     C_3   0.120944 0.000220 0.497433 0.064883
Cu1   Cu    Cu3+1 0.465900 0.918260 0.475680 0.929924
Cu2   Cu    Cu3+1 0.534100 0.081740 0.524320 0.915332
H1    H     H_    0.069312 0.835803 0.540823 0.164144
H2    H     H_    0.153644 0.060395 0.616035 0.174900
H3    H     H_    0.941319 0.041721 0.629292 0.196975
H4    H     H_    0.475257 0.359898 0.841757 0.149767
H5    H     H_    0.475715 0.681900 0.764568 0.160932
H6    H     H_    0.620153 0.932015 0.849723 0.165646
H7    H     H_    0.671409 0.635236 0.165174 0.152133
H8    H     H_    0.443549 0.187240 0.968951 0.130442
H9    H     H_    0.436897 0.069699 0.146153 0.153616
H10   H     H_    0.513504 0.319036 0.238530 0.149644
H11   H     H_    0.056118 0.906827 0.406236 0.180448
H12   H     H_    0.517605 0.538529 0.795635 0.143693
H13   H     H_    0.624115 0.459197 0.209714 0.134500
H14   H     H_    0.775632 0.444166 0.716003 0.139839
H15   H     H_    0.552877 0.715649 0.558879 0.115650
H16   H     H_    0.272549 0.866411 0.313530 0.117088
H17   H     H_    0.807198 0.274843 0.732534 0.146116
H18   H     H_    0.736862 0.133011 0.676901 0.138463
H19   H     H_    0.664535 0.593213 0.631911 0.125876
H20   H     H_    0.460955 0.450445 0.328733 0.162612
H21   H     H_    0.244171 0.738324 0.243446 0.152278
H22   H     H_    0.858806 0.839466 0.532056 0.143878
H23   H     H_    0.142599 0.925320 0.664264 0.164184
H24   H     H_    0.924923 0.909739 0.658085 0.162185
H25   H     H_    0.137460 0.165209 0.410116 0.159845
H26   H     H_    0.074106 0.092704 0.336021 0.160744
N1    N     N_R   0.585360 0.204570 0.560800 -0.197920
N2    N     N_R   0.414550 0.795430 0.439160 -0.170830
O1    O     O_R   0.455060 0.022100 0.338110 -0.578891
O2    O     O_R   0.512640 0.160150 0.379180 -0.614135
O3    O     O_R   0.288900 0.930980 0.479450 -0.590824
O4    O     O_R   0.346480 0.069030 0.520520 -0.583887
O5    O     O_R   0.487360 0.839850 0.620820 -0.591002
O6    O     O_R   0.544940 0.977900 0.661890 -0.587550
O7    O     O_R   0.653520 0.930970 0.479480 -0.562442
O8    O     O_R   0.711100 0.069020 0.520550 -0.570538
N3    N     N_2   0.935138 0.187965 0.449501 -0.426277
H27   H     H_    0.014747 0.198419 0.501455 0.235584
C47   C     C_3   0.858163 0.272130 0.395553 -0.621858
H28   H     H_    0.849583 0.304218 0.449599 0.213306
H29   H     H_    0.758806 0.247443 0.363580 0.253471
H30   H     H_    0.906358 0.332627 0.334060 0.213717
N4    N     N_2   0.682368 0.823553 0.053808 -0.436726
H31   H     H_    0.633146 0.794815 0.114035 0.236708
C48   C     C_3   0.734507 0.929047 0.026896 -0.719637
H32   H     H_    0.785076 0.940966 0.097202 0.230305
H33   H     H_    0.655084 0.978167 0.989726 0.220420
H34   H     H_    0.806038 0.950389 0.975781 0.234743
C49   C     C_R   0.326402 0.600513 0.206123 0.118829
C50   C     C_R   0.245359 0.521553 0.183354 -0.151144
C51   C     C_R   0.193114 0.535262 0.082106 -0.130093
C52   C     C_R   0.221302 0.627631 0.002667 -0.096814
C53   C     C_R   0.301322 0.706606 0.024363 -0.124405
C54   C     C_R   0.354093 0.693130 0.125473 -0.167183
H35   H     H_    0.223371 0.449155 0.243944 0.129516
H36   H     H_    0.131298 0.474016 0.065236 0.125100
H37   H     H_    0.181384 0.637949 0.924297 0.118706
H38   H     H_    0.323708 0.777950 0.962739 0.130078
H39   H     H_    0.417628 0.754489 0.140835 0.120877
N5    N     N_2   0.395838 0.286387 0.451275 -0.449562
H40   H     H_    0.373294 0.241004 0.411212 0.289727
C55   C     C_3   0.291591 0.289746 0.496291 -0.735520
H41   H     H_    0.316757 0.347124 0.530346 0.239581
H42   H     H_    0.269362 0.214957 0.557076 0.232002
H43   H     H_    0.204709 0.311328 0.436252 0.220563
N6    N     N_2   0.819861 0.912709 0.371871 -0.401770
H44   H     H_    0.857398 0.966030 0.309253 0.273983
C56   C     C_3   0.781028 0.815388 0.364029 -0.680565
H45   H     H_    0.714525 0.825222 0.290426 0.227139
H46   H     H_    0.729097 0.762261 0.426740 0.236356
H47   H     H_    0.867215 0.782449 0.367172 0.215520
N7    N     N_2   0.848869 0.130587 0.311597 -0.437643
H48   H     H_    0.749943 0.115303 0.307649 0.245519
C57   C     C_3   0.889705 0.214899 0.222808 -0.716655
H49   H     H_    0.818261 0.270896 0.188594 0.234767
H50   H     H_    0.894097 0.186199 0.165095 0.227529
H51   H     H_    0.986166 0.254261 0.242094 0.230101

loop_
_geom_bond_atom_site_label_1
_geom_bond_atom_site_label_2
_ccdc_geom_bond_type
C47   H28   S    
C48   H32   S    
C23   O6    A    
C1    O1    A    
C15   H12   S    
C19   C20   A    
Cu1   O3    S    
C49   C50   A    
C7    C8    A    
C22   H6    S    
N3    H27   S    
N5    H40   S    
C7    C11   A    
C52   H37   S    
C53   C54   A    
C30   C35   A    
C1    C5    S    
C27   N5    S    
C28   C29   A    
C19   C21   A    
Cu1   N2    S    
C18   C19   A    
C43   N6    S    
C30   C31   A    
C15   C16   A    
C6    C22   A    
C12   O3    A    
C29   C33   A    
C56   H45   S    
C44   H23   S    
C45   H25   S    
C9    H10   S    
C42   C46   S    
Cu2   O2    S    
C55   H41   S    
C17   H13   S    
C20   C24   A    
N7    C57   S    
C33   H14   S    
C36   C49   S    
Cu1   O7    S    
C9    C10   A    
C49   C54   A    
C2    C34   S    
C51   H36   S    
C48   H33   S    
C21   C22   A    
C1    O2    A    
Cu2   N1    S    
C34   O8    A    
C7    H8    S    
C27   N1    A    
C44   C46   S    
C26   N1    A    
C4    C45   S    
N3    C47   S    
C25   C29   A    
C3    C44   S    
C26   H18   S    
C56   H47   S    
C14   C20   A    
C25   H17   S    
C38   C41   A    
C12   C46   S    
C39   C40   A    
C3    H3    S    
C4    N3    S    
C24   H5    S    
C45   C46   S    
C40   N2    A    
C45   H26   S    
C35   C36   A    
C2    C4    S    
C5    C9    A    
C37   C38   A    
C8    H9    S    
N4    C48   S    
C11   C16   A    
Cu1   Cu2   S    
C2    C43   S    
C6    C24   A    
C17   C18   A    
C39   H21   S    
C54   H39   S    
C55   H43   S    
C18   H7    S    
C56   H46   S    
C32   H19   S    
C43   H22   S    
C47   H29   S    
C42   C43   S    
C41   H15   S    
C57   H50   S    
N4    H31   S    
N7    H48   S    
C21   N4    S    
C44   H2    S    
C53   H38   S    
C36   C37   A    
C23   O5    A    
C31   C32   A    
C16   H4    S    
C10   C13   A    
C42   H11   S    
C5    C8    A    
N6    C56   S    
N5    C55   S    
N6    H44   S    
C48   H34   S    
C40   H16   S    
C31   C38   A    
C13   C17   A    
C32   C33   A    
Cu2   O4    S    
C57   H51   S    
C28   C30   A    
C3    H24   S    
C25   C26   A    
C37   C39   A    
C51   C52   A    
C41   N2    A    
C35   H20   S    
C6    C23   S    
C12   O4    A    
C52   C53   A    
Cu2   O6    S    
C2    C3    S    
Cu1   O5    S    
C55   H42   S    
C10   C11   A    
C42   H1    S    
Cu2   O8    S    
C50   C51   A    
C34   O7    A    
C47   H30   S    
C27   C28   A    
Cu1   O1    S    
C14   C15   A    
C4    N7    S    
C57   H49   S    
C13   C14   A    
C50   H35   S    
