data_mof_unit_40871.cif
_audit_creation_date              2012-12-10T17:02:32-0500
_audit_creation_method            fapswitch 2.2
_symmetry_space_group_name_H-M    P1
_symmetry_Int_Tables_number       1
_space_group_crystal_system       triclinic
_cell_length_a                    10.84832
_cell_length_b                    11.029998
_cell_length_c                    9.883958
_cell_angle_alpha                 110.657112
_cell_angle_beta                  100.215041
_cell_angle_gamma                 91.4555
_cell_volume                      1084.12617362

loop_
_atom_site_label
_atom_site_type_symbol
_atom_type_description
_atom_site_fract_x
_atom_site_fract_y
_atom_site_fract_z
_atom_type_partial_charge
C1    C     C_R   0.491451 0.254304 0.440919 0.865990
C2    C     C_R   0.508552 0.745696 0.559081 0.865966
C3    C     C_2   0.489199 0.115374 0.407847 -0.327263
C4    C     C_2   0.510812 0.884626 0.592154 -0.327246
C5    C     C_2   0.500421 0.069404 0.516569 -0.114994
C6    C     C_2   0.499623 0.930599 0.483436 -0.114960
C7    C     C_2   0.510799 0.511411 0.082015 -0.010136
C8    C     C_2   0.489202 0.488588 0.917985 -0.010156
C9    C     C_R   0.262426 0.510718 0.499815 0.813901
C10   C     C_R   0.737580 0.489309 0.500193 0.813896
C11   C     C_R   0.165211 0.665997 0.758075 -0.182940
C12   C     C_R   0.834835 0.334049 0.241957 -0.182940
C13   C     C_R   0.132626 0.701129 0.896191 -0.010622
C14   C     C_R   0.867437 0.298910 0.103850 -0.010648
C15   C     C_R   0.019315 0.646776 0.908693 -0.029338
C16   C     C_R   0.980717 0.353330 0.091344 -0.029339
C17   C     C_R   0.936450 0.565804 0.781459 -0.164471
C18   C     C_R   0.063558 0.434338 0.218577 -0.164425
C19   C     C_R   0.963101 0.539505 0.638639 0.080452
C20   C     C_R   0.036910 0.460602 0.361390 0.080434
C21   C     C_R   0.085713 0.576332 0.630300 0.067566
C22   C     C_R   0.914308 0.423750 0.369728 0.067555
C23   C     C_R   0.873419 0.476259 0.504834 -0.186318
C24   C     C_R   0.126596 0.523820 0.495190 -0.186348
Cu1   Cu    Cu3+1 0.521920 0.521810 0.644910 0.960773
Cu2   Cu    Cu3+1 0.478080 0.478190 0.355090 0.960784
H1    H     H_    0.252689 0.710705 0.750884 0.153796
H2    H     H_    0.747378 0.289305 0.249151 0.153784
H3    H     H_    0.855979 0.518020 0.798699 0.174652
H4    H     H_    0.144018 0.482162 0.201358 0.174635
H5    H     H_    0.489826 0.865667 0.369143 0.196639
H6    H     H_    0.510241 0.134337 0.630866 0.196585
H7    H     H_    0.520677 0.949715 0.706273 0.173799
H8    H     H_    0.479310 0.050284 0.293725 0.173819
H9    H     H_    0.624386 0.624788 0.933434 0.197080
H10   H     H_    0.375611 0.375215 0.066566 0.197080
N1    N     N_2   0.445130 0.445420 0.137360 -0.317342
N2    N     N_2   0.554870 0.554580 0.862640 -0.317344
O1    O     O_R   0.511700 0.332340 0.577400 -0.574045
O2    O     O_R   0.488300 0.667660 0.422600 -0.574045
O3    O     O_R   0.474680 0.295500 0.332650 -0.578775
O4    O     O_R   0.525320 0.704500 0.667350 -0.578781
O5    O     O_R   0.338170 0.518410 0.622370 -0.571073
O6    O     O_R   0.661830 0.481590 0.377630 -0.571072
O7    O     O_R   0.301150 0.481570 0.377630 -0.590914
O8    O     O_R   0.698850 0.518430 0.622370 -0.590935
C25   C     C_1   0.014714 0.326105 0.949306 0.216288
N3    N     N_1   0.041911 0.304039 0.835538 -0.253950
C26   C     C_1   0.985318 0.674014 0.050735 0.216283
N4    N     N_1   0.958122 0.696089 0.164505 -0.253946
C27   C     C_1   0.219049 0.788823 0.024110 0.242959
N5    N     N_1   0.288244 0.858953 0.126749 -0.306382
C28   C     C_1   0.781096 0.211084 0.975958 0.242966
N6    N     N_1   0.711977 0.140834 0.873345 -0.306300
C29   C     C_1   0.391612 0.389225 0.820477 0.351652
N7    N     N_1   0.313099 0.309326 0.743444 -0.276971
C30   C     C_1   0.608391 0.610771 0.179522 0.351668
N8    N     N_1   0.686908 0.690667 0.256553 -0.276987

loop_
_geom_bond_atom_site_label_1
_geom_bond_atom_site_label_2
_ccdc_geom_bond_type
Cu1   O4    S    
C10   O8    A    
C19   C23   A    
C29   N7    T    
Cu2   N1    S    
C9    O7    A    
C18   H4    S    
C2    O2    A    
C10   C23   S    
C17   H3    S    
C11   C21   A    
C2    C4    S    
C25   N3    T    
C3    H8    S    
C11   H1    S    
C3    C5    D    
C5    H6    S    
Cu1   O5    S    
C15   C26   S    
C6    H5    S    
C7    N1    D    
Cu2   O6    S    
C7    C8    S    
C9    C24   S    
C16   C18   A    
C28   N6    T    
Cu1   O1    S    
C11   C13   A    
Cu2   O2    S    
C30   N8    T    
C8    N2    D    
C2    O4    A    
C8    C29   S    
C1    O3    A    
H10   N1    S    
C19   C21   A    
C20   C22   A    
C18   C20   A    
C13   C15   A    
C5    C6    S    
Cu1   N2    S    
C14   C16   A    
C9    O5    A    
C1    O1    A    
C10   O6    A    
C27   N5    T    
C12   C22   A    
H9    N2    S    
C16   C25   S    
C4    C6    D    
C26   N4    T    
C21   C24   A    
C15   C17   A    
C4    H7    S    
C17   C19   A    
Cu2   O7    S    
C12   H2    S    
Cu1   Cu2   S    
C13   C27   S    
C14   C28   S    
Cu1   O8    S    
C7    C30   S    
C22   C23   A    
C20   C24   A    
Cu2   O3    S    
C12   C14   A    
C1    C3    S    
