data_mof_unit_26089.cif
_audit_creation_date              2012-12-11T14:29:47-0500
_audit_creation_method            fapswitch 2.2
_symmetry_space_group_name_H-M    P1
_symmetry_Int_Tables_number       1
_space_group_crystal_system       triclinic
_cell_length_a                    6.933754
_cell_length_b                    14.772468
_cell_length_c                    16.213322
_cell_angle_alpha                 90.332597
_cell_angle_beta                  90.452718
_cell_angle_gamma                 90.333351
_cell_volume                      1660.6004578

loop_
_atom_site_label
_atom_site_type_symbol
_atom_type_description
_atom_site_fract_x
_atom_site_fract_y
_atom_site_fract_z
_atom_type_partial_charge
O1    O     O_R   0.494400 0.416610 0.413880 -0.547402
O2    O     O_R   0.823920 0.406790 0.585520 -0.526719
O3    O     O_R   0.994250 0.583390 0.586120 -0.560548
C1    C     C_R   0.654961 0.383620 0.612353 0.822471
O4    O     O_R   0.824110 0.405730 0.414490 -0.508148
O5    O     O_R   0.994440 0.582310 0.413870 -0.555949
C2    C     C_R   0.654727 0.384999 0.385270 0.730977
O6    O     O_R   0.494210 0.417690 0.586130 -0.523900
O7    O     O_3   0.660810 0.557940 0.500000 -0.393520
V1    V     V_3+5 0.935650 0.489250 0.500000 1.468195
O8    O     O_R   0.324160 0.593210 0.414480 -0.545238
C3    C     C_R   0.155528 0.617205 0.387914 0.629330
O9    O     O_R   0.323970 0.594270 0.585510 -0.514236
C4    C     C_R   0.157437 0.613050 0.616947 0.774164
V2    V     V_3+5 0.435660 0.510750 0.500000 1.457340
O10   O     O_3   0.160630 0.442060 0.500000 -0.357040
C5    C     C_R   0.334798 0.585713 0.785607 0.442164
C6    C     C_R   0.365402 0.560920 0.867958 -0.208330
C7    C     C_R   0.308166 0.617221 0.931642 -0.212167
C8    C     C_R   0.226943 0.700542 0.913883 -0.135562
C9    C     C_R   0.187950 0.726393 0.831515 0.023255
C10   C     C_R   0.224732 0.664164 0.765980 -0.041091
C11   C     C_R   0.112371 0.812919 0.814614 -0.134779
C12   C     C_R   0.044814 0.832865 0.734012 -0.002038
C13   C     C_R   0.062567 0.767649 0.669509 0.059991
C14   C     C_R   0.152609 0.682872 0.684662 -0.183932
C15   C     C_R   0.957154 0.916989 0.716514 -0.224763
C16   C     C_R   0.887280 0.937811 0.637821 0.522177
C17   C     C_R   0.904314 0.872609 0.574705 -0.211726
C18   C     C_R   0.993113 0.790019 0.589980 -0.205754
H1    H     H_    0.335508 0.598240 0.995041 0.135516
H2    H     H_    0.006486 0.744192 0.538148 0.131517
C19   C     C_2   0.997877 0.699062 0.273784 -0.226028
C20   C     C_2   0.148330 0.692762 0.327105 0.312240
H3    H     H_    0.883268 0.648675 0.275515 0.089078
C21   C     C_2   0.975896 0.772477 0.211692 -0.106133
C22   C     C_2   0.127049 0.809874 0.172629 -0.268853
H4    H     H_    0.830366 0.791688 0.194231 0.118990
H5    H     H_    0.271520 0.785856 0.185202 0.161903
C23   C     C_2   0.782334 0.217493 0.787110 0.408557
C24   C     C_2   0.617899 0.187584 0.822768 -0.426508
H6    H     H_    0.483413 0.222037 0.809500 0.092794
C25   C     C_2   0.778244 0.301596 0.734597 0.371249
C26   C     C_2   0.644476 0.310913 0.674390 -0.389909
C27   C     C_2   0.767572 0.221762 0.204245 -0.334651
C28   C     C_2   0.615667 0.166733 0.188142 0.274184
C29   C     C_2   0.790832 0.277438 0.280985 0.501815
C30   C     C_2   0.639838 0.322313 0.313889 -0.357956
O11   O     O_R   0.770210 0.079270 0.910680 -0.504243
O12   O     O_R   0.440150 0.091160 0.082270 -0.528529
O13   O     O_R   0.269970 0.914530 0.082860 -0.547121
C31   C     C_R   0.609162 0.110653 0.112157 0.654528
O14   O     O_R   0.440480 0.090100 0.911240 -0.545911
O15   O     O_R   0.270310 0.913460 0.910610 -0.536271
C32   C     C_R   0.609667 0.113214 0.884012 0.810024
O16   O     O_R   0.769870 0.080340 0.082930 -0.558014
O17   O     O_3   0.603660 0.938980 0.996790 -0.379363
V3    V     V_3+5 0.328750 0.007610 0.996740 1.456221
O18   O     O_R   0.940600 0.902510 0.911180 -0.543427
C33   C     C_R   0.107539 0.882537 0.881391 0.696092
O19   O     O_R   0.940270 0.903570 0.082200 -0.543543
C34   C     C_R   0.109714 0.880925 0.109447 0.705225
V4    V     V_3+5 0.828770 0.986010 0.996670 1.447328
O20   O     O_3   0.103730 0.054750 0.996710 -0.356889
H7    H     H_    0.848197 0.884460 0.513321 0.122662
O21   O     O_3   0.275559 0.765782 0.334536 -0.551182
C35   C     C_3   0.468899 0.738494 0.324439 -0.239619
H8    H     H_    0.484851 0.679847 0.281454 0.107639
H9    H     H_    0.535889 0.723869 0.385292 0.168524
H10   H     H_    0.550799 0.795874 0.297788 0.139848
O22   O     O_3   0.956294 0.175896 0.807527 -0.540313
C36   C     C_3   0.084545 0.174762 0.740332 -0.191020
H11   H     H_    0.164965 0.239738 0.736624 0.165465
H12   H     H_    0.010594 0.159623 0.680675 0.150242
H13   H     H_    0.191771 0.120484 0.750749 0.145395
O23   O     O_3   0.922014 0.367200 0.742490 -0.544899
C37   C     C_3   0.940815 0.394357 0.825730 -0.241001
H14   H     H_    0.798329 0.407307 0.854765 0.115021
H15   H     H_    0.022800 0.458894 0.828098 0.158794
H16   H     H_    0.023495 0.343686 0.861694 0.167784
H17   H     H_    0.526497 0.262525 0.668755 0.081124
H18   H     H_    0.888107 0.222306 0.161812 0.132252
O24   O     O_3   0.466565 0.159319 0.244192 -0.557285
C38   C     C_3   0.481245 0.075037 0.284276 -0.275184
H19   H     H_    0.626381 0.065846 0.312943 0.124511
H20   H     H_    0.447439 0.018099 0.241249 0.145938
H21   H     H_    0.374273 0.072682 0.334698 0.150482
O25   O     O_3   0.975337 0.293098 0.311593 -0.541473
C39   C     C_3   0.051074 0.210953 0.341017 -0.185637
H22   H     H_    0.075615 0.162154 0.289751 0.159672
H23   H     H_    0.955764 0.180248 0.388403 0.092356
H24   H     H_    0.192583 0.225167 0.370923 0.171101
O26   O     O_3   0.437718 0.540037 0.726515 -0.556905
C40   C     C_3   0.622888 0.580618 0.723325 -0.155785
H25   H     H_    0.614889 0.654429 0.709923 0.120829
H26   H     H_    0.704503 0.549488 0.672729 0.179235
H27   H     H_    0.706070 0.569061 0.781253 0.111669
H28   H     H_    0.497943 0.315682 0.285728 0.163180
H29   H     H_    0.443914 0.499715 0.882184 0.130162
H30   H     H_    0.191938 0.743826 0.965647 0.106262
H31   H     H_    0.940305 0.967964 0.764050 0.150024
O27   O     O_3   0.791523 0.019818 0.628404 -0.556052
C41   C     C_3   0.814009 0.056748 0.548900 -0.313510
H32   H     H_    0.711955 0.024275 0.504463 0.149208
H33   H     H_    0.965470 0.052030 0.526930 0.131588
H34   H     H_    0.777216 0.129701 0.551712 0.157759

loop_
_geom_bond_atom_site_label_1
_geom_bond_atom_site_label_2
_ccdc_geom_bond_type
O26   C40   S    
O11   V4    S    
C23   O22   S    
C24   H6    S    
C27   H18   S    
C12   C15   A    
C1    O6    A    
C7    H1    S    
C20   O21   S    
C22   C34   S    
O15   C33   A    
C37   H14   S    
C21   C22   D    
C38   H20   S    
O5    C3    A    
V2    O10   S    
C28   C31   S    
C25   O23   S    
C19   C21   S    
C5    C6    A    
C6    C7    A    
C27   C29   S    
O19   V4    S    
C24   C32   S    
O8    V2    S    
C38   H19   S    
C23   C25   S    
C29   C30   D    
O12   C31   A    
C11   C12   A    
C38   H21   S    
O1    V2    S    
C39   H23   S    
O7    V1    S    
O19   C34   A    
O14   C32   A    
O21   C35   S    
O18   C33   A    
O9    C4    A    
O27   C41   S    
O13   C34   A    
C36   H13   S    
O17   V4    S    
C37   H15   S    
V3    O20   S    
C11   C33   S    
C35   H8    S    
O12   V3    S    
C12   C13   A    
C36   H12   S    
C26   H17   S    
O4    C2    A    
C1    C26   S    
C40   H27   S    
C13   C14   A    
O11   C32   A    
C15   H31   S    
C4    C14   S    
C28   O24   S    
C35   H9    S    
O2    C1    A    
C25   C26   D    
C17   C18   A    
O24   C38   S    
C8    H30   S    
O14   V3    S    
C8    C9    A    
C19   C20   D    
O16   V4    S    
C41   H33   S    
O13   V3    S    
O23   C37   S    
C39   H24   S    
C40   H26   S    
O3    C4    A    
C17   H7    S    
C23   C24   D    
O6    V2    S    
O9    V2    S    
C27   C28   D    
C5    O26   S    
C6    H29   S    
C3    C20   S    
O2    V1    S    
C41   H32   S    
O15   V3    S    
C37   H16   S    
C13   C18   A    
C16   C17   A    
O1    C2    A    
C36   H11   S    
O5    V1    S    
O8    C3    A    
C30   H28   S    
O18   V4    S    
C5    C10   A    
C35   H10   S    
C2    C30   S    
C7    C8    A    
C9    C11   A    
O7    V2    S    
O22   C36   S    
C22   H5    S    
O3    V1    S    
V1    O10   S    
C29   O25   S    
C18   H2    S    
O17   V3    S    
C21   H4    S    
C19   H3    S    
C41   H34   S    
C40   H25   S    
V4    O20   S    
C16   O27   S    
O4    V1    S    
O25   C39   S    
C10   C14   A    
C15   C16   A    
C39   H22   S    
C9    C10   A    
C31   O16   A    
