data_mof_unit_67774.cif
_audit_creation_date              2012-12-10T16:50:58-0500
_audit_creation_method            fapswitch 2.2
_symmetry_space_group_name_H-M    P1
_symmetry_Int_Tables_number       1
_space_group_crystal_system       triclinic
_cell_length_a                    8.235921
_cell_length_b                    8.794093
_cell_length_c                    10.780876
_cell_angle_alpha                 99.677856
_cell_angle_beta                  86.687469
_cell_angle_gamma                 90.550718
_cell_volume                      768.432974186

loop_
_atom_site_label
_atom_site_type_symbol
_atom_type_description
_atom_site_fract_x
_atom_site_fract_y
_atom_site_fract_z
_atom_type_partial_charge
Br1   Br    Br    0.212715 0.222427 0.767419 -0.515615
Br2   Br    Br    0.787284 0.777573 0.232581 -0.515615
Br3   Br    Br    0.204245 0.776950 0.255443 -0.486154
Br4   Br    Br    0.795755 0.223050 0.744557 -0.486154
C1    C     C_R   0.541457 0.792441 0.498889 0.933154
C2    C     C_R   0.931991 0.511278 0.073080 -0.185950
C3    C     C_R   0.066910 0.596769 0.039676 -0.226249
C4    C     C_R   0.933090 0.403231 0.960324 -0.226251
C5    C     C_R   0.203081 0.608872 0.115889 0.298452
C6    C     C_R   0.796919 0.391127 0.884111 0.298453
C7    C     C_R   0.350138 0.534979 0.066825 -0.055233
C8    C     C_R   0.649862 0.465021 0.933175 -0.055233
C9    C     C_R   0.356796 0.462257 0.940701 -0.065604
C10   C     C_R   0.643204 0.537743 0.059298 -0.065604
C11   C     C_R   0.495460 0.546564 0.131139 -0.077737
C12   C     C_R   0.458543 0.207559 0.501111 0.933154
C13   C     C_R   0.504540 0.453436 0.868861 -0.077737
C14   C     C_R   0.989243 0.327800 0.360440 0.268327
C15   C     C_R   0.861753 0.244452 0.295067 -0.131681
C16   C     C_R   0.885422 0.125964 0.191960 -0.193073
C17   C     C_R   0.040407 0.075927 0.151598 -0.019408
C18   C     C_R   0.169416 0.151456 0.208075 -0.175821
C19   C     C_R   0.142446 0.272192 0.308270 -0.149462
C20   C     C_R   0.010756 0.672199 0.639560 0.268328
C21   C     C_R   0.138247 0.755548 0.704934 -0.131682
C22   C     C_R   0.114577 0.874035 0.808040 -0.193071
C23   C     C_2   0.563613 0.954461 0.499027 -0.283095
C24   C     C_R   0.959592 0.924072 0.848403 -0.019409
C25   C     C_R   0.830583 0.848544 0.791925 -0.175821
C26   C     C_R   0.857553 0.727808 0.691730 -0.149462
C27   C     C_2   0.436386 0.045539 0.500973 -0.283096
C28   C     C_R   0.501371 0.484726 0.737192 0.877386
C29   C     C_R   0.498629 0.515274 0.262808 0.877387
C30   C     C_R   0.212506 0.409300 0.887228 0.307151
C31   C     C_R   0.787493 0.590700 0.112772 0.307151
C32   C     C_R   0.068009 0.488721 0.926920 -0.185951
H1    H     H_    0.964809 0.287326 0.972431 0.189992
H2    H     H_    0.292154 0.113774 0.176365 0.152406
H3    H     H_    0.249211 0.307028 0.338581 0.213729
H4    H     H_    0.261130 0.736150 0.684306 0.209243
H5    H     H_    0.218025 0.929257 0.854574 0.169065
H6    H     H_    0.937599 0.023504 0.919907 0.144190
H7    H     H_    0.707845 0.886224 0.823635 0.152406
H8    H     H_    0.750789 0.692972 0.661419 0.213729
H9    H     H_    0.035191 0.712674 0.027569 0.189992
H10   H     H_    0.042979 0.543654 0.847161 0.186485
H11   H     H_    0.957020 0.456346 0.152839 0.186485
H12   H     H_    0.687271 0.998768 0.496113 0.237762
H13   H     H_    0.312729 0.001232 0.503887 0.237762
H14   H     H_    0.738869 0.263850 0.315694 0.209244
H15   H     H_    0.781975 0.070742 0.145426 0.169065
H16   H     H_    0.062400 0.976494 0.080094 0.144190
N1    N     N_2   0.950330 0.457950 0.466250 -0.085230
N2    N     N_2   0.049670 0.542050 0.533750 -0.085230
O1    O     O_R   0.389250 0.738570 0.508280 -0.621631
O2    O     O_R   0.610750 0.261430 0.491720 -0.621631
O3    O     O_R   0.678390 0.711630 0.486650 -0.605283
O4    O     O_R   0.321610 0.288370 0.513350 -0.605283
O5    O     O_R   0.355430 0.513480 0.694040 -0.647714
O6    O     O_R   0.644570 0.486520 0.305960 -0.647714
O7    O     O_R   0.644570 0.486540 0.672410 -0.627699
O8    O     O_R   0.355430 0.513460 0.327590 -0.627699
Zn1   Zn    Zn3+2 0.306940 0.517990 0.514440 0.965298
Zn2   Zn    Zn3+2 0.693060 0.482010 0.485560 0.965298

loop_
_geom_bond_atom_site_label_1
_geom_bond_atom_site_label_2
_ccdc_geom_bond_type
Br2   C31   S    
C23   H12   S    
O7    Zn2   S    
O2    Zn2   S    
C32   H10   S    
C2    C3    A    
Br3   C5    S    
C9    C13   A    
C16   H15   S    
C25   C26   A    
C5    C7    A    
C3    C32   A    
C22   C24   A    
C15   C16   A    
C10   C11   A    
C1    O3    A    
O6    Zn2   S    
C1    C23   S    
C16   C17   A    
C7    C11   A    
C12   O2    A    
C20   N2    S    
C9    C30   A    
C12   O4    A    
N1    N2    D    
C2    C31   A    
C12   C27   S    
C7    C9    A    
C15   H14   S    
C26   H8    S    
O8    Zn1   S    
C6    C8    A    
C27   H13   S    
C19   H3    S    
C3    H9    S    
C24   H6    S    
C24   C25   A    
C8    C10   A    
Br1   C30   S    
C29   O6    A    
C30   C32   A    
C21   H4    S    
C4    C32   A    
N1    Zn2   S    
C20   C26   A    
O5    Zn1   S    
C14   N1    S    
C4    H1    S    
Br4   C6    S    
C14   C19   A    
C18   H2    S    
C2    H11   S    
C8    C13   A    
C10   C31   A    
C20   C21   A    
O3    Zn2   S    
C4    C6    A    
C14   C15   A    
N2    Zn1   S    
O4    Zn1   S    
C3    C5    A    
C13   C28   S    
C18   C19   A    
C2    C4    A    
C28   O5    A    
C21   C22   A    
C17   C18   A    
C23   C27   D    
C1    O1    A    
C17   H16   S    
C25   H7    S    
C28   O7    A    
C22   H5    S    
C11   C29   S    
C29   O8    A    
O1    Zn1   S    
