data_mof_unit_48816.cif
_audit_creation_date              2012-12-10T19:45:40-0500
_audit_creation_method            fapswitch 2.2
_symmetry_space_group_name_H-M    P1
_symmetry_Int_Tables_number       1
_space_group_crystal_system       triclinic
_cell_length_a                    10.930729
_cell_length_b                    14.655364
_cell_length_c                    14.855148
_cell_angle_alpha                 65.004429
_cell_angle_beta                  104.145956
_cell_angle_gamma                 103.699258
_cell_volume                      2067.12728289

loop_
_atom_site_label
_atom_site_type_symbol
_atom_type_description
_atom_site_fract_x
_atom_site_fract_y
_atom_site_fract_z
_atom_type_partial_charge
C1    C     C_R   0.477224 0.119659 0.312727 0.799587
C2    C     C_R   0.523647 0.880328 0.687266 0.799726
C3    C     C_R   0.871192 0.010113 0.486285 -0.158511
C4    C     C_R   0.128359 0.990932 0.512088 -0.158839
C5    C     C_R   0.903035 0.939891 0.456702 -0.055078
C6    C     C_R   0.096439 0.061539 0.541239 -0.054615
C7    C     C_R   0.453463 0.186525 0.206422 -0.065857
C8    C     C_R   0.553772 0.813331 0.792918 -0.066156
C9    C     C_R   0.325223 0.220776 0.041189 0.000637
C10   C     C_R   0.694018 0.778730 0.953605 0.001736
C11   C     C_R   0.362401 0.152770 0.138842 -0.242328
C12   C     C_R   0.648877 0.847332 0.858328 -0.244556
C13   C     C_R   0.512116 0.287672 0.175757 -0.270289
C14   C     C_R   0.499238 0.711259 0.823695 -0.267923
C15   C     C_R   0.479707 0.358704 0.077428 0.076245
C16   C     C_R   0.543558 0.638918 0.917947 0.075973
C17   C     C_R   0.385556 0.323749 0.009144 0.110043
C18   C     C_R   0.640314 0.674102 0.984608 0.110622
C19   C     C_R   0.534996 0.463801 0.046380 0.079062
C20   C     C_R   0.494400 0.532888 0.947186 0.078069
C21   C     C_R   0.407838 0.493494 0.879639 -0.235443
C22   C     C_R   0.628850 0.502328 0.111349 -0.233160
C23   C     C_R   0.262887 0.995468 0.506593 0.800291
C24   C     C_R   0.736924 0.004866 0.492866 0.801463
C25   C     C_R   0.354304 0.391788 0.910209 -0.243490
C26   C     C_R   0.680490 0.604526 0.080846 -0.242677
C27   C     C_R   0.681913 0.271714 0.686491 -0.335873
C28   C     C_R   0.317322 0.727910 0.313911 -0.334419
C29   C     C_R   0.658602 0.194220 0.651236 0.124692
C30   C     C_R   0.341014 0.805595 0.348949 0.126430
C31   C     C_R   0.531001 0.290578 0.502208 0.025033
C32   C     C_R   0.469186 0.709500 0.497761 0.022292
C33   C     C_R   0.550250 0.372383 0.534340 -0.024389
C34   C     C_R   0.449640 0.627552 0.465805 -0.025202
C35   C     C_R   0.627543 0.360512 0.628986 0.161484
C36   C     C_R   0.371935 0.639227 0.371349 0.161786
C37   C     C_R   0.490586 0.462099 0.479317 0.055412
C38   C     C_R   0.509224 0.537802 0.520877 0.054637
C39   C     C_R   0.587786 0.521728 0.615410 -0.245116
C40   C     C_R   0.411578 0.477973 0.384983 -0.243556
C41   C     C_R   0.646231 0.435274 0.667686 -0.211312
C42   C     C_R   0.352897 0.564307 0.332817 -0.212540
C43   C     C_R   0.334985 0.087021 0.765513 -0.140763
C44   C     C_R   0.666379 0.914983 0.231419 -0.144799
C45   C     C_R   0.248994 0.045038 0.701428 -0.133640
C46   C     C_R   0.751604 0.956818 0.295961 -0.136193
C47   C     C_R   0.192971 0.108560 0.606107 0.145529
C48   C     C_R   0.806351 0.893156 0.391706 0.146195
C49   C     C_R   0.227052 0.214828 0.575446 -0.120640
C50   C     C_R   0.771568 0.786938 0.422478 -0.117986
C51   C     C_R   0.306619 0.256263 0.642464 -0.129520
C52   C     C_R   0.692133 0.745590 0.355344 -0.126980
C53   C     C_R   0.361779 0.192562 0.736900 -0.098024
C54   C     C_R   0.638443 0.809422 0.260374 -0.100285
C55   C     C_R   0.968740 0.076956 0.520415 -0.058689
C56   C     C_R   0.030730 0.924612 0.477161 -0.059177
Cu1   Cu    Cu3+1 0.466270 0.918260 0.475690 0.948769
Cu2   Cu    Cu3+1 0.533730 0.081740 0.524310 0.948683
H1    H     H_    0.425378 0.225009 0.787811 0.129386
H2    H     H_    0.575152 0.777057 0.209289 0.128695
H3    H     H_    0.380146 0.538733 0.801234 0.140112
H4    H     H_    0.666667 0.455885 0.186923 0.136300
H5    H     H_    0.704884 0.425886 0.740452 0.141043
H6    H     H_    0.293787 0.573484 0.260251 0.140263
H7    H     H_    0.531726 0.709246 0.565994 0.123836
H8    H     H_    0.468862 0.291007 0.433779 0.123474
H9    H     H_    0.301062 0.874981 0.303121 0.111608
H10   H     H_    0.698436 0.124786 0.697104 0.111413
H11   H     H_    0.739789 0.261352 0.759407 0.121604
H12   H     H_    0.258703 0.737908 0.241316 0.122820
H13   H     H_    0.605257 0.574229 0.652077 0.137794
H14   H     H_    0.393680 0.425304 0.348473 0.137539
H15   H     H_    0.378414 0.037594 0.838393 0.114080
H16   H     H_    0.624316 0.964491 0.158011 0.115767
H17   H     H_    0.225488 0.962989 0.726162 0.101696
H18   H     H_    0.775874 0.038837 0.271114 0.103605
H19   H     H_    0.188154 0.265466 0.501424 0.128645
H20   H     H_    0.809810 0.736272 0.496719 0.127733
H21   H     H_    0.326371 0.337929 0.620886 0.142340
H22   H     H_    0.671577 0.663902 0.377152 0.142588
H23   H     H_    0.288208 0.366692 0.854827 0.157125
H24   H     H_    0.751456 0.628761 0.134629 0.156635
H25   H     H_    0.422132 0.690999 0.771442 0.143745
H26   H     H_    0.581033 0.308482 0.231857 0.146065
H27   H     H_    0.693819 0.926348 0.832930 0.142128
H28   H     H_    0.313399 0.074916 0.164277 0.141842
N1    N     N_R   0.584450 0.204570 0.560790 -0.171272
N2    N     N_R   0.415550 0.795430 0.439210 -0.171572
O1    O     O_R   0.455540 0.022090 0.338120 -0.595109
O2    O     O_R   0.544460 0.977910 0.661880 -0.595396
O3    O     O_R   0.512510 0.160150 0.379180 -0.595080
O4    O     O_R   0.487490 0.839850 0.620820 -0.594126
O5    O     O_R   0.291160 0.930970 0.479480 -0.575242
O6    O     O_R   0.708840 0.069030 0.520520 -0.575159
O7    O     O_R   0.348130 0.069020 0.520540 -0.569404
O8    O     O_R   0.651870 0.930980 0.479460 -0.569859
C57   C     C_R   0.211913 0.184301 0.980176 0.095475
C58   C     C_R   0.214843 0.106299 0.949921 -0.161951
C59   C     C_R   0.104286 0.067175 0.898790 -0.092461
C60   C     C_R   0.989732 0.103671 0.880259 -0.101276
C61   C     C_R   0.986073 0.180532 0.911221 -0.166554
C62   C     C_R   0.096782 0.221236 0.960443 -0.159539
H29   H     H_    0.302187 0.075325 0.966886 0.113929
H30   H     H_    0.106571 0.006826 0.875721 0.126464
H31   H     H_    0.903436 0.071495 0.843125 0.107895
H32   H     H_    0.897186 0.207542 0.898689 0.115954
H33   H     H_    0.092213 0.279671 0.985509 0.129253
C63   C     C_R   0.805931 0.817859 0.013745 0.096788
C64   C     C_R   0.924735 0.787671 0.029711 -0.167170
C65   C     C_R   0.032762 0.829923 0.080044 -0.167589
C66   C     C_R   0.022901 0.902001 0.115311 -0.100905
C67   C     C_R   0.904971 0.932526 0.099582 -0.100016
C68   C     C_R   0.796852 0.891314 0.048131 -0.157741
H34   H     H_    0.933976 0.732987 0.001402 0.128938
H35   H     H_    0.124426 0.808146 0.089886 0.116317
H36   H     H_    0.107020 0.935352 0.153395 0.108428
H37   H     H_    0.897924 0.989479 0.125658 0.126054
H38   H     H_    0.706468 0.917033 0.034339 0.115439
C69   C     C_R   0.940726 0.170267 0.523379 0.152979
C70   C     C_R   0.957760 0.182218 0.614777 -0.129270
C71   C     C_R   0.945332 0.274921 0.614986 -0.146944
C72   C     C_R   0.908723 0.354208 0.524551 -0.112010
C73   C     C_R   0.886454 0.341466 0.433563 -0.143679
C74   C     C_R   0.903412 0.250208 0.432726 -0.129486
H39   H     H_    0.985824 0.121112 0.684921 0.122519
H40   H     H_    0.962691 0.285022 0.685315 0.141139
H41   H     H_    0.897028 0.425278 0.525081 0.129778
H42   H     H_    0.857769 0.402795 0.363566 0.117017
H43   H     H_    0.889202 0.242172 0.361517 0.106575
C75   C     C_R   0.058299 0.831912 0.472657 0.153826
C76   C     C_R   0.094116 0.750662 0.562588 -0.128125
C77   C     C_R   0.109346 0.659628 0.560260 -0.143908
C78   C     C_R   0.086698 0.648404 0.468490 -0.113060
C79   C     C_R   0.051630 0.729017 0.378751 -0.147481
C80   C     C_R   0.041023 0.821477 0.380473 -0.130102
H44   H     H_    0.108283 0.757465 0.634383 0.106586
H45   H     H_    0.136863 0.597270 0.629708 0.119333
H46   H     H_    0.096964 0.577491 0.466814 0.130163
H47   H     H_    0.034015 0.720110 0.307800 0.142477
H48   H     H_    0.014041 0.883563 0.310849 0.121909

loop_
_geom_bond_atom_site_label_1
_geom_bond_atom_site_label_2
_ccdc_geom_bond_type
C43   H15   S    
C31   H8    S    
C61   C62   A    
C1    O1    A    
Cu1   O4    S    
C27   C29   A    
C5    C56   A    
C10   C63   S    
C66   C67   A    
C18   C26   A    
C6    C55   A    
Cu2   N1    S    
C46   H18   S    
C57   C58   A    
C53   H1    S    
C73   C74   A    
C39   C41   A    
C54   H2    S    
C69   C74   A    
C15   C19   A    
C13   H26   S    
C60   H31   S    
Cu1   O1    S    
C12   H27   S    
C23   O7    A    
C37   C40   A    
C24   O8    A    
C38   C39   A    
C11   H28   S    
C58   H29   S    
C32   N2    A    
C63   C64   A    
C72   H41   S    
C2    O2    A    
C65   C66   A    
C3    C55   A    
C43   C53   A    
C19   C20   A    
C44   C46   A    
C77   C78   A    
C49   C51   A    
Cu1   O8    S    
C50   C52   A    
C31   C33   A    
C66   H36   S    
Cu2   O3    S    
C21   H3    S    
C57   C62   A    
C27   H11   S    
C8    C12   A    
C9    C11   A    
C40   C42   A    
C59   H30   S    
C78   H46   S    
C26   H24   S    
C1    C7    S    
C4    C56   A    
C25   H23   S    
C3    C24   S    
C14   H25   S    
C50   H20   S    
C67   C68   A    
C52   C54   A    
Cu1   Cu2   S    
C45   C47   A    
C80   H48   S    
C5    C48   S    
C46   C48   A    
C31   N1    A    
C6    C47   S    
C44   H16   S    
C19   C22   A    
C4    C6    A    
C76   H44   S    
C79   H47   S    
C4    C23   S    
C70   H39   S    
C55   C69   S    
C27   C35   A    
C77   H45   S    
C33   C37   A    
C23   O5    A    
C51   C53   A    
C32   C34   A    
C63   C68   A    
C7    C11   A    
Cu2   O7    S    
C37   C38   A    
C24   O6    A    
C22   H4    S    
C29   H10   S    
Cu2   O2    S    
C59   C60   A    
C16   C20   A    
C62   H33   S    
C2    O4    A    
C43   C45   A    
C71   C72   A    
C10   C12   A    
C64   H34   S    
C9    C57   S    
C9    C17   A    
C75   C80   A    
C13   C15   A    
C78   C79   A    
C14   C16   A    
C41   H5    S    
C30   N2    A    
C76   C77   A    
C42   H6    S    
C70   C71   A    
C61   H32   S    
C15   C17   A    
C21   C25   A    
C8    C14   A    
C40   H14   S    
C34   C38   A    
C28   H12   S    
C30   H9    S    
C3    C5    A    
C36   C42   A    
C69   C70   A    
C79   C80   A    
C47   C49   A    
Cu1   N2    S    
C45   H17   S    
C17   C25   A    
C28   C30   A    
C75   C76   A    
Cu2   O6    S    
C71   H40   S    
C64   C65   A    
C73   H42   S    
C67   H37   S    
C10   C18   A    
C1    O3    A    
C48   C50   A    
C60   C61   A    
C33   C35   A    
C49   H19   S    
C74   H43   S    
C34   C36   A    
C35   C41   A    
C51   H21   S    
C29   N1    A    
C68   H38   S    
C44   C54   A    
C7    C13   A    
C20   C21   A    
C28   C36   A    
C16   C18   A    
C58   C59   A    
C22   C26   A    
C2    C8    S    
C39   H13   S    
Cu1   O5    S    
C72   C73   A    
C52   H22   S    
C65   H35   S    
C56   C75   S    
C32   H7    S    
