data_mof_unit_52103.cif
_audit_creation_date              2012-12-10T20:56:28-0500
_audit_creation_method            fapswitch 2.2
_symmetry_space_group_name_H-M    P1
_symmetry_Int_Tables_number       1
_space_group_crystal_system       triclinic
_cell_length_a                    13.19612
_cell_length_b                    15.085048
_cell_length_c                    15.725965
_cell_angle_alpha                 89.783499
_cell_angle_beta                  90.049182
_cell_angle_gamma                 70.332118
_cell_volume                      2947.81261838

loop_
_atom_site_label
_atom_site_type_symbol
_atom_type_description
_atom_site_fract_x
_atom_site_fract_y
_atom_site_fract_z
_atom_type_partial_charge
C1    C     C_R   0.499975 0.499891 0.661543 0.889882
C2    C     C_R   0.970035 0.475081 0.486587 -0.039420
C3    C     C_R   0.873435 0.479174 0.525503 -0.096995
C4    C     C_R   0.018368 0.540139 0.513938 -0.060437
C5    C     C_R   0.958212 0.625064 0.553298 -0.084051
C6    C     C_R   0.864745 0.625519 0.598251 -0.110603
C7    C     C_R   0.829170 0.547766 0.589735 0.496288
C8    C     C_R   0.129018 0.514026 0.518381 0.457687
C9    C     C_R   0.111514 0.679364 0.529217 -0.122398
C10   C     C_R   0.821918 0.416301 0.498847 -0.228097
C11   C     C_R   0.557908 0.402707 0.044127 0.392564
C12   C     C_R   0.704610 0.448302 0.502352 0.991780
C13   C     C_R   0.552592 0.485345 0.087282 -0.171597
C14   C     C_R   0.561071 0.564207 0.044203 0.396599
C15   C     C_R   0.570424 0.562251 0.955289 -0.178505
C16   C     C_R   0.561107 0.483555 0.911760 -0.168687
C17   C     C_R   0.561450 0.401938 0.955595 0.422675
C18   C     C_1   0.532282 0.491163 0.175799 0.117294
C19   C     C_1   0.536805 0.489733 0.823671 0.131308
C20   C     C_1   0.516968 0.494807 0.749744 -0.130268
C21   C     C_1   0.515442 0.495911 0.250102 -0.156460
C22   C     C_R   0.409411 0.073678 0.527344 0.482347
C23   C     C_R   0.500383 0.500017 0.338480 0.899934
C24   C     C_R   0.498724 0.095425 0.496736 -0.191757
C25   C     C_R   0.586921 0.022664 0.462779 0.390848
C26   C     C_R   0.589391 0.927412 0.463601 -0.072819
C27   C     C_R   0.500573 0.904900 0.497373 -0.175579
C28   C     C_R   0.410968 0.978663 0.530328 -0.158269
C29   C     C_1   0.499337 0.193178 0.498904 0.221903
C30   C     C_1   0.500521 0.806820 0.498947 0.199490
C31   C     C_R   0.294908 0.551739 0.504174 0.885430
C32   C     C_R   0.001324 0.699934 0.552229 -0.007726
C33   C     C_R   0.177428 0.583690 0.517468 -0.301333
C34   C     C_R   0.876972 0.337556 0.448780 0.385894
C35   C     C_R   0.970353 0.336065 0.405260 -0.130567
C36   C     C_R   0.014480 0.408303 0.420453 -0.068863
N1    N     N_1   0.500030 0.729450 0.499980 -0.079902
N2    N     N_1   0.499970 0.270550 0.500020 -0.080294
O1    O     O_R   0.500000 0.426350 0.621980 -0.628548
O2    O     O_R   0.499950 0.573700 0.621980 -0.574559
O3    O     O_R   0.653660 0.389750 0.499980 -0.590200
O4    O     O_R   0.653610 0.537090 0.499980 -0.566177
O5    O     O_R   0.500050 0.426300 0.378020 -0.595279
O6    O     O_R   0.500000 0.573650 0.378020 -0.598963
O7    O     O_R   0.346390 0.462910 0.500020 -0.533557
O8    O     O_R   0.346340 0.610250 0.500020 -0.656424
Zn1   Zn    Zn3+2 0.500030 0.401620 0.500000 1.027650
Zn2   Zn    Zn3+2 0.499970 0.598380 0.500000 1.024037
C37   C     C_2   0.156994 0.756303 0.520085 0.548875
H1    H     H_    0.225157 0.756549 0.558507 0.061832
O9    O     O_2   0.118219 0.820103 0.469196 -0.559593
O10   O     O_3   0.544700 0.326981 0.086975 -0.548767
C38   C     C_3   0.644448 0.271813 0.122235 -0.223862
H2    H     H_    0.673539 0.311449 0.170408 0.158041
H3    H     H_    0.706416 0.244324 0.072224 0.148395
H4    H     H_    0.633761 0.210327 0.155035 0.187026
O11   O     O_3   0.563329 0.642049 0.089640 -0.592750
C39   C     C_3   0.457040 0.705287 0.097541 -0.274728
H5    H     H_    0.406203 0.674043 0.135334 0.171353
H6    H     H_    0.419249 0.728744 0.034365 0.145039
H7    H     H_    0.459393 0.768700 0.131810 0.204517
C40   C     C_2   0.586858 0.643776 0.910428 0.478142
H8    H     H_    0.582024 0.706981 0.945252 0.113508
O12   O     O_2   0.609252 0.640883 0.834956 -0.564628
C41   C     C_2   0.318691 0.956034 0.568167 0.488575
H9    H     H_    0.310564 0.887653 0.558428 0.039679
O13   O     O_2   0.251201 0.012677 0.611946 -0.503561
O14   O     O_3   0.320801 0.145865 0.556658 -0.580240
C42   C     C_3   0.248841 0.179240 0.488062 -0.183657
H10   H     H_    0.284852 0.211808 0.438260 0.197415
H11   H     H_    0.223323 0.122471 0.459894 0.143592
H12   H     H_    0.175309 0.234079 0.511899 0.202869
O15   O     O_3   0.674758 0.043994 0.432960 -0.621350
C43   C     C_3   0.657123 0.070305 0.346550 -0.314591
H13   H     H_    0.586313 0.135498 0.338265 0.177454
H14   H     H_    0.647021 0.012524 0.307375 0.158163
H15   H     H_    0.728608 0.085298 0.322245 0.207503
C44   C     C_2   0.687160 0.853844 0.428838 0.387783
H16   H     H_    0.753365 0.873581 0.404241 0.122226
O16   O     O_2   0.696485 0.770589 0.427266 -0.580985
C45   C     C_2   0.813686 0.694589 0.665689 0.429621
H17   H     H_    0.727174 0.717098 0.674704 0.135507
O17   O     O_2   0.868052 0.721942 0.715148 -0.549779
C46   C     C_2   0.930018 0.798377 0.568491 0.579361
H18   H     H_    0.844932 0.819090 0.554001 0.028149
O18   O     O_2   0.964161 0.856106 0.601047 -0.527268
O19   O     O_3   0.188620 0.419246 0.527591 -0.597601
C47   C     C_3   0.193935 0.396442 0.615008 -0.221296
H19   H     H_    0.227159 0.442501 0.653091 0.151090
H20   H     H_    0.249052 0.323141 0.623691 0.229130
H21   H     H_    0.113488 0.400369 0.639586 0.148605
O20   O     O_3   0.828745 0.271890 0.428409 -0.615446
C48   C     C_3   0.852754 0.203505 0.493635 -0.231244
H22   H     H_    0.819551 0.235012 0.555867 0.161452
H23   H     H_    0.941071 0.166230 0.499106 0.152594
H24   H     H_    0.814745 0.150334 0.477650 0.235709
C49   C     C_2   0.099562 0.420247 0.363812 0.596997
H25   H     H_    0.096976 0.490555 0.345974 0.027190
O21   O     O_2   0.175512 0.353010 0.340312 -0.547502
C50   C     C_2   0.012167 0.262836 0.339050 0.503682
H26   H     H_    0.014722 0.191297 0.351412 0.071498
O22   O     O_2   0.037348 0.282509 0.268621 -0.526498
O23   O     O_3   0.752888 0.537996 0.646142 -0.605073
C51   C     C_3   0.806156 0.470611 0.708236 -0.297909
H27   H     H_    0.747009 0.467295 0.756969 0.212115
H28   H     H_    0.870041 0.490427 0.741329 0.180957
H29   H     H_    0.840668 0.399200 0.680106 0.137606
O24   O     O_3   0.551775 0.325028 0.912855 -0.553987
C52   C     C_3   0.652160 0.273278 0.876840 -0.241386
H30   H     H_    0.718647 0.256327 0.924257 0.136963
H31   H     H_    0.671462 0.311057 0.821785 0.142641
H32   H     H_    0.647720 0.205595 0.852937 0.205567

loop_
_geom_bond_atom_site_label_1
_geom_bond_atom_site_label_2
_ccdc_geom_bond_type
O19   C47   S    
C48   H22   S    
C18   C21   T    
O15   C43   S    
C19   C20   T    
C4    C8    A    
C51   H28   S    
C49   H25   S    
C38   H2    S    
C26   C27   A    
C26   C44   S    
C43   H14   S    
C13   C18   S    
C46   O18   D    
C3    C7    A    
C52   H31   S    
C5    C6    A    
C44   O16   D    
C39   H6    S    
C15   C16   A    
C23   O5    A    
O24   C52   S    
C34   C35   A    
C42   H11   S    
C24   C29   S    
O20   C48   S    
C12   O4    A    
C11   O10   S    
C9    C32   A    
C49   O21   D    
C35   C36   A    
O14   C42   S    
C37   O9    D    
C43   H15   S    
C29   N2    T    
C40   O12   D    
C31   C33   S    
C36   C49   S    
C1    O2    A    
C5    C32   A    
C39   H7    S    
O7    Zn1   S    
C48   H23   S    
C6    C45   S    
C7    O23   S    
C13   C14   A    
C27   C30   S    
C9    C33   A    
C51   H27   S    
C45   O17   D    
C45   H17   S    
C38   H3    S    
C32   C46   S    
O8    Zn2   S    
C43   H13   S    
C9    C37   S    
C24   C25   A    
C52   H32   S    
C44   H16   S    
C16   C17   A    
C41   O13   D    
C39   H5    S    
C31   O8    A    
C23   O6    A    
C30   N1    T    
C42   H12   S    
C2    C4    A    
C40   H8    S    
C47   H21   S    
C50   O22   D    
O3    Zn1   S    
C10   C34   A    
O4    Zn2   S    
C46   H18   S    
N1    Zn2   S    
C22   O14   S    
N2    Zn1   S    
C10   C12   S    
C47   H20   S    
C41   H9    S    
C48   H24   S    
C21   C23   S    
C22   C24   A    
C17   O24   S    
C35   C50   S    
O23   C51   S    
O10   C38   S    
C12   O3    A    
O1    Zn1   S    
C38   H4    S    
C2    C36   A    
O2    Zn2   S    
C14   O11   S    
C11   C17   A    
C1    C20   S    
C4    C5    A    
C6    C7    A    
C8    O19   S    
C2    C3    A    
C25   C26   A    
C3    C10   A    
C52   H30   S    
C11   C13   A    
O11   C39   S    
C16   C19   S    
C50   H26   S    
C15   C40   S    
C28   C41   S    
C25   O15   S    
C8    C33   A    
C42   H10   S    
C34   O20   S    
C1    O1    A    
C47   H19   S    
C37   H1    S    
C31   O7    A    
C27   C28   A    
C14   C15   A    
C22   C28   A    
O5    Zn1   S    
C51   H29   S    
O6    Zn2   S    
