data_mof_unit_37642.cif
_audit_creation_date              2012-12-10T18:23:04-0500
_audit_creation_method            fapswitch 2.2
_symmetry_space_group_name_H-M    P1
_symmetry_Int_Tables_number       1
_space_group_crystal_system       triclinic
_cell_length_a                    14.82951
_cell_length_b                    14.251237
_cell_length_c                    10.470865
_cell_angle_alpha                 90.003378
_cell_angle_beta                  88.029643
_cell_angle_gamma                 90.001107
_cell_volume                      2211.59230551

loop_
_atom_site_label
_atom_site_type_symbol
_atom_type_description
_atom_site_fract_x
_atom_site_fract_y
_atom_site_fract_z
_atom_type_partial_charge
C1    C     C_R   0.327449 0.500001 0.499571 0.892384
C2    C     C_R   0.672552 0.500001 0.500439 0.892343
C3    C     C_R   0.953121 0.500013 0.500207 0.044876
C4    C     C_R   0.046877 0.500004 0.499800 0.044875
C5    C     C_R   0.908865 0.499982 0.382918 0.106817
C6    C     C_R   0.091133 0.500033 0.617089 0.106786
C7    C     C_R   0.947869 0.500080 0.733738 -0.226354
C8    C     C_R   0.052128 0.499926 0.266272 -0.226369
C9    C     C_R   0.041611 0.500071 0.733310 -0.246338
C10   C     C_R   0.958385 0.499941 0.266700 -0.246349
C11   C     C_R   0.564980 0.799203 0.429996 0.022773
C12   C     C_R   0.435029 0.200793 0.570013 0.022766
C13   C     C_R   0.435018 0.799214 0.569997 0.022766
C14   C     C_R   0.564972 0.200789 0.429984 0.022761
C15   C     C_R   0.435077 0.899483 0.573113 -0.018549
C16   C     C_R   0.564911 0.100516 0.426865 -0.018555
C17   C     C_R   0.564914 0.899474 0.426868 -0.018550
C18   C     C_R   0.435082 0.100521 0.573120 -0.018549
C19   C     C_R   0.499993 0.949658 0.499987 0.080862
C20   C     C_R   0.499997 0.050339 0.499992 0.080867
C21   C     C_R   0.371369 0.951074 0.647656 -0.210850
C22   C     C_R   0.628618 0.048924 0.352319 -0.210847
C23   C     C_R   0.628619 0.951060 0.352320 -0.210851
C24   C     C_R   0.371372 0.048936 0.647661 -0.210857
C25   C     C_R   0.499787 0.499997 0.257695 0.853363
C26   C     C_R   0.500222 0.500003 0.742303 0.853359
C27   C     C_3   0.456920 0.577196 0.043520 -0.174120
C28   C     C_3   0.543099 0.422801 0.956475 -0.174075
C29   C     C_3   0.542999 0.577269 0.956526 -0.174016
C30   C     C_3   0.457022 0.422729 0.043471 -0.173973
C31   C     C_3   0.414363 0.499940 0.961705 -0.189878
C32   C     C_3   0.585658 0.500057 0.038291 -0.189910
C33   C     C_3   0.500396 0.500012 0.877488 0.058539
C34   C     C_3   0.499625 0.499985 0.122508 0.058528
C35   C     C_R   0.815570 0.499987 0.384410 -0.231571
C36   C     C_R   0.184429 0.500026 0.615597 -0.231635
C37   C     C_R   0.767762 0.500007 0.500789 -0.031019
C38   C     C_R   0.232240 0.499994 0.499218 -0.031028
C39   C     C_R   0.810132 0.500046 0.617157 -0.293163
C40   C     C_R   0.189870 0.499954 0.382849 -0.293144
C41   C     C_R   0.903480 0.500049 0.617912 0.131243
C42   C     C_R   0.096519 0.499960 0.382096 0.131241
H1    H     H_    0.344924 0.499912 0.925351 0.128469
H2    H     H_    0.655096 0.500078 0.074648 0.128453
H3    H     H_    0.422446 0.640010 0.084535 0.127255
H4    H     H_    0.577568 0.359992 0.915441 0.127239
H5    H     H_    0.577389 0.640147 0.915567 0.127251
H6    H     H_    0.422641 0.359853 0.084436 0.127232
H7    H     H_    0.779806 0.499973 0.295701 0.145963
H8    H     H_    0.220192 0.500044 0.704307 0.145978
H9    H     H_    0.770330 0.500072 0.706129 0.126346
H10   H     H_    0.229673 0.499921 0.293876 0.126349
H11   H     H_    0.910143 0.500109 0.824253 0.138086
H12   H     H_    0.089851 0.499889 0.175760 0.138093
H13   H     H_    0.075362 0.500093 0.823488 0.136351
H14   H     H_    0.924632 0.499915 0.176524 0.136353
H15   H     H_    0.320635 0.916605 0.707661 0.160404
H16   H     H_    0.679350 0.083393 0.292312 0.160407
H17   H     H_    0.679352 0.916586 0.292312 0.160403
H18   H     H_    0.320640 0.083408 0.707668 0.160405
N1    N     N_R   0.500000 0.750030 0.500000 -0.138290
N2    N     N_R   0.500000 0.249970 0.500000 -0.138288
O1    O     O_R   0.367850 0.580280 0.500030 -0.614117
O2    O     O_R   0.632150 0.419720 0.499970 -0.614131
O3    O     O_R   0.632150 0.580280 0.499970 -0.614115
O4    O     O_R   0.367850 0.419720 0.500030 -0.614132
O5    O     O_R   0.499970 0.580260 0.313950 -0.629308
O6    O     O_R   0.500030 0.419740 0.686050 -0.629284
O7    O     O_R   0.500030 0.580260 0.686050 -0.629325
O8    O     O_R   0.499970 0.419740 0.313950 -0.629307
Zn1   Zn    Zn3+2 0.500000 0.607200 0.500000 0.943412
Zn2   Zn    Zn3+2 0.500000 0.392800 0.500000 0.943416
C43   C     C_R   0.638947 0.749620 0.360460 0.191401
C44   C     C_R   0.724759 0.747429 0.413527 -0.140507
C45   C     C_R   0.800165 0.719432 0.339452 -0.135064
C46   C     C_R   0.790618 0.693600 0.211945 -0.140280
C47   C     C_R   0.705731 0.696116 0.158291 -0.190320
C48   C     C_R   0.630137 0.724921 0.231711 -0.123397
H19   H     H_    0.733440 0.770137 0.511067 0.124703
H20   H     H_    0.866096 0.718256 0.380680 0.141410
H21   H     H_    0.849104 0.672194 0.154500 0.130754
H22   H     H_    0.699187 0.678152 0.058763 0.131639
H23   H     H_    0.565643 0.731493 0.187095 0.131133
C49   C     C_R   0.361098 0.250381 0.639622 0.191384
C50   C     C_R   0.369956 0.275018 0.768384 -0.123398
C51   C     C_R   0.294395 0.303835 0.841872 -0.190223
C52   C     C_R   0.209497 0.306439 0.788269 -0.140345
C53   C     C_R   0.199900 0.280658 0.660753 -0.135095
C54   C     C_R   0.275269 0.252633 0.586615 -0.140478
H24   H     H_    0.434460 0.268387 0.812951 0.131080
H25   H     H_    0.300971 0.321738 0.941406 0.131645
H26   H     H_    0.151032 0.327864 0.845767 0.130712
H27   H     H_    0.133952 0.281893 0.619565 0.141448
H28   H     H_    0.266548 0.229961 0.489068 0.124723
C55   C     C_R   0.361074 0.749637 0.639575 0.191382
C56   C     C_R   0.275245 0.747420 0.586547 -0.140525
C57   C     C_R   0.199863 0.719399 0.660648 -0.135089
C58   C     C_R   0.209450 0.693576 0.788144 -0.140344
C59   C     C_R   0.294358 0.696118 0.841759 -0.190214
C60   C     C_R   0.369926 0.724954 0.768314 -0.123354
H29   H     H_    0.266531 0.770111 0.489011 0.124719
H30   H     H_    0.133917 0.718182 0.619444 0.141437
H31   H     H_    0.150984 0.672140 0.845601 0.130741
H32   H     H_    0.300942 0.678150 0.941271 0.131635
H33   H     H_    0.434439 0.731536 0.812900 0.131081
C61   C     C_R   0.638911 0.250368 0.360395 0.191394
C62   C     C_R   0.630060 0.275026 0.231651 -0.123386
C63   C     C_R   0.705624 0.303854 0.158191 -0.190187
C64   C     C_R   0.790527 0.306412 0.211796 -0.140374
C65   C     C_R   0.800117 0.280606 0.339295 -0.135123
C66   C     C_R   0.724739 0.252596 0.413412 -0.140508
H34   H     H_    0.565553 0.268426 0.187072 0.131067
H35   H     H_    0.699043 0.321802 0.058673 0.131638
H36   H     H_    0.848987 0.327840 0.154325 0.130740
H37   H     H_    0.866061 0.281827 0.380488 0.141455
H38   H     H_    0.733454 0.229919 0.510950 0.124724

loop_
_geom_bond_atom_site_label_1
_geom_bond_atom_site_label_2
_ccdc_geom_bond_type
C39   H9    S    
C52   C53   A    
C27   C29   S    
C43   C44   A    
C55   C56   A    
C25   O5    A    
C2    O3    A    
C6    C9    A    
C57   C58   A    
C39   C41   A    
C47   C48   A    
C15   C19   A    
C28   H4    S    
C60   H33   S    
C17   C23   A    
C31   H1    S    
C13   C55   S    
C18   C24   A    
C30   H6    S    
C35   C37   A    
C8    C42   A    
C29   C32   S    
C51   H25   S    
C50   C51   A    
C30   C31   S    
C61   C62   A    
C58   H31   S    
C14   N2    A    
C29   C33   S    
C63   C64   A    
C12   C49   S    
C62   H34   S    
C54   H28   S    
O7    Zn1   S    
C65   C66   A    
C48   H23   S    
O4    Zn2   S    
C19   C20   A    
C35   H7    S    
C62   C63   A    
C31   C33   S    
C66   H38   S    
C9    H13   S    
C10   H14   S    
C45   H20   S    
C18   C20   A    
C57   H30   S    
C24   H18   S    
C25   C34   S    
N1    Zn1   S    
C40   C42   A    
C59   H32   S    
C56   H29   S    
C1    O1    A    
C2    O2    A    
C61   C66   A    
C27   C34   S    
C44   C45   A    
C30   C34   S    
C27   C31   S    
C28   C32   S    
C49   C50   A    
C4    C6    A    
C11   C43   S    
C8    H12   S    
C55   C60   A    
C3    C5    A    
O3    Zn1   S    
C43   C48   A    
O6    Zn2   S    
C32   C34   S    
C63   H35   S    
C23   H17   S    
C45   C46   A    
C21   H15   S    
C12   N2    A    
C26   C33   S    
C59   C60   A    
C14   C61   S    
C16   C20   A    
C56   C57   A    
C1    O4    A    
C32   H2    S    
N2    Zn2   S    
C46   C47   A    
C64   H36   S    
C1    C38   S    
C29   H5    S    
C28   C33   S    
C44   H19   S    
C13   C15   A    
C14   C16   A    
C49   C54   A    
C7    H11   S    
C3    C4    A    
C36   H8    S    
C7    C9    A    
C53   H27   S    
C3    C41   A    
C16   C22   A    
C51   C52   A    
O1    Zn1   S    
C11   N1    A    
C11   C17   A    
C46   H21   S    
C22   H16   S    
C50   H24   S    
C26   O6    A    
C28   C30   S    
C5    C10   A    
C37   C39   A    
C40   H10   S    
C64   C65   A    
C38   C40   A    
C2    C37   S    
C27   H3    S    
C4    C42   A    
C47   H22   S    
C5    C35   A    
C36   C38   A    
C17   C19   A    
C6    C36   A    
O5    Zn1   S    
C7    C41   A    
C15   C21   A    
C13   N1    A    
C53   C54   A    
C8    C10   A    
C58   C59   A    
C21   C24   A    
C12   C18   A    
C26   O7    A    
C22   C23   A    
O8    Zn2   S    
C25   O8    A    
C52   H26   S    
C65   H37   S    
O2    Zn2   S    
