data_mof_unit_11299.cif
_audit_creation_date              2012-10-26T21:14:56-0400
_audit_creation_method            fapswitch 2.2
_symmetry_space_group_name_H-M    P1
_symmetry_Int_Tables_number       1
_space_group_crystal_system       triclinic
_cell_length_a                    15.073647
_cell_length_b                    10.897239
_cell_length_c                    13.707036
_cell_angle_alpha                 89.950629
_cell_angle_beta                  90.356476
_cell_angle_gamma                 87.905488
_cell_volume                      2249.98414055

loop_
_atom_site_label
_atom_site_type_symbol
_atom_type_description
_atom_site_fract_x
_atom_site_fract_y
_atom_site_fract_z
_atom_type_partial_charge
C1    C     C_R   0.497718 0.262164 0.499640 0.572628
C2    C     C_R   0.556466 0.878304 0.679181 0.022597
C3    C     C_R   0.492309 0.108634 0.234255 -0.092722
C4    C     C_R   0.507715 0.891352 0.765742 -0.092750
C5    C     C_R   0.463242 0.167944 0.147445 0.020111
C6    C     C_R   0.536795 0.832039 0.852547 0.020111
C7    C     C_R   0.383744 0.240197 0.149875 -0.101768
C8    C     C_R   0.616285 0.759774 0.850098 -0.101764
C9    C     C_R   0.481634 0.934632 0.415229 -0.159874
C10   C     C_R   0.518367 0.065370 0.584775 -0.159869
C11   C     C_R   0.504421 0.871687 0.501434 0.004699
C12   C     C_R   0.502283 0.737836 0.500361 0.572600
C13   C     C_R   0.495580 0.128315 0.498570 0.004709
C14   C     C_R   0.524226 0.937910 0.587387 -0.042737
C15   C     C_R   0.475776 0.062090 0.412613 -0.042735
C16   C     C_R   0.328912 0.502497 0.499993 0.600633
C17   C     C_R   0.671089 0.497520 0.500006 0.600631
C18   C     C_R   0.574158 0.459417 0.794027 0.056264
C19   C     C_R   0.425839 0.540579 0.205973 0.056263
C20   C     C_R   0.425774 0.540014 0.793142 0.045881
C21   C     C_R   0.574228 0.459990 0.206857 0.045868
C22   C     C_R   0.423536 0.538673 0.895972 -0.068733
C23   C     C_R   0.055153 0.277327 0.505287 0.416101
C24   C     C_R   0.576464 0.461331 0.104028 -0.068736
C25   C     C_R   0.500021 0.499703 0.948255 -0.020787
C26   C     C_R   0.499976 0.500297 0.051745 -0.020785
C27   C     C_R   0.576607 0.460518 0.897074 0.006528
C28   C     C_R   0.423391 0.539481 0.102927 0.006538
C29   C     C_R   0.346843 0.575713 0.947446 -0.098976
C30   C     C_R   0.653160 0.424300 0.052554 -0.098982
C31   C     C_R   0.346512 0.575863 0.049957 0.357343
C32   C     C_R   0.653489 0.424145 0.950042 0.357331
C33   C     C_R   0.809506 0.607221 0.493694 0.365632
C34   C     C_R   0.944846 0.722691 0.494731 0.416107
C35   C     C_R   0.190494 0.392797 0.506309 0.365654
C36   C     C_R   0.767539 0.495512 0.499333 -0.003733
C37   C     C_R   0.232461 0.504508 0.500662 -0.003732
C38   C     C_R   0.817133 0.383687 0.500805 -0.080160
C39   C     C_R   0.182868 0.616332 0.499163 -0.080154
C40   C     C_R   0.910785 0.385054 0.501626 -0.055474
C41   C     C_R   0.089215 0.614965 0.498363 -0.055475
C42   C     C_R   0.953183 0.498868 0.499750 -0.072030
C43   C     C_R   0.046818 0.501151 0.500249 -0.072027
C44   C     C_R   0.902139 0.610374 0.495965 0.051901
C45   C     C_R   0.334434 0.251246 0.235300 -0.105458
C46   C     C_R   0.097861 0.389644 0.504040 0.051890
C47   C     C_R   0.963126 0.275334 0.503272 -0.083402
C48   C     C_R   0.036872 0.724684 0.496737 -0.083431
C49   C     C_R   0.771653 0.265918 0.494409 0.013789
C50   C     C_R   0.766146 0.190366 0.576847 -0.105281
C51   C     C_R   0.736727 0.070986 0.567104 -0.079203
C52   C     C_R   0.711387 0.027375 0.475489 -0.025828
C53   C     C_R   0.713773 0.103854 0.393831 -0.092012
C54   C     C_R   0.744018 0.222901 0.403067 -0.082062
C55   C     C_R   0.228347 0.734109 0.505486 0.013782
C56   C     C_R   0.665576 0.748719 0.764663 -0.105424
C57   C     C_R   0.256140 0.777107 0.596782 -0.082021
C58   C     C_R   0.286364 0.896173 0.605967 -0.091981
C59   C     C_R   0.288587 0.972685 0.524303 -0.025840
C60   C     C_R   0.263102 0.929089 0.432731 -0.079243
C61   C     C_R   0.233693 0.809695 0.423040 -0.105323
C62   C     C_R   0.514916 0.154594 0.054942 0.038874
C63   C     C_R   0.472241 0.167333 0.963341 -0.088084
C64   C     C_R   0.520614 0.157760 0.877037 -0.116416
C65   C     C_R   0.611771 0.131095 0.880051 -0.068765
C66   C     C_R   0.655030 0.116245 0.969791 -0.071253
C67   C     C_R   0.363843 0.191825 0.320015 -0.075173
C68   C     C_R   0.607445 0.129389 0.056667 -0.102144
C69   C     C_R   0.485144 0.845393 0.945066 0.038880
C70   C     C_R   0.392618 0.870630 0.943377 -0.102138
C71   C     C_R   0.345057 0.883753 0.030271 -0.071263
C72   C     C_R   0.388332 0.868840 0.119990 -0.068821
C73   C     C_R   0.479484 0.842145 0.122966 -0.116456
C74   C     C_R   0.527841 0.832612 0.036650 -0.088095
C75   C     C_R   0.636159 0.808153 0.679958 -0.075144
C76   C     C_R   0.443546 0.121689 0.320811 0.022651
Cu1   Cu    Cu3+1 0.500010 0.499980 0.597420 0.968497
Cu2   Cu    Cu3+1 0.499990 0.500020 0.402580 0.968527
F1    F     F_    0.759266 0.712243 0.482611 -0.635389
F2    F     F_    0.240736 0.287771 0.517379 -0.635385
F3    F     F_    0.271176 0.612414 0.097136 -0.659210
F4    F     F_    0.728827 0.387596 0.902863 -0.659205
F5    F     F_    0.101891 0.168371 0.507236 -0.584346
F6    F     F_    0.898108 0.831647 0.492807 -0.584325
H1    H     H_    0.463702 0.884319 0.350406 0.126731
H2    H     H_    0.066365 0.813674 0.496829 0.178742
H3    H     H_    0.359776 0.290538 0.086479 0.114577
H4    H     H_    0.640260 0.709421 0.913486 0.114577
H5    H     H_    0.273594 0.307179 0.236067 0.145201
H6    H     H_    0.726404 0.692768 0.763879 0.145216
H7    H     H_    0.325180 0.201572 0.385526 0.186784
H8    H     H_    0.674805 0.798395 0.614438 0.186874
H9    H     H_    0.552092 0.050824 0.235281 0.088924
H10   H     H_    0.447927 0.949148 0.764725 0.088894
H11   H     H_    0.787996 0.222243 0.647547 0.136822
H12   H     H_    0.536300 0.115682 0.649603 0.126699
H13   H     H_    0.734719 0.012118 0.630471 0.125950
H14   H     H_    0.689252 0.934707 0.467683 0.187185
H15   H     H_    0.693964 0.070032 0.323108 0.104604
H16   H     H_    0.748819 0.280003 0.338743 0.105774
H17   H     H_    0.251470 0.719976 0.661118 0.105757
H18   H     H_    0.306290 0.929983 0.676656 0.104635
H19   H     H_    0.310703 0.065369 0.532071 0.187240
H20   H     H_    0.264972 0.987990 0.369366 0.126020
H21   H     H_    0.211717 0.777837 0.352382 0.136868
H22   H     H_    0.401200 0.182896 0.957390 0.105862
H23   H     H_    0.631890 0.426895 0.753990 0.174851
H24   H     H_    0.486844 0.169942 0.807701 0.111697
H25   H     H_    0.648870 0.122450 0.812884 0.118659
H26   H     H_    0.725933 0.096840 0.972155 0.137942
H27   H     H_    0.643954 0.122323 0.124688 0.089990
H28   H     H_    0.356089 0.877746 0.875374 0.090026
H29   H     H_    0.274159 0.903198 0.027940 0.137940
H30   H     H_    0.351244 0.877456 0.187166 0.118662
H31   H     H_    0.513265 0.829888 0.192275 0.111757
H32   H     H_    0.598881 0.817023 0.042577 0.105860
H33   H     H_    0.368108 0.573101 0.246010 0.174866
H34   H     H_    0.367900 0.573036 0.752754 0.122503
H35   H     H_    0.632103 0.426972 0.247246 0.122530
H36   H     H_    0.287200 0.605506 0.908323 0.131636
H37   H     H_    0.712808 0.394516 0.091676 0.131620
H38   H     H_    0.933628 0.186346 0.503198 0.178747
N1    N     N_R   0.499960 0.499900 0.743810 -0.251115
N2    N     N_R   0.500040 0.500100 0.256190 -0.251122
O1    O     O_R   0.500000 0.319630 0.582270 -0.505915
O2    O     O_R   0.500000 0.680370 0.417730 -0.505928
O3    O     O_R   0.499990 0.319660 0.417730 -0.491913
O4    O     O_R   0.500010 0.680340 0.582270 -0.491944
O5    O     O_R   0.370260 0.499960 0.582280 -0.500481
O6    O     O_R   0.629740 0.500040 0.417720 -0.500466
O7    O     O_R   0.370250 0.499990 0.417740 -0.515600
O8    O     O_R   0.629750 0.500010 0.582260 -0.515630

loop_
_geom_bond_atom_site_label_1
_geom_bond_atom_site_label_2
_ccdc_geom_bond_type
C51   H13   S    
C6    C69   S    
C66   C68   A    
C22   C29   A    
C40   C47   A    
C73   C74   A    
C8    C56   A    
C20   H34   S    
C39   C41   A    
C38   C49   S    
Cu1   Cu2   S    
C53   H15   S    
C23   F5    S    
C7    C45   A    
C35   C37   A    
C1    O1    A    
C11   C14   A    
C50   H11   S    
C12   O2    A    
C49   C54   A    
C34   F6    S    
C72   H30   S    
C35   F2    S    
C33   C36   A    
C71   H29   S    
C52   H14   S    
C32   F4    S    
C16   O7    A    
C18   H23   S    
C20   N1    A    
C9    H1    S    
C7    H3    S    
C22   C25   A    
C45   C67   A    
C70   C71   A    
C58   H18   S    
C17   C36   S    
Cu2   N2    S    
C16   C37   S    
C40   C42   A    
C15   C76   S    
C17   O6    A    
C59   C60   A    
C56   C75   A    
C17   O8    A    
C41   C43   A    
C54   H16   S    
C42   C44   A    
Cu2   O3    S    
C64   H24   S    
C29   H36   S    
C39   C55   S    
C19   N2    A    
C23   C47   A    
C51   C52   A    
C34   C44   A    
C4    C6    A    
C10   C14   A    
C5    C7    A    
C33   F1    S    
C47   H38   S    
C6    C8    A    
C25   C26   A    
C53   C54   A    
C60   C61   A    
C8    H4    S    
C68   H27   S    
C2    C4    A    
Cu2   O7    S    
C62   C63   A    
Cu1   N1    S    
C30   H37   S    
C10   H12   S    
C74   H32   S    
C67   H7    S    
C50   C51   A    
C69   C74   A    
C3    H9    S    
Cu1   O5    S    
C66   H26   S    
C63   H22   S    
C16   O5    A    
C9    C11   A    
C65   H25   S    
Cu1   O4    S    
C70   H28   S    
C75   H8    S    
C4    H10   S    
C20   C22   A    
C49   C50   A    
C55   C57   A    
C13   C15   A    
C19   C28   A    
C48   H2    S    
C58   C59   A    
C1    C13   S    
C42   C43   A    
Cu2   O2    S    
Cu1   O1    S    
C52   C53   A    
C21   H35   S    
C45   H5    S    
C27   C32   A    
C33   C44   A    
C28   C31   A    
C18   C27   A    
C1    O3    A    
C24   C26   A    
C72   C73   A    
C3    C5    A    
C10   C13   A    
C73   H31   S    
C11   C12   S    
C12   O4    A    
C25   C27   A    
C57   H17   S    
C18   N1    A    
C26   C28   A    
C31   F3    S    
C62   C68   A    
C59   H19   S    
C64   C65   A    
C21   N2    A    
C36   C38   A    
C9    C15   A    
C71   C72   A    
C29   C31   A    
C30   C32   A    
C57   C58   A    
C38   C40   A    
C55   C61   A    
C56   H6    S    
C61   H21   S    
C41   C48   A    
C5    C62   S    
Cu2   O6    S    
C69   C70   A    
C2    C14   S    
C43   C46   A    
C24   C30   A    
C63   C64   A    
C34   C48   A    
C19   H33   S    
C37   C39   A    
C65   C66   A    
C21   C24   A    
C23   C46   A    
C3    C76   A    
C67   C76   A    
C60   H20   S    
C35   C46   A    
Cu1   O8    S    
C2    C75   A    
