data_mof_unit_66274.cif
_audit_creation_date              2012-10-26T20:59:51-0400
_audit_creation_method            fapswitch 2.2
_symmetry_space_group_name_H-M    P1
_symmetry_Int_Tables_number       1
_space_group_crystal_system       triclinic
_cell_length_a                    14.427967
_cell_length_b                    13.151435
_cell_length_c                    10.758224
_cell_angle_alpha                 90.383204
_cell_angle_beta                  90.011327
_cell_angle_gamma                 89.999817
_cell_volume                      2041.31084955

loop_
_atom_site_label
_atom_site_type_symbol
_atom_type_description
_atom_site_fract_x
_atom_site_fract_y
_atom_site_fract_z
_atom_type_partial_charge
C1    C     C_R   0.328734 0.500000 0.500000 0.559900
C2    C     C_3   0.575866 0.452390 0.957852 -0.053874
C3    C     C_3   0.500022 0.596799 0.961759 -0.043210
C4    C     C_3   0.499978 0.403201 0.038241 -0.043210
C5    C     C_3   0.424131 0.452421 0.957770 -0.053861
C6    C     C_3   0.575869 0.547579 0.042230 -0.053861
C7    C     C_3   0.500020 0.501490 0.877578 -0.029551
C8    C     C_3   0.499980 0.498510 0.122422 -0.029551
C9    C     C_1   0.500000 0.173644 0.499988 0.163333
C10   C     C_1   0.500000 0.826356 0.500012 0.163333
C11   C     C_1   0.227156 0.500000 0.500000 -0.009059
C12   C     C_R   0.671266 0.500000 0.500000 0.559900
C13   C     C_1   0.772844 0.500000 0.499999 -0.009059
C14   C     C_1   0.142332 0.500000 0.500000 -0.005660
C15   C     C_1   0.857668 0.500000 0.499999 -0.005660
C16   C     C_1   0.341225 0.400993 0.909068 0.224899
C17   C     C_1   0.658775 0.599007 0.090931 0.224899
C18   C     C_1   0.341230 0.599073 0.090758 0.224888
C19   C     C_1   0.658770 0.400927 0.909242 0.224888
C20   C     C_1   0.500048 0.702813 0.919571 0.246728
C21   C     C_1   0.499951 0.297187 0.080428 0.246728
C22   C     C_1   0.042414 0.500000 0.500000 0.032414
C23   C     C_1   0.957586 0.500000 0.500000 0.032414
C24   C     C_1   0.500000 0.050681 0.499993 -0.007657
C25   C     C_1   0.500000 0.949319 0.500007 -0.007657
C26   C     C_R   0.499966 0.499529 0.256910 0.567413
C27   C     C_R   0.500034 0.500471 0.743090 0.567413
C28   C     C_3   0.424134 0.547610 0.042148 -0.053874
Cu1   Cu    Cu3+1 0.500000 0.592680 0.500000 1.036562
Cu2   Cu    Cu3+1 0.500000 0.407320 0.500000 1.036562
N1    N     N_1   0.500000 0.268070 0.500000 -0.158082
N2    N     N_1   0.500000 0.731930 0.500000 -0.158082
N3    N     N_1   0.275953 0.360535 0.870554 -0.259298
N4    N     N_1   0.724047 0.639465 0.129446 -0.259298
N5    N     N_1   0.275960 0.639558 0.129201 -0.259275
N6    N     N_1   0.724040 0.360442 0.870799 -0.259275
N7    N     N_1   0.500069 0.786282 0.886266 -0.255399
N8    N     N_1   0.499931 0.213718 0.113734 -0.255399
O1    O     O_R   0.376050 0.578280 0.500000 -0.473905
O2    O     O_R   0.623950 0.421720 0.500000 -0.473905
O3    O     O_R   0.623950 0.578280 0.500000 -0.473894
O4    O     O_R   0.376050 0.421720 0.500000 -0.473895
O5    O     O_R   0.499980 0.578250 0.316850 -0.484669
O6    O     O_R   0.500020 0.421750 0.683150 -0.484668
O7    O     O_R   0.500020 0.578250 0.683150 -0.488745
O8    O     O_R   0.499980 0.421750 0.316850 -0.488745

loop_
_geom_bond_atom_site_label_1
_geom_bond_atom_site_label_2
_ccdc_geom_bond_type
C12   O2    A    
C2    C4    S    
C9    C24   S    
Cu1   Cu2   S    
C4    C21   S    
C16   N3    T    
C5    C28   S    
C8    C26   S    
C18   N5    T    
C7    C27   S    
C2    C7    S    
C1    C11   S    
Cu2   N1    S    
C4    C8    S    
C3    C6    S    
C27   O7    A    
C15   C23   S    
Cu2   O2    S    
C3    C20   S    
C24   C25   T    
C20   N7    T    
Cu2   O6    S    
C2    C6    S    
C10   C25   S    
C3    C28   S    
C26   O5    A    
Cu1   N2    S    
C3    C7    S    
C19   N6    T    
C13   C15   T    
C14   C22   S    
C8    C28   S    
C11   C14   T    
C17   N4    T    
C1    O1    A    
C10   N2    T    
C1    O4    A    
C18   C28   S    
C12   C13   S    
C12   O3    A    
Cu1   O1    S    
C5    C7    S    
C6    C17   S    
C9    N1    T    
C22   C23   T    
Cu2   O4    S    
C5    C16   S    
C6    C8    S    
Cu1   O3    S    
C2    C19   S    
C26   O8    A    
C27   O6    A    
Cu2   O8    S    
Cu1   O5    S    
C21   N8    T    
Cu1   O7    S    
C4    C5    S    
