data_mof_unit_67981.cif
_audit_creation_date              2012-12-10T20:52:10-0500
_audit_creation_method            fapswitch 2.2
_symmetry_space_group_name_H-M    P1
_symmetry_Int_Tables_number       1
_space_group_crystal_system       triclinic
_cell_length_a                    10.867088
_cell_length_b                    8.962069
_cell_length_c                    8.373621
_cell_angle_alpha                 91.838637
_cell_angle_beta                  93.308373
_cell_angle_gamma                 91.667343
_cell_volume                      813.350468361

loop_
_atom_site_label
_atom_site_type_symbol
_atom_type_description
_atom_site_fract_x
_atom_site_fract_y
_atom_site_fract_z
_atom_type_partial_charge
C1    C     C_R   0.499453 0.218973 0.498359 0.910367
C2    C     C_R   0.499121 0.780973 0.501621 0.927957
C3    C     C_R   0.871807 0.474185 0.509778 -0.059180
C4    C     C_R   0.124635 0.500059 0.492372 -0.119840
C5    C     C_R   0.945394 0.520555 0.644202 0.025113
C6    C     C_R   0.050372 0.430654 0.366112 0.038274
C7    C     C_1   0.498741 0.065261 0.497793 -0.208843
C8    C     C_1   0.498529 0.934678 0.502427 -0.205549
C9    C     C_R   0.259356 0.502224 0.496280 0.848624
C10   C     C_R   0.739233 0.489918 0.503477 0.877531
C11   C     C_R   0.210262 0.545048 0.015769 0.163121
C12   C     C_R   0.789931 0.291332 0.935245 0.167091
C13   C     C_R   0.135313 0.551379 0.142979 -0.064178
C14   C     C_R   0.863441 0.329525 0.812588 -0.163214
C15   C     C_R   0.091841 0.419667 0.205974 0.027351
C16   C     C_R   0.903369 0.478580 0.797359 0.050825
C17   C     C_R   0.093245 0.283847 0.119727 -0.236879
C18   C     C_R   0.883086 0.586693 0.913975 -0.257208
C19   C     C_R   0.154389 0.277071 0.978325 0.511693
C20   C     C_R   0.812306 0.549296 0.041028 0.494748
C21   C     C_R   0.225480 0.403748 0.940387 -0.302790
C22   C     C_R   0.760820 0.403014 0.044742 -0.197030
C23   C     C_R   0.926214 0.408196 0.381992 -0.185781
C24   C     C_R   0.069706 0.546442 0.630778 -0.280651
H1    H     H_    0.296005 0.385869 0.860561 0.198093
H2    H     H_    0.703725 0.369408 0.137344 0.189849
H3    H     H_    0.125670 0.656024 0.208857 0.151680
H4    H     H_    0.883368 0.245492 0.722502 0.127882
H5    H     H_    0.050467 0.183897 0.164177 0.139662
H6    H     H_    0.921572 0.698586 0.905251 0.131645
H7    H     H_    0.872092 0.343756 0.292776 0.135474
H8    H     H_    0.124457 0.590551 0.732186 0.194759
N1    N     N_1   0.500020 0.500030 0.073640 -0.093498
N2    N     N_1   0.499980 0.499970 0.926360 -0.100180
O1    O     O_R   0.499990 0.285340 0.636850 -0.633225
O2    O     O_R   0.500010 0.714660 0.363150 -0.626865
O3    O     O_R   0.500010 0.285350 0.363100 -0.627813
O4    O     O_R   0.499990 0.714650 0.636900 -0.626560
O5    O     O_R   0.316750 0.500000 0.636870 -0.670257
O6    O     O_R   0.683250 0.500000 0.363130 -0.597126
O7    O     O_R   0.316770 0.500020 0.363120 -0.605372
O8    O     O_R   0.683230 0.499980 0.636880 -0.613843
Zn1   Zn    Zn3+2 0.499990 0.499990 0.682780 0.921350
Zn2   Zn    Zn3+2 0.500010 0.500010 0.317220 0.945510
C25   C     C_3   0.283510 0.684904 0.978148 -0.455657
C26   C     C_3   0.207383 0.824398 0.965547 -0.832468
H9    H     H_    0.123460 0.804536 0.885611 0.263350
H10   H     H_    0.180630 0.865116 0.084814 0.260828
H11   H     H_    0.266435 0.912765 0.916669 0.299910
H12   H     H_    0.355484 0.709006 0.075589 0.239562
H13   H     H_    0.328894 0.670293 0.864532 0.258470
C27   C     C_3   0.753005 0.130191 0.957246 -0.449491
C28   C     C_3   0.614721 0.105312 0.975284 -0.832872
H14   H     H_    0.590991 0.983908 0.968000 0.237046
H15   H     H_    0.587930 0.150261 0.092786 0.260885
H16   H     H_    0.560454 0.159331 0.879142 0.297154
H17   H     H_    0.780264 0.058807 0.854866 0.208008
H18   H     H_    0.804746 0.093501 0.066114 0.203275
O9    O     O_3   0.152483 0.141780 0.891598 -0.634554
C29   C     C_3   0.158460 0.161991 0.725000 0.085364
H19   H     H_    0.255719 0.180868 0.694510 0.166158
H20   H     H_    0.102479 0.256602 0.684844 0.159298
C30   C     C_3   0.106829 0.023529 0.631067 -0.875311
H21   H     H_    0.096178 0.047888 0.501825 0.212075
H22   H     H_    0.170724 0.929893 0.644872 0.255467
H23   H     H_    0.015156 0.990175 0.672911 0.258504
O10   O     O_3   0.815307 0.642239 0.175845 -0.603189
C31   C     C_3   0.750744 0.773081 0.145594 0.149647
H24   H     H_    0.650600 0.746192 0.124212 0.168038
H25   H     H_    0.784338 0.831301 0.040829 0.112349
C32   C     C_3   0.770169 0.877906 0.292320 -0.815741
H26   H     H_    0.708407 0.973871 0.281444 0.211182
H27   H     H_    0.749732 0.818070 0.402193 0.258798
H28   H     H_    0.867479 0.920239 0.304183 0.231196

loop_
_geom_bond_atom_site_label_1
_geom_bond_atom_site_label_2
_ccdc_geom_bond_type
C19   C21   A    
C32   H28   S    
C30   H22   S    
C28   H14   S    
C7    C8    T    
C18   H6    S    
C10   O6    A    
C10   O8    A    
O1    Zn1   S    
C16   C18   A    
C2    O4    A    
C20   O10   S    
C3    C23   A    
C1    O3    A    
C26   H10   S    
C14   H4    S    
C32   H26   S    
O3    Zn2   S    
C28   H15   S    
N1    N2    T    
C4    C9    S    
C30   H23   S    
O9    C29   S    
C3    C10   S    
C25   C26   S    
C29   H20   S    
C11   C13   A    
C26   H11   S    
C27   H17   S    
C5    C24   A    
C27   H18   S    
C25   H12   S    
C29   H19   S    
C31   C32   S    
C6    C23   A    
C4    C6    A    
C12   C27   S    
C12   C14   A    
C18   C20   A    
C13   C15   A    
C4    C24   A    
O7    Zn2   S    
C14   C16   A    
C11   C25   S    
O2    Zn2   S    
O8    Zn1   S    
C25   H13   S    
C17   C19   A    
C30   H21   S    
C29   C30   S    
C12   C22   A    
C32   H27   S    
O6    Zn2   S    
C17   H5    S    
C27   C28   S    
C1    O1    A    
C31   H25   S    
C22   H2    S    
C28   H16   S    
C2    O2    A    
C24   H8    S    
C15   C17   A    
C21   H1    S    
C26   H9    S    
C13   H3    S    
C5    C16   S    
O5    Zn1   S    
C19   O9    S    
C6    C15   S    
C1    C7    S    
N1    Zn2   S    
C9    O7    A    
N2    Zn1   S    
C11   C21   A    
C9    O5    A    
C2    C8    S    
O4    Zn1   S    
O10   C31   S    
C20   C22   A    
C31   H24   S    
C3    C5    A    
C23   H7    S    
