data_mof_unit_28973.cif
_audit_creation_date              2012-12-10T18:06:49-0500
_audit_creation_method            fapswitch 2.2
_symmetry_space_group_name_H-M    P1
_symmetry_Int_Tables_number       1
_space_group_crystal_system       triclinic
_cell_length_a                    12.619485
_cell_length_b                    13.166287
_cell_length_c                    15.462826
_cell_angle_alpha                 83.502183
_cell_angle_beta                  98.853398
_cell_angle_gamma                 96.621064
_cell_volume                      2509.68906843

loop_
_atom_site_label
_atom_site_type_symbol
_atom_type_description
_atom_site_fract_x
_atom_site_fract_y
_atom_site_fract_z
_atom_type_partial_charge
C1    C     C_R   0.445138 0.308196 0.513462 0.859595
C2    C     C_R   0.683523 0.555240 0.925221 0.099637
C3    C     C_R   0.571060 0.534407 0.897008 0.034230
C4    C     C_R   0.435974 0.514928 0.335949 0.863038
C5    C     C_R   0.756025 0.548069 0.865964 -0.210759
C6    C     C_R   0.717786 0.523270 0.781032 -0.257937
C7    C     C_R   0.536671 0.487687 0.818440 0.137733
C8    C     C_R   0.730228 0.927289 0.559748 -0.200860
C9    C     C_R   0.595151 0.798334 0.500500 -0.049713
C10   C     C_R   0.302198 0.163714 0.506626 -0.196462
C11   C     C_R   0.269474 0.059345 0.502945 0.262888
C12   C     C_R   0.453020 0.564689 0.095186 0.109195
C13   C     C_R   0.347487 0.990536 0.511282 -0.210553
C14   C     C_R   0.458803 0.024815 0.527494 0.037742
C15   C     C_R   0.489572 0.127125 0.545758 0.079485
C16   C     C_R   0.557025 0.691332 0.491827 0.862966
C17   C     C_R   0.540720 0.960654 0.526483 0.093355
C18   C     C_R   0.649627 0.992755 0.558360 0.174509
C19   C     C_R   0.675930 0.088980 0.589385 -0.258465
C20   C     C_R   0.596916 0.155585 0.583185 -0.181443
C21   C     C_R   0.517248 0.866243 0.492190 -0.258218
C22   C     C_R   0.702712 0.829283 0.532233 -0.202553
C23   C     C_R   0.343594 0.573432 0.059769 0.178705
C24   C     C_R   0.412032 0.198249 0.525255 -0.163597
C25   C     C_R   0.141142 0.642016 0.625953 0.115513
C26   C     C_R   0.763166 0.374331 0.399593 0.354553
C27   C     C_R   0.861113 0.347131 0.384435 -0.255980
C28   C     C_R   0.564785 0.487544 0.663876 0.858196
C29   C     C_R   0.955394 0.394832 0.423830 -0.256400
C30   C     C_R   0.953920 0.471893 0.479546 0.039462
C31   C     C_R   0.853136 0.496209 0.496439 0.197701
C32   C     C_R   0.049376 0.523096 0.520554 -0.035911
C33   C     C_R   0.044695 0.594109 0.582512 0.171548
C34   C     C_R   0.531627 0.568745 0.038666 0.029284
C35   C     C_R   0.944067 0.615086 0.599385 -0.295310
C36   C     C_R   0.850262 0.567469 0.556387 -0.226612
C37   C     C_R   0.150296 0.506046 0.501664 -0.082748
C38   C     C_R   0.238489 0.618012 0.605583 -0.018916
C39   C     C_R   0.401539 0.535372 0.241519 -0.059490
C40   C     C_R   0.607857 0.494773 0.756441 -0.060634
C41   C     C_R   0.265524 0.569069 0.115973 -0.208272
C42   C     C_R   0.294470 0.550356 0.206701 -0.195428
C43   C     C_R   0.479575 0.543596 0.185766 -0.267875
C44   C     C_3   0.152073 0.020968 0.486414 -0.932785
C45   C     C_R   0.496600 0.557781 0.949311 0.067510
C46   C     C_3   0.434900 0.413420 0.807754 -0.884607
C47   C     C_3   0.142593 0.716901 0.693189 -0.970252
C48   C     C_3   0.666515 0.313964 0.352974 -0.839315
C49   C     C_3   0.837818 0.604395 0.047601 -0.422044
C50   C     C_3   0.880420 0.713578 0.016514 -0.861295
C51   C     C_R   0.389240 0.574779 0.914040 -0.208448
C52   C     C_R   0.313871 0.584056 0.968789 -0.246686
C53   C     C_R   0.643312 0.583809 0.068323 -0.280863
C54   C     C_R   0.719543 0.581712 0.011821 0.170412
H1    H     H_    0.231482 0.594688 0.940107 0.147528
H2    H     H_    0.314460 0.652238 0.637588 0.143989
H3    H     H_    0.936496 0.668628 0.645749 0.165868
H4    H     H_    0.162511 0.458077 0.453035 0.134773
H5    H     H_    0.027490 0.366999 0.410462 0.145017
H6    H     H_    0.864549 0.287634 0.342079 0.160003
H7    H     H_    0.776513 0.586773 0.572600 0.210431
H8    H     H_    0.774391 0.527055 0.734533 0.169691
H9    H     H_    0.181964 0.577574 0.089679 0.135835
H10   H     H_    0.233071 0.545751 0.249208 0.157415
H11   H     H_    0.560572 0.528253 0.213560 0.167098
H12   H     H_    0.841988 0.565613 0.882703 0.156551
H13   H     H_    0.363448 0.582891 0.843875 0.166270
H14   H     H_    0.672667 0.604057 0.134155 0.151214
H15   H     H_    0.099853 0.084508 0.480654 0.237054
H16   H     H_    0.134945 0.983197 0.424397 0.244911
H17   H     H_    0.131430 0.964268 0.541627 0.243935
H18   H     H_    0.409498 0.384160 0.872380 0.244234
H19   H     H_    0.367583 0.449747 0.765495 0.253818
H20   H     H_    0.450249 0.344954 0.777377 0.231801
H21   H     H_    0.100286 0.784260 0.662476 0.248438
H22   H     H_    0.102319 0.678783 0.748997 0.245487
H23   H     H_    0.764138 0.776791 0.539268 0.153251
H24   H     H_    0.226154 0.745445 0.720019 0.243762
H25   H     H_    0.673091 0.318999 0.281727 0.199879
H26   H     H_    0.665463 0.231931 0.379689 0.225744
H27   H     H_    0.588091 0.338028 0.356308 0.288278
H28   H     H_    0.871737 0.725651 0.943684 0.256318
H29   H     H_    0.835638 0.770004 0.040596 0.266302
H30   H     H_    0.967132 0.727569 0.043163 0.246401
H31   H     H_    0.849927 0.596626 0.120737 0.207341
H32   H     H_    0.886578 0.547556 0.028902 0.194461
H33   H     H_    0.757940 0.113598 0.616834 0.151452
H34   H     H_    0.813471 0.950548 0.584779 0.137989
H35   H     H_    0.437427 0.842249 0.460436 0.151975
H36   H     H_    0.242119 0.218154 0.493052 0.156834
H37   H     H_    0.318979 0.910396 0.507498 0.147228
H38   H     H_    0.620614 0.228882 0.609378 0.174437
N1    N     N_R   0.239390 0.551900 0.544730 -0.123309
N2    N     N_R   0.759950 0.448600 0.455730 -0.132559
O1    O     O_R   0.374950 0.371210 0.521360 -0.610267
O2    O     O_R   0.542050 0.338030 0.492790 -0.617530
O3    O     O_R   0.368720 0.526070 0.390200 -0.613516
O4    O     O_R   0.535820 0.492890 0.361630 -0.625731
O5    O     O_R   0.457950 0.661970 0.507210 -0.612560
O6    O     O_R   0.625050 0.628790 0.478640 -0.631379
O7    O     O_R   0.464180 0.507110 0.638370 -0.603863
O8    O     O_R   0.631280 0.473930 0.609800 -0.642065
Zn1   Zn    Zn3+2 0.388420 0.522150 0.519080 0.932613
Zn2   Zn    Zn3+2 0.611580 0.477850 0.480920 0.920326

loop_
_geom_bond_atom_site_label_1
_geom_bond_atom_site_label_2
_ccdc_geom_bond_type
C26   N2    A    
O5    Zn1   S    
C4    O4    A    
C27   C29   A    
C41   C42   A    
C19   C20   A    
C9    C21   A    
N1    Zn1   S    
C50   H30   S    
C21   H35   S    
C53   C54   A    
C20   H38   S    
C12   C23   A    
C26   C27   A    
C48   H25   S    
C9    C16   S    
C47   H22   S    
C12   C43   A    
C19   H33   S    
C27   H6    S    
C30   C31   A    
C9    C22   A    
C28   C40   S    
C49   C54   S    
O6    Zn2   S    
C48   H27   S    
C44   H17   S    
C18   C19   A    
C53   H14   S    
C28   O7    A    
C29   H5    S    
C8    C22   A    
C7    C40   A    
C44   H16   S    
C25   C47   S    
C46   H18   S    
C37   H4    S    
C52   H1    S    
C43   H11   S    
N2    Zn2   S    
O7    Zn1   S    
C13   C14   A    
C13   H37   S    
C14   C17   A    
O1    Zn1   S    
C50   H29   S    
C39   C42   A    
C15   C20   A    
C51   C52   A    
C7    C46   S    
C49   H31   S    
C44   H15   S    
C2    C54   A    
C16   O6    A    
C39   C43   A    
C10   C24   A    
C3    C45   A    
C8    C18   A    
C8    H34   S    
C35   C36   A    
C29   C30   A    
C25   C38   A    
C4    C39   S    
C1    O1    A    
C17   C18   A    
C37   N1    A    
C11   C44   S    
C34   C45   A    
C51   H13   S    
C32   C37   A    
O8    Zn2   S    
O3    Zn1   S    
C34   C53   A    
C15   C24   A    
O2    Zn2   S    
C6    C40   A    
C2    C5    A    
C41   H9    S    
C12   C34   A    
C36   H7    S    
C42   H10   S    
C46   H20   S    
C50   H28   S    
C31   C36   A    
C49   H32   S    
C22   H23   S    
C5    H12   S    
C16   O5    A    
C26   C48   S    
C31   N2    A    
C3    C7    A    
C23   C41   A    
C35   H3    S    
C32   C33   A    
C6    H8    S    
C2    C3    A    
C47   H21   S    
C30   C32   A    
C11   C13   A    
C48   H26   S    
C23   C52   A    
C5    C6    A    
C1    O2    A    
O4    Zn2   S    
C38   N1    A    
C33   C35   A    
C17   C21   A    
C10   C11   A    
C28   O8    A    
C38   H2    S    
C10   H36   S    
C1    C24   S    
C49   C50   S    
C45   C51   A    
C14   C15   A    
C47   H24   S    
C4    O3    A    
C46   H19   S    
C25   C33   A    
