data_mof_unit_49750.cif
_audit_creation_date              2012-12-10T18:11:06-0500
_audit_creation_method            fapswitch 2.2
_symmetry_space_group_name_H-M    P1
_symmetry_Int_Tables_number       1
_space_group_crystal_system       triclinic
_cell_length_a                    10.733651
_cell_length_b                    9.417867
_cell_length_c                    10.617375
_cell_angle_alpha                 90.087954
_cell_angle_beta                  89.949041
_cell_angle_gamma                 90.291998
_cell_volume                      1073.27461998

loop_
_atom_site_label
_atom_site_type_symbol
_atom_type_description
_atom_site_fract_x
_atom_site_fract_y
_atom_site_fract_z
_atom_type_partial_charge
C1    C     C_R   0.259842 0.499439 0.506429 0.835513
C2    C     C_3   0.500404 0.499345 0.122427 0.030079
C3    C     C_3   0.071712 0.619187 0.597697 0.368287
C4    C     C_3   0.069457 0.351136 0.557088 0.376004
C5    C     C_3   0.927316 0.620082 0.593345 -0.426368
C6    C     C_3   0.925590 0.356542 0.557716 -0.440687
C7    C     C_3   0.073422 0.524298 0.374649 -0.584876
C8    C     C_3   0.121581 0.498024 0.510549 0.040758
C9    C     C_3   0.877928 0.500258 0.505976 0.071848
C10   C     C_3   0.929926 0.523119 0.371780 -0.415524
C11   C     C_3   0.597828 0.084459 0.587371 -0.195094
C12   C     C_3   0.597727 0.916781 0.587452 -0.189605
C13   C     C_3   0.379608 0.083208 0.546110 -0.184821
C14   C     C_3   0.379312 0.915912 0.546152 -0.196237
C15   C     C_3   0.524064 0.083528 0.375347 -0.187837
C16   C     C_3   0.524136 0.916350 0.375360 -0.182379
C17   C     C_R   0.500069 0.499807 0.259299 0.785068
C18   C     C_R   0.740025 0.500260 0.502470 0.794529
C19   C     C_R   0.500018 0.500298 0.740796 0.813449
C20   C     C_3   0.405140 0.579188 0.042438 -0.171006
C21   C     C_3   0.487458 0.365931 0.040376 -0.158872
C22   C     C_3   0.392120 0.445939 0.958119 -0.161617
C23   C     C_3   0.500310 0.501307 0.877661 0.030473
C24   C     C_3   0.513249 0.634830 0.959647 -0.141837
C25   C     C_3   0.595735 0.421669 0.957713 -0.177637
C26   C     C_3   0.608594 0.555008 0.042047 -0.176247
Cu1   Cu    Cu3+1 0.499860 0.642410 0.500060 0.894125
Cu2   Cu    Cu3+1 0.499860 0.357590 0.500060 0.903288
H1    H     H_    0.303215 0.403046 0.920470 0.168465
H2    H     H_    0.895788 0.625457 0.332810 0.172886
H3    H     H_    0.896557 0.436840 0.308235 0.170823
H4    H     H_    0.583719 0.123560 0.685181 0.138917
H5    H     H_    0.583281 0.878007 0.685257 0.135924
H6    H     H_    0.691386 0.122746 0.557711 0.133946
H7    H     H_    0.691244 0.879065 0.557974 0.133901
H8    H     H_    0.359153 0.123096 0.642253 0.160432
H9    H     H_    0.357515 0.876274 0.642292 0.132853
H10   H     H_    0.451358 0.120553 0.308606 0.135732
H11   H     H_    0.451489 0.878229 0.308556 0.140462
H12   H     H_    0.614877 0.123636 0.338941 0.136546
H13   H     H_    0.615015 0.877267 0.339031 0.135101
H14   H     H_    0.303302 0.120022 0.483706 0.133627
H15   H     H_    0.302762 0.878621 0.483706 0.132995
H16   H     H_    0.328257 0.644188 0.081500 0.119564
H17   H     H_    0.476830 0.255741 0.075976 0.120984
H18   H     H_    0.523610 0.744954 0.923795 0.117889
H19   H     H_    0.673669 0.357393 0.919700 0.118336
H20   H     H_    0.697065 0.599448 0.079712 0.114453
H21   H     H_    0.107103 0.722480 0.559656 0.032418
H22   H     H_    0.099520 0.268735 0.487790 0.037022
H23   H     H_    0.887728 0.606382 0.689570 0.177268
H24   H     H_    0.888385 0.342732 0.654829 0.173146
H25   H     H_    0.896013 0.725427 0.558513 0.122279
H26   H     H_    0.889964 0.266618 0.499619 0.126267
H27   H     H_    0.108279 0.628377 0.339143 0.183444
H28   H     H_    0.109355 0.440982 0.309771 0.178167
N1    N     N_3   0.500250 0.143650 0.502780 -0.112813
N2    N     N_3   0.500250 0.856350 0.502780 -0.108975
O1    O     O_R   0.317570 0.620260 0.500070 -0.606984
O2    O     O_R   0.317570 0.379740 0.500070 -0.585650
O3    O     O_R   0.499850 0.620240 0.316900 -0.595946
O4    O     O_R   0.499850 0.379760 0.316900 -0.599159
O5    O     O_R   0.682190 0.620260 0.500030 -0.597365
O6    O     O_R   0.682190 0.379740 0.500030 -0.598433
O7    O     O_R   0.499910 0.620280 0.683200 -0.596023
O8    O     O_R   0.499910 0.379720 0.683200 -0.588164
O9    O     O_3   0.113420 0.597450 0.722928 -0.534518
C27   C     C_3   0.113884 0.725301 0.793059 0.061281
H29   H     H_    0.048814 0.807295 0.756050 0.105229
H30   H     H_    0.209770 0.770155 0.793079 0.145588
C28   C     C_3   0.075705 0.692828 0.928008 -0.808830
H31   H     H_    0.134909 0.607358 0.967079 0.253312
H32   H     H_    0.086052 0.789505 0.987145 0.187216
H33   H     H_    0.976923 0.657206 0.930561 0.235554
O10   O     O_3   0.116376 0.319358 0.679035 -0.524559
C29   C     C_3   0.095397 0.175098 0.710775 0.072719
H34   H     H_    0.137100 0.102250 0.640262 0.096161
H35   H     H_    0.994312 0.150527 0.717888 0.123675
C30   C     C_3   0.153354 0.145389 0.838718 -0.833005
H36   H     H_    0.111339 0.215603 0.911199 0.251129
H37   H     H_    0.136261 0.033204 0.865619 0.187005
H38   H     H_    0.255361 0.164659 0.835633 0.234932

loop_
_geom_bond_atom_site_label_1
_geom_bond_atom_site_label_2
_ccdc_geom_bond_type
C7    C10   S    
C22   H1    S    
C1    C8    S    
Cu2   O8    S    
C29   C30   S    
C7    H27   S    
C4    C8    S    
C6    C9    S    
C3    H21   S    
C7    C8    S    
Cu2   N1    S    
C5    H25   S    
C24   C26   S    
C1    O1    A    
C18   O5    A    
C13   N1    S    
C15   C16   S    
C19   O8    A    
C4    O10   S    
Cu1   O3    S    
C17   O3    A    
C10   H3    S    
C20   C24   S    
C27   H29   S    
C23   C24   S    
C13   C14   S    
C9    C10   S    
C25   H19   S    
C26   H20   S    
C12   N2    S    
C21   C22   S    
C2    C17   S    
C15   N1    S    
C7    H28   S    
C6    H26   S    
C13   H14   S    
C20   H16   S    
C21   H17   S    
Cu2   O2    S    
C14   N2    S    
C2    C20   S    
O9    C27   S    
C29   H34   S    
C13   H8    S    
C4    C6    S    
C3    C8    S    
C1    O2    A    
C28   H32   S    
C25   C26   S    
C4    H22   S    
C19   C23   S    
O10   C29   S    
C15   H10   S    
C5    C9    S    
Cu1   O7    S    
C17   O4    A    
C30   H38   S    
C10   H2    S    
C2    C21   S    
C2    C26   S    
C16   N2    S    
C12   H7    S    
Cu1   O5    S    
Cu2   O6    S    
C20   C22   S    
C11   H4    S    
C30   H37   S    
C21   C25   S    
C11   H6    S    
C3    O9    S    
C29   H35   S    
C3    C5    S    
Cu1   N2    S    
C28   H33   S    
C11   C12   S    
C24   H18   S    
C28   H31   S    
Cu1   O1    S    
C14   H9    S    
C18   O6    A    
C27   C28   S    
C19   O7    A    
C23   C25   S    
C15   H12   S    
C16   H11   S    
C30   H36   S    
C9    C18   S    
C27   H30   S    
Cu1   Cu2   S    
C22   C23   S    
C5    H23   S    
C6    H24   S    
C12   H5    S    
C11   N1    S    
C16   H13   S    
C14   H15   S    
Cu2   O4    S    
