data_mof_unit_49441.cif
_audit_creation_date              2012-12-11T14:42:17-0500
_audit_creation_method            fapswitch 2.2
_symmetry_space_group_name_H-M    P1
_symmetry_Int_Tables_number       1
_space_group_crystal_system       triclinic
_cell_length_a                    18.93437
_cell_length_b                    11.011383
_cell_length_c                    18.811967
_cell_angle_alpha                 90.060735
_cell_angle_beta                  89.811601
_cell_angle_gamma                 90.054172
_cell_volume                      3922.14957436

loop_
_atom_site_label
_atom_site_type_symbol
_atom_type_description
_atom_site_fract_x
_atom_site_fract_y
_atom_site_fract_z
_atom_type_partial_charge
C1    C     C_R   0.727557 0.952679 0.852692 0.543600
C2    C     C_R   0.249771 0.394614 0.919442 -0.029498
C3    C     C_2   0.992316 0.433431 0.579550 0.614421
C4    C     C_R   0.257525 0.911745 0.075426 -0.017693
C5    C     C_R   0.750244 0.893948 0.919085 -0.026042
C6    C     C_R   0.795173 0.310478 0.044709 0.040706
C7    C     C_R   0.205218 0.310443 0.955117 0.037090
C8    C     C_R   0.311674 0.858870 0.033345 0.027081
C9    C     C_R   0.706170 0.808812 0.954379 0.041860
C10   C     C_R   0.782745 0.283738 0.973935 -0.149516
C11   C     C_R   0.217586 0.283489 0.025835 -0.151769
C12   C     C_R   0.307887 0.870080 0.960552 -0.161774
C13   C     C_R   0.273287 0.954271 0.146822 0.548871
C14   C     C_R   0.717799 0.782822 0.025425 -0.150476
C15   C     C_R   0.726099 0.335612 0.937425 -0.001235
C16   C     C_R   0.273790 0.336305 0.062684 -0.004019
C17   C     C_R   0.244301 0.901878 0.927815 0.007812
C18   C     C_R   0.773910 0.835848 0.062460 -0.002211
C19   C     C_R   0.472586 0.270995 0.545145 -0.162159
C20   C     C_R   0.469929 0.274126 0.472698 -0.160827
C21   C     C_R   0.976464 0.770484 0.543756 -0.157348
C22   C     C_R   0.976678 0.774152 0.471410 -0.156090
C23   C     C_R   0.486757 0.170649 0.432228 -0.004692
C24   C     C_R   0.227423 0.452899 0.852826 0.552071
C25   C     C_R   0.489347 0.163102 0.579460 -0.002802
C26   C     C_R   0.987920 0.668341 0.431312 -0.005787
C27   C     C_R   0.991650 0.662358 0.578574 -0.001120
C28   C     C_R   0.503071 0.059521 0.466357 0.015840
C29   C     C_R   0.491211 0.052566 0.540912 0.022353
C30   C     C_R   0.997612 0.555036 0.465668 0.015117
C31   C     C_R   0.994163 0.551056 0.540572 0.019119
C32   C     C_R   0.798568 0.329320 0.530957 -0.106945
C33   C     C_R   0.205137 0.321364 0.470502 -0.096931
C34   C     C_R   0.292666 0.817408 0.528903 -0.099604
C35   C     C_R   0.772600 0.452730 0.147229 0.543924
C36   C     C_R   0.711849 0.809562 0.472510 -0.089306
C37   C     C_R   0.799558 0.337053 0.458164 -0.116561
C38   C     C_R   0.204447 0.330206 0.543354 -0.107991
C39   C     C_R   0.294478 0.828822 0.456202 -0.111075
C40   C     C_R   0.709622 0.822848 0.545204 -0.105679
C41   C     C_R   0.529709 0.177510 0.850756 0.549614
C42   C     C_R   0.470506 0.177741 0.149405 0.554387
C43   C     C_R   0.029625 0.677576 0.850692 0.560217
C44   C     C_R   0.970298 0.677514 0.149257 0.552295
C45   C     C_R   0.752352 0.414044 0.423165 0.023559
C46   C     C_R   0.688986 0.433720 0.047199 -0.145032
C47   C     C_R   0.248895 0.413094 0.577392 0.021729
C48   C     C_R   0.251275 0.914104 0.422751 0.024073
C49   C     C_R   0.749780 0.913535 0.577698 0.022490
C50   C     C_R   0.698667 0.472611 0.461637 -0.138062
C51   C     C_R   0.300263 0.476354 0.538133 -0.143678
C52   C     C_R   0.201049 0.979279 0.462473 -0.134771
C53   C     C_R   0.797688 0.982688 0.537270 -0.140523
C54   C     C_R   0.695701 0.460620 0.535263 -0.138486
C55   C     C_R   0.302960 0.463675 0.464553 -0.144653
C56   C     C_R   0.198170 0.965705 0.535958 -0.136604
C57   C     C_R   0.310643 0.436141 0.953465 -0.133816
C58   C     C_R   0.800590 0.968005 0.463890 -0.140980
C59   C     C_R   0.746820 0.390845 0.570375 0.035181
C60   C     C_R   0.253949 0.388394 0.430260 0.041546
C61   C     C_R   0.245642 0.887153 0.569634 0.031616
C62   C     C_R   0.755565 0.884264 0.431035 0.034311
C63   C     C_R   0.723309 0.312783 0.860176 0.572081
C64   C     C_R   0.276612 0.312934 0.139785 0.570000
C65   C     C_R   0.236953 0.861508 0.854189 0.575017
C66   C     C_R   0.776625 0.812868 0.139732 0.570852
C67   C     C_R   0.728754 0.954369 0.647993 0.549540
C68   C     C_R   0.195167 0.949849 0.043567 -0.151914
C69   C     C_R   0.271385 0.954518 0.352107 0.548748
C70   C     C_R   0.228740 0.454074 0.648012 0.546910
C71   C     C_R   0.771459 0.454332 0.352138 0.550527
C72   C     C_R   0.527025 0.175254 0.646564 0.574515
C73   C     C_R   0.467987 0.176754 0.357166 0.595282
C74   C     C_R   0.027171 0.675110 0.646579 0.560336
C75   C     C_R   0.968485 0.676313 0.356724 0.570006
C76   C     C_R   0.738709 0.358505 0.644792 0.572945
C77   C     C_R   0.261490 0.357855 0.355489 0.570392
C78   C     C_R   0.238392 0.857357 0.644435 0.558188
C79   C     C_R   0.811045 0.935308 0.953123 -0.145390
C80   C     C_R   0.761947 0.856371 0.355920 0.559640
C81   C     C_2   0.496843 0.167526 0.921002 -0.114135
C82   C     C_2   0.504067 0.169109 0.079476 -0.109585
C83   C     C_2   0.996256 0.668009 0.920696 -0.105948
C84   C     C_2   0.003377 0.667593 0.079124 -0.105901
C85   C     C_2   0.493669 0.071013 0.038595 -0.145640
C86   C     C_2   0.510366 0.071052 0.962435 -0.144082
C87   C     C_2   0.990661 0.570508 0.037803 -0.141409
C88   C     C_2   0.007759 0.570338 0.961728 -0.137964
C89   C     C_R   0.675692 0.403710 0.976550 0.082927
C90   C     C_R   0.750351 0.393867 0.080705 -0.025573
C91   C     C_R   0.323753 0.406307 0.024172 0.087789
C92   C     C_R   0.186340 0.938630 0.970773 0.088031
C93   C     C_R   0.824229 0.904889 0.023715 0.082652
C94   C     C_2   0.858508 0.255318 0.076761 0.611402
C95   C     C_2   0.141956 0.255224 0.922833 0.609137
C96   C     C_2   0.370787 0.785258 0.062114 0.602210
C97   C     C_2   0.644570 0.751026 0.920665 0.613767
C98   C     C_2   0.542399 0.962560 0.426417 0.596868
C99   C     C_2   0.467096 0.938083 0.576857 0.600496
C100  C     C_2   0.012528 0.443625 0.423468 0.618296
Cr1   Cr    Cr6+3 0.769270 0.163730 0.750710 1.027311
Cr2   Cr    Cr6+3 0.385840 0.322500 0.252290 1.078013
Cr3   Cr    Cr6+3 0.114160 0.822500 0.747710 1.083690
Cr4   Cr    Cr6+3 0.885840 0.822500 0.252290 1.083110
Cr5   Cr    Cr6+3 0.230730 0.163730 0.249290 1.026825
Cr6   Cr    Cr6+3 0.269270 0.663730 0.750710 1.030517
Cr7   Cr    Cr6+3 0.730730 0.663730 0.249290 1.030088
Cr8   Cr    Cr6+3 0.612620 0.009790 0.748780 1.086427
Cr9   Cr    Cr6+3 0.387380 0.009790 0.251220 1.085432
Cr10  Cr    Cr6+3 0.112620 0.509790 0.748780 1.094579
Cr11  Cr    Cr6+3 0.887380 0.509790 0.251220 1.087927
Cr12  Cr    Cr6+3 0.614160 0.322500 0.747710 1.081164
H1    H     H_    0.471491 0.989141 0.061171 0.205845
H2    H     H_    0.336065 0.539078 0.563799 0.131131
H3    H     H_    0.166511 0.044432 0.437305 0.132659
H4    H     H_    0.829853 0.052366 0.561678 0.130369
H5    H     H_    0.653707 0.505217 0.564504 0.137625
H6    H     H_    0.342807 0.512618 0.434650 0.129047
H7    H     H_    0.159494 0.016631 0.566278 0.135765
H8    H     H_    0.836978 0.022701 0.432951 0.132377
H9    H     H_    0.528598 0.249935 0.057321 0.152208
H10   H     H_    0.470030 0.246454 0.942828 0.148031
H11   H     H_    0.029773 0.746911 0.057269 0.151775
H12   H     H_    0.535385 0.990568 0.940703 0.209768
H13   H     H_    0.970699 0.747970 0.942761 0.149104
H14   H     H_    0.652397 0.492492 0.075195 0.162385
H15   H     H_    0.346760 0.496507 0.925995 0.170410
H16   H     H_    0.152663 0.986678 0.075727 0.163393
H17   H     H_    0.847358 0.995138 0.925531 0.161938
H18   H     H_    0.819026 0.223159 0.946704 0.165777
H19   H     H_    0.181493 0.222252 0.052828 0.168151
H20   H     H_    0.352322 0.838226 0.929202 0.188197
H21   H     H_    0.681644 0.721518 0.052277 0.163134
H22   H     H_    0.465832 0.355403 0.574097 0.152374
H23   H     H_    0.966090 0.489691 0.059591 0.204669
H24   H     H_    0.455410 0.359840 0.448643 0.157815
H25   H     H_    0.970513 0.855514 0.572274 0.152718
H26   H     H_    0.966291 0.861555 0.447207 0.159293
H27   H     H_    0.837619 0.271878 0.555958 0.156178
H28   H     H_    0.167961 0.259628 0.446009 0.150532
H29   H     H_    0.327850 0.752186 0.553003 0.163788
H30   H     H_    0.678997 0.740247 0.448837 0.161831
H31   H     H_    0.964316 0.234253 0.071719 0.367906
H32   H     H_    0.036149 0.233672 0.927662 0.366921
H33   H     H_    0.472870 0.734574 0.053353 0.376991
H34   H     H_    0.031327 0.488790 0.939729 0.205642
H35   H     H_    0.538670 0.731623 0.920311 0.367391
H36   H     H_    0.595510 0.914882 0.337309 0.351784
H37   H     H_    0.429475 0.858495 0.666079 0.340215
H38   H     H_    0.071152 0.365250 0.346433 0.343335
H39   H     H_    0.947875 0.335210 0.658397 0.336030
H40   H     H_    0.840449 0.288152 0.429746 0.179131
H41   H     H_    0.165742 0.277615 0.572621 0.175421
H42   H     H_    0.332989 0.775975 0.426754 0.156461
H43   H     H_    0.673060 0.767149 0.575366 0.152545
H44   H     H_    0.660856 0.530605 0.435249 0.136184
I1    I     I_    0.577650 0.465981 0.939187 -0.304594
I2    I     I_    0.420206 0.473428 0.063567 -0.282233
I3    I     I_    0.081259 0.967675 0.938234 -0.296571
I4    I     I_    0.922236 0.967207 0.061494 -0.295375
O1    O     O_R   0.784320 0.290430 0.830510 -0.507499
O2    O     O_R   0.456080 0.282180 0.333210 -0.529647
O3    O     O_R   0.043920 0.782180 0.666790 -0.526428
O4    O     O_R   0.956080 0.782180 0.333210 -0.527703
O5    O     O_R   0.679040 0.374160 0.674430 -0.495438
O6    O     O_R   0.320960 0.374160 0.325570 -0.501426
O7    O     O_R   0.179040 0.874160 0.674430 -0.496687
O8    O     O_R   0.820960 0.874160 0.325570 -0.494869
O9    O     O_3   0.665350 0.165340 0.749070 -0.296438
O10   O     O_3   0.334650 0.165340 0.250930 -0.299841
O11   O     O_3   0.165350 0.665340 0.749070 -0.273472
O12   O     O_R   0.215680 0.290430 0.169490 -0.505812
O13   O     O_3   0.834650 0.665340 0.250930 -0.298074
O14   O     O_R   0.762640 0.040960 0.825200 -0.531334
O15   O     O_R   0.237360 0.040960 0.174800 -0.531360
O16   O     O_R   0.262640 0.540960 0.825200 -0.508432
O17   O     O_R   0.737360 0.540960 0.174800 -0.529387
O18   O     O_R   0.667400 0.923970 0.829950 -0.477447
O19   O     O_R   0.332600 0.923970 0.170050 -0.473407
O20   O     O_R   0.167400 0.423970 0.829950 -0.476623
O21   O     O_R   0.832600 0.423970 0.170050 -0.476100
O22   O     O_R   0.553960 0.081340 0.821780 -0.497991
O23   O     O_R   0.284320 0.790430 0.830510 -0.527896
O24   O     O_R   0.446040 0.081340 0.178220 -0.497901
O25   O     O_R   0.053960 0.581340 0.821780 -0.498159
O26   O     O_R   0.946040 0.581340 0.178220 -0.499282
O27   O     O_R   0.543180 0.283240 0.826740 -0.485338
O28   O     O_R   0.456820 0.283240 0.173260 -0.483955
O29   O     O_R   0.043180 0.783240 0.826740 -0.478135
O30   O     O_R   0.956820 0.783240 0.173260 -0.482925
O31   O     O_R   0.678360 0.375140 0.822710 -0.437040
O32   O     O_R   0.321640 0.375140 0.177290 -0.442432
O33   O     O_R   0.178360 0.875140 0.822710 -0.450096
O34   O     O_R   0.715680 0.790430 0.169490 -0.508061
O35   O     O_R   0.821640 0.875140 0.177290 -0.438108
O36   O     O_R   0.785050 0.289380 0.670560 -0.510891
O37   O     O_R   0.214950 0.289380 0.329440 -0.518763
O38   O     O_R   0.285050 0.789380 0.670560 -0.527354
O39   O     O_R   0.714950 0.789380 0.329440 -0.526746
O40   O     O_R   0.763320 0.039990 0.676930 -0.512549
O41   O     O_R   0.236680 0.039990 0.323070 -0.510243
O42   O     O_R   0.263320 0.539990 0.676930 -0.513918
O43   O     O_R   0.736680 0.539990 0.323070 -0.509475
O44   O     O_R   0.668130 0.922920 0.670000 -0.498610
O45   O     O_R   0.554640 0.080370 0.673500 -0.455496
O46   O     O_R   0.331870 0.922920 0.330000 -0.505580
O47   O     O_R   0.168130 0.422920 0.670000 -0.491845
O48   O     O_R   0.831870 0.422920 0.330000 -0.494136
O49   O     O_2   0.853806 0.200925 0.133261 -0.459779
O50   O     O_R   0.923758 0.266968 0.042410 -0.700351
O51   O     O_2   0.146741 0.201256 0.866131 -0.476200
O52   O     O_R   0.076634 0.266665 0.957063 -0.696032
O53   O     O_2   0.361708 0.722939 0.115130 -0.452336
O54   O     O_R   0.435741 0.782246 0.026602 -0.717446
O55   O     O_2   0.651852 0.694756 0.865007 -0.464620
O56   O     O_R   0.445360 0.080370 0.326500 -0.459473
O57   O     O_R   0.577813 0.764793 0.951431 -0.697289
O58   O     O_2   0.555733 0.864989 0.453930 -0.495878
O59   O     O_R   0.569975 0.986966 0.358822 -0.690032
O60   O     O_2   0.458671 0.844449 0.543104 -0.504077
O61   O     O_R   0.446481 0.940419 0.648351 -0.685087
O62   O     O_2   0.976905 0.352062 0.431796 -0.515183
O63   O     O_R   0.066443 0.445442 0.372528 -0.686694
O64   O     O_2   0.033260 0.351668 0.564285 -0.515281
O65   O     O_R   0.944251 0.418218 0.635439 -0.687130
O66   O     O_R   0.054640 0.580370 0.673500 -0.472805
O67   O     O_R   0.945360 0.580370 0.326500 -0.472041
O68   O     O_R   0.543920 0.282180 0.666790 -0.528615

loop_
_geom_bond_atom_site_label_1
_geom_bond_atom_site_label_2
_ccdc_geom_bond_type
C70   O42   A    
C87   C88   S    
C99   O61   S    
C34   H29   S    
C58   C62   A    
C3    O64   D    
Cr12  O68   S    
Cr5   O12   S    
C45   C71   S    
C43   C83   S    
Cr6   O11   S    
C14   C18   A    
C2    C7    A    
C42   C82   S    
C84   C87   D    
C21   H25   S    
C48   C69   S    
C4    C8    A    
Cr9   O56   S    
Cr12  O27   S    
C66   O35   A    
C2    C57   A    
Cr10  O25   S    
C46   C89   A    
C85   C86   S    
C19   H22   S    
C7    C11   A    
C78   O7    A    
C50   C54   A    
C92   I3    S    
C1    C5    S    
C95   O52   S    
C62   C80   S    
C28   C29   A    
C23   C73   S    
C79   C93   A    
C10   C15   A    
C30   C31   A    
C97   O55   D    
C49   C53   A    
C15   C89   A    
C43   O25   A    
C33   H28   S    
C42   O28   A    
C40   C49   A    
C79   H17   S    
C30   C100  S    
Cr11  O21   S    
C96   O54   S    
C41   O27   A    
C63   O1    A    
H38   O63   S    
C4    C13   S    
C36   H30   S    
C91   I2    S    
C67   O44   A    
C76   O36   A    
C44   O30   A    
C54   C59   A    
C19   C20   A    
C50   H44   S    
C6    C94   S    
C8    C96   S    
C12   C17   A    
C24   O20   A    
Cr2   O32   S    
C73   O56   A    
Cr1   O9    S    
Cr10  O47   S    
Cr3   O29   S    
Cr10  O20   S    
C5    C79   A    
C27   C74   S    
C12   H20   S    
C68   H16   S    
C82   H9    S    
C81   C86   D    
Cr1   O36   S    
Cr2   O2    S    
Cr6   O38   S    
Cr10  O11   S    
Cr5   O37   S    
C83   C88   D    
C21   C27   A    
C41   C81   S    
C66   O34   A    
Cr2   O6    S    
C55   C60   A    
Cr7   O17   S    
Cr3   O11   S    
Cr1   O14   S    
C17   C92   A    
H37   O61   S    
C83   H13   S    
C36   C62   A    
C64   O32   A    
C94   O50   S    
H31   O50   S    
C65   O33   A    
C35   O17   A    
C25   C29   A    
C69   O41   A    
C60   C77   S    
C1    O14   A    
Cr1   O40   S    
C51   H2    S    
Cr5   O10   S    
C29   C99   S    
C39   H42   S    
C27   C31   A    
C34   C39   A    
C87   H23   S    
C36   C40   A    
C32   H27   S    
C67   O40   A    
Cr10  O66   S    
C4    C68   A    
C47   C51   A    
Cr7   O13   S    
C100  O63   S    
C42   O24   A    
C77   O6    A    
C13   O19   A    
C80   O39   A    
C34   C61   A    
Cr2   O28   S    
C96   O53   D    
C75   O4    A    
C84   H11   S    
C64   O12   A    
C93   I4    S    
C71   O43   A    
C9    C14   A    
C10   H18   S    
C47   C70   S    
Cr7   O43   S    
C73   O2    A    
H35   O57   S    
Cr6   O42   S    
C1    O18   A    
Cr9   O19   S    
Cr5   O41   S    
Cr12  O9    S    
C20   C23   A    
C100  O62   D    
C61   C78   S    
C8    C12   A    
Cr4   O30   S    
C58   H8    S    
C26   C75   S    
C69   O46   A    
Cr8   O18   S    
C76   O5    A    
C40   H43   S    
C25   C72   S    
C32   C37   A    
C20   H24   S    
C3    C31   S    
C38   C47   A    
C72   O45   A    
C94   O49   D    
C57   C91   A    
Cr9   O24   S    
C71   O48   A    
H39   O65   S    
C26   C30   A    
C33   C60   A    
Cr8   O9    S    
C85   H1    S    
C98   O58   D    
C86   H12   S    
C56   H7    S    
C97   O57   S    
C41   O22   A    
C23   C28   A    
C37   H40   S    
C37   C45   A    
C24   O16   A    
H32   O52   S    
C7    C95   S    
Cr9   O10   S    
C65   O23   A    
C52   H3    S    
C28   C98   S    
C13   O15   A    
C3    O65   S    
C18   C66   S    
Cr11  O26   S    
C9    C97   S    
C49   C67   S    
Cr11  O13   S    
Cr3   O3    S    
C46   H14   S    
C5    C9    A    
Cr8   O45   S    
C44   C84   S    
C11   H19   S    
C57   H15   S    
C53   C58   A    
C53   H4    S    
C89   I1    S    
Cr4   O13   S    
C46   C90   A    
C14   H21   S    
Cr8   O22   S    
C35   O21   A    
C82   C85   D    
Cr3   O33   S    
C22   H26   S    
C17   C65   S    
C33   C38   A    
C38   H41   S    
C15   C63   S    
C81   H10   S    
Cr11  O67   S    
C21   C22   A    
C75   O67   A    
C70   O47   A    
C95   O51   D    
Cr4   O8    S    
Cr8   O44   S    
C6    C90   A    
C72   O68   A    
Cr12  O31   S    
Cr7   O39   S    
Cr4   O4    S    
C74   O3    A    
C45   C50   A    
C63   O31   A    
Cr12  O5    S    
C59   C76   S    
Cr1   O1    S    
C68   C92   A    
Cr4   O35   S    
C78   O38   A    
C51   C55   A    
Cr9   O46   S    
C19   C25   A    
H36   O59   S    
Cr3   O7    S    
Cr6   O23   S    
Cr2   O10   S    
C11   C16   A    
C6    C10   A    
C22   C26   A    
H33   O54   S    
C35   C90   S    
C48   C52   A    
C99   O60   D    
C43   O29   A    
C16   C91   A    
C74   O66   A    
Cr5   O15   S    
C54   H5    S    
C18   C93   A    
Cr6   O16   S    
C56   C61   A    
C2    C24   S    
C16   C64   S    
C32   C59   A    
C88   H34   S    
C98   O59   S    
C77   O37   A    
Cr11  O48   S    
C80   O8    A    
Cr7   O34   S    
C52   C56   A    
C44   O26   A    
C39   C48   A    
C55   H6    S    
