data_mof_unit_55400.cif
_audit_creation_date              2012-12-10T20:42:41-0500
_audit_creation_method            fapswitch 2.2
_symmetry_space_group_name_H-M    P1
_symmetry_Int_Tables_number       1
_space_group_crystal_system       triclinic
_cell_length_a                    8.905993
_cell_length_b                    10.736464
_cell_length_c                    9.879367
_cell_angle_alpha                 89.59054
_cell_angle_beta                  89.820573
_cell_angle_gamma                 90.317406
_cell_volume                      944.610573455

loop_
_atom_site_label
_atom_site_type_symbol
_atom_type_description
_atom_site_fract_x
_atom_site_fract_y
_atom_site_fract_z
_atom_type_partial_charge
C1    C     C_R   0.500238 0.260352 0.500237 0.922625
C2    C     C_R   0.465737 0.939358 0.375305 0.417133
C3    C     C_R   0.499849 0.872205 0.495064 -0.206521
C4    C     C_R   0.550206 0.934941 0.609672 0.000246
C5    C     C_3   0.495019 0.926528 0.752783 -0.428470
C6    C     C_3   0.498002 0.067830 0.754150 0.259003
C7    C     C_R   0.414211 0.415976 0.072151 0.132772
C8    C     C_R   0.595200 0.575020 0.070085 0.451309
C9    C     C_R   0.594750 0.574840 0.926487 -0.153582
C10   C     C_R   0.414376 0.415938 0.929680 0.195780
C11   C     C_3   0.247888 0.402605 0.923822 -0.511925
C12   C     C_R   0.218751 0.499819 0.500108 0.928106
C13   C     C_3   0.247469 0.403738 0.077713 0.201276
C14   C     C_R   0.495751 0.739895 0.498953 0.928868
C15   C     C_R   0.781255 0.500087 0.499878 0.946539
C16   C     C_1   0.065422 0.499841 0.500146 -0.144197
C17   C     C_1   0.934601 0.499945 0.499780 -0.130492
C18   C     C_R   0.553435 0.062354 0.611404 0.103737
C19   C     C_R   0.507285 0.128819 0.497984 -0.233240
C20   C     C_R   0.472910 0.067334 0.377590 -0.172074
N1    N     N_R   0.499010 0.499140 0.142800 -0.167369
N2    N     N_R   0.499010 0.499180 0.857150 -0.127747
O1    O     O_R   0.500020 0.316790 0.614690 -0.602673
O2    O     O_R   0.500000 0.316760 0.385350 -0.601512
O3    O     O_R   0.285350 0.500020 0.614650 -0.633509
O4    O     O_R   0.285340 0.499980 0.385310 -0.603637
O5    O     O_R   0.500000 0.683240 0.614650 -0.635984
O6    O     O_R   0.499980 0.683210 0.385310 -0.534956
O7    O     O_R   0.714660 0.500020 0.614690 -0.615770
O8    O     O_R   0.714650 0.499980 0.385350 -0.566238
Zn1   Zn    Zn3+2 0.500010 0.500020 0.653130 0.984745
Zn2   Zn    Zn3+2 0.499990 0.499980 0.346870 1.066939
H1    H     H_    0.441647 0.118400 0.287072 0.246752
H2    H     H_    0.213432 0.312222 0.878928 0.243155
H3    H     H_    0.191288 0.486397 0.121678 0.155462
Cl1   Cl    Cl    0.190609 0.258683 0.151236 -0.529307
Cl2   Cl    Cl    0.395976 0.872855 0.224540 -0.506983
H4    H     H_    0.379649 0.886910 0.760561 0.191523
H5    H     H_    0.578636 0.882059 0.820781 0.252921
H6    H     H_    0.385241 0.110895 0.764002 0.123164
Cl3   Cl    Cl    0.636717 0.130213 0.865076 -0.513550
Cl4   Cl    Cl    0.718827 0.677208 0.151909 -0.512076
H7    H     H_    0.668826 0.637009 0.870774 0.179517
H8    H     H_    0.192686 0.485589 0.878561 0.200241

loop_
_geom_bond_atom_site_label_1
_geom_bond_atom_site_label_2
_ccdc_geom_bond_type
O3    Zn1   S    
C7    C10   A    
O2    Zn2   S    
C15   O7    A    
C14   O5    A    
C19   C20   A    
C7    C13   S    
C12   O3    A    
C4    C18   A    
N2    Zn1   S    
C1    O1    A    
C8    N1    A    
C11   H8    S    
O7    Zn1   S    
C5    H4    S    
C10   N2    A    
O8    Zn2   S    
C11   C13   S    
C2    Cl2   S    
C16   C17   T    
C3    C14   S    
C13   Cl1   S    
C20   H1    S    
C13   H3    S    
C8    Cl4   S    
C2    C3    A    
C5    H5    S    
C5    C6    S    
C6    C18   S    
N1    Zn2   S    
C6    H6    S    
C9    N2    A    
C9    H7    S    
C1    C19   S    
C10   C11   S    
C2    C20   A    
C3    C4    A    
O6    Zn2   S    
C1    O2    A    
C18   C19   A    
C15   O8    A    
C15   C17   S    
O4    Zn2   S    
C8    C9    A    
C14   O6    A    
C7    N1    A    
O5    Zn1   S    
C11   H2    S    
C12   C16   S    
C12   O4    A    
C4    C5    S    
C6    Cl3   S    
O1    Zn1   S    
