data_mof_unit_16595.cif
_audit_creation_date              2012-12-11T15:27:41-0500
_audit_creation_method            fapswitch 2.2
_symmetry_space_group_name_H-M    P1
_symmetry_Int_Tables_number       1
_space_group_crystal_system       triclinic
_cell_length_a                    23.224285
_cell_length_b                    7.299527
_cell_length_c                    15.095665
_cell_angle_alpha                 90.751776
_cell_angle_beta                  108.221819
_cell_angle_gamma                 89.310671
_cell_volume                      2430.48655501

loop_
_atom_site_label
_atom_site_type_symbol
_atom_type_description
_atom_site_fract_x
_atom_site_fract_y
_atom_site_fract_z
_atom_type_partial_charge
O1    O     O_R   0.711000 0.648610 0.341170 -0.535409
O2    O     O_R   0.289000 0.351390 0.658830 -0.534648
O3    O     O_R   0.789000 0.148610 0.158830 -0.535268
O4    O     O_R   0.211000 0.851390 0.841170 -0.536124
O5    O     O_R   0.829650 0.322030 0.336650 -0.536924
O6    O     O_R   0.170350 0.677970 0.663350 -0.536899
O7    O     O_R   0.670350 0.822030 0.163350 -0.536795
O8    O     O_R   0.329650 0.177970 0.836650 -0.536412
C1    C     C_R   0.854272 0.485552 0.356767 0.717396
C2    C     C_R   0.145741 0.514437 0.643185 0.716977
C3    C     C_R   0.645726 0.986026 0.143195 0.717834
C4    C     C_R   0.354266 0.013969 0.856833 0.717955
O9    O     O_R   0.713950 0.319280 0.352070 -0.538902
O10   O     O_R   0.286050 0.680720 0.647930 -0.539801
O11   O     O_R   0.786050 0.819280 0.147930 -0.539324
O12   O     O_R   0.213950 0.180720 0.852070 -0.538538
O13   O     O_R   0.672470 0.142870 0.174360 -0.533012
O14   O     O_R   0.327530 0.857130 0.825640 -0.533168
O15   O     O_R   0.827530 0.642870 0.325640 -0.532905
O16   O     O_R   0.172470 0.357130 0.674360 -0.532636
C5    C     C_R   0.701893 0.488936 0.376107 0.679848
C6    C     C_R   0.297999 0.510900 0.623726 0.679658
C7    C     C_R   0.798143 0.986056 0.123802 0.679923
C8    C     C_R   0.201956 0.014070 0.876367 0.679941
O17   O     O_3   0.736530 0.478650 0.191680 -0.377395
O18   O     O_3   0.263470 0.521350 0.808320 -0.377397
O19   O     O_3   0.763470 0.978650 0.308320 -0.377913
O20   O     O_3   0.236530 0.021350 0.691680 -0.377719
V1    V     V_3+5 0.752500 0.206170 0.260820 1.423394
V2    V     V_3+5 0.247500 0.793830 0.739180 1.422783
V3    V     V_3+5 0.747500 0.706170 0.239180 1.424165
V4    V     V_3+5 0.252500 0.293830 0.760820 1.426630
C9    C     C_R   0.827023 0.988517 0.050728 -0.026108
C10   C     C_R   0.173039 0.014764 0.949530 -0.029616
C11   C     C_R   0.672752 0.502677 0.448706 -0.025869
C12   C     C_R   0.327058 0.493980 0.551047 -0.029636
C13   C     C_R   0.822495 0.931722 0.891309 -0.171960
C14   C     C_R   0.174861 0.110127 0.103606 -0.171159
C15   C     C_R   0.676614 0.586054 0.605177 -0.171679
C16   C     C_R   0.326196 0.370708 0.402007 -0.171261
C17   C     C_R   0.793735 0.945979 0.959167 -0.164574
C18   C     C_R   0.204738 0.079437 0.038186 -0.160863
C19   C     C_R   0.705617 0.559910 0.538198 -0.165553
C20   C     C_R   0.296052 0.412726 0.465982 -0.161446
C21   C     C_R   0.889177 0.018042 0.074649 -0.198748
C22   C     C_R   0.111223 0.979466 0.926256 -0.200036
C23   C     C_R   0.610815 0.470588 0.425947 -0.198801
C24   C     C_R   0.388454 0.533581 0.572363 -0.200769
C25   C     C_R   0.919978 0.007213 0.007057 0.073718
C26   C     C_R   0.078329 0.020628 0.989200 0.073022
C27   C     C_R   0.579848 0.492570 0.492861 0.073369
C28   C     C_R   0.421731 0.481035 0.511526 0.072749
C29   C     C_R   0.885770 0.958465 0.913721 0.079736
C30   C     C_R   0.111496 0.085190 0.080471 0.080199
C31   C     C_R   0.613573 0.556010 0.583945 0.079445
C32   C     C_R   0.389215 0.400854 0.423508 0.079924
C33   C     C_R   0.983804 0.037287 0.030726 0.008180
C34   C     C_R   0.013787 0.002514 0.963407 0.008988
C35   C     C_R   0.516326 0.458552 0.470548 0.008003
C36   C     C_R   0.486045 0.503544 0.536364 0.008815
C37   C     C_R   0.978252 0.956604 0.871365 -0.177884
C38   C     C_R   0.017954 0.105877 0.119306 -0.178598
C39   C     C_R   0.521119 0.563453 0.626355 -0.177951
C40   C     C_R   0.482810 0.376015 0.385043 -0.178587
C41   C     C_R   0.915128 0.935220 0.845040 0.113553
C42   C     C_R   0.080945 0.128838 0.145867 0.114738
C43   C     C_R   0.583997 0.589624 0.651602 0.113893
C44   C     C_R   0.420102 0.347775 0.359832 0.114741
H1    H     H_    0.090406 0.925627 0.857070 0.096338
H2    H     H_    0.912339 0.039024 0.147865 0.093503
H3    H     H_    0.408686 0.601041 0.638435 0.096646
H4    H     H_    0.587960 0.437445 0.353841 0.093220
H5    H     H_    0.252656 0.109450 0.056295 0.104982
H6    H     H_    0.745496 0.920596 0.940473 0.104348
H7    H     H_    0.248475 0.379383 0.449564 0.105334
H8    H     H_    0.753696 0.587064 0.555875 0.104461
H9    H     H_    0.794323 0.896418 0.821618 0.105708
H10   H     H_    0.202097 0.159667 0.171343 0.103930
H11   H     H_    0.704426 0.632380 0.673219 0.105832
H12   H     H_    0.299499 0.308908 0.336904 0.104127
H13   H     H_    0.998882 0.941716 0.817638 0.139159
H14   H     H_    0.995499 0.150032 0.167892 0.140470
H15   H     H_    0.500360 0.585257 0.679547 0.139136
H16   H     H_    0.505603 0.324940 0.338170 0.140600
C45   C     C_1   0.416742 0.006418 0.918819 -0.194641
C46   C     C_1   0.583233 0.993559 0.081275 -0.194125
C47   C     C_1   0.083264 0.507525 0.581147 -0.194099
C48   C     C_1   0.916777 0.492429 0.418704 -0.193315
C49   C     C_1   0.469127 0.002112 0.970053 0.002469
C50   C     C_1   0.530838 0.997849 0.030081 0.003596
C51   C     C_1   0.030885 0.502643 0.529906 0.001780
C52   C     C_1   0.969172 0.497282 0.469885 0.002228
C53   C     C_3   0.878347 0.884598 0.744483 -0.357952
C54   C     C_3   0.913310 0.861034 0.674189 -0.763263
H17   H     H_    0.935682 0.991060 0.666818 0.227460
H18   H     H_    0.947360 0.748660 0.695636 0.227713
H19   H     H_    0.881171 0.824153 0.604849 0.219333
H20   H     H_    0.854809 0.753146 0.745167 0.178279
H21   H     H_    0.843433 0.992825 0.717133 0.181036
C55   C     C_3   0.116326 0.201806 0.243208 -0.359914
C56   C     C_3   0.080116 0.243760 0.310332 -0.761142
H22   H     H_    0.046429 0.354872 0.282594 0.227769
H23   H     H_    0.057134 0.118678 0.322892 0.227879
H24   H     H_    0.111516 0.291186 0.378340 0.216643
H25   H     H_    0.151646 0.099048 0.277814 0.179234
H26   H     H_    0.139328 0.330444 0.235337 0.180670
C57   C     C_3   0.620271 0.655772 0.749857 -0.358826
C58   C     C_3   0.585064 0.690009 0.819086 -0.761587
H27   H     H_    0.549968 0.798157 0.793071 0.227985
H28   H     H_    0.563925 0.561463 0.831881 0.227404
H29   H     H_    0.616803 0.738009 0.886699 0.217291
H30   H     H_    0.656105 0.552395 0.781483 0.180851
H31   H     H_    0.642659 0.786710 0.743826 0.178887
C59   C     C_3   0.385379 0.259713 0.265753 -0.359811
C60   C     C_3   0.421778 0.210056 0.199810 -0.760761
H32   H     H_    0.443308 0.333804 0.182421 0.227957
H33   H     H_    0.456686 0.104195 0.231308 0.227877
H34   H     H_    0.390773 0.152561 0.133843 0.215903
H35   H     H_    0.364023 0.131740 0.278919 0.181462
H36   H     H_    0.348786 0.355723 0.227526 0.178648

loop_
_geom_bond_atom_site_label_1
_geom_bond_atom_site_label_2
_ccdc_geom_bond_type
O17   V3    S    
O1    C5    A    
C53   C54   S    
C47   C51   T    
O19   V1    S    
C9    C21   A    
C57   H30   S    
O3    C7    A    
C10   C18   A    
C11   C23   A    
C59   C60   S    
C25   C33   A    
C33   C38   A    
O7    C3    A    
C55   H25   S    
C56   H22   S    
C4    C45   S    
C36   C39   A    
C40   C44   A    
O9    V1    S    
C14   C18   A    
C1    C48   S    
O4    C8    A    
C3    C46   S    
C60   H32   S    
O1    V3    S    
O13   V1    S    
C58   H27   S    
O2    V4    S    
C42   C55   S    
O3    V1    S    
O12   V4    S    
C57   H31   S    
C22   H1    S    
C28   C36   A    
C17   H6    S    
C1    O15   A    
C40   H16   S    
C48   C52   T    
C2    O16   A    
C16   C32   A    
O2    C6    A    
C57   C58   S    
C16   H12   S    
C10   C22   A    
C11   C19   A    
C53   H21   S    
C16   C20   A    
C59   H35   S    
C13   C29   A    
C34   C37   A    
O11   C7    A    
C38   H14   S    
O15   V3    S    
C35   C36   A    
O12   C8    A    
O10   V2    S    
O5    V1    S    
C39   C43   A    
C2    C47   S    
C44   C59   S    
O7    V3    S    
C38   C42   A    
O8    V4    S    
C46   C50   T    
C51   C52   S    
C45   C49   T    
O18   V4    S    
C23   C27   A    
C14   H10   S    
C54   H19   S    
C7    C9    S    
C32   C44   A    
C13   H9    S    
C8    C10   S    
C39   H15   S    
C26   C34   A    
C20   H7    S    
O5    C1    A    
C31   C43   A    
C14   C30   A    
C21   C25   A    
O8    C4    A    
C60   H34   S    
C35   C40   A    
O9    C5    A    
C26   C30   A    
C54   H18   S    
O14   V2    S    
O6    V2    S    
C56   H24   S    
C12   C20   A    
C27   C35   A    
C24   H3    S    
C29   C41   A    
O16   V4    S    
C19   H8    S    
C60   H33   S    
C3    O13   A    
C18   H5    S    
C21   H2    S    
O6    C2    A    
C15   C19   A    
O11   V3    S    
C30   C42   A    
C15   C31   A    
C6    C12   S    
C22   C26   A    
C55   H26   S    
C58   H29   S    
C9    C17   A    
O10   C6    A    
O20   V2    S    
C5    C11   S    
C37   H13   S    
C43   C57   S    
C33   C34   A    
C25   C29   A    
C41   C53   S    
C55   C56   S    
C58   H28   S    
C12   C24   A    
C27   C31   A    
C13   C17   A    
C54   H17   S    
O4    V2    S    
C23   H4    S    
C37   C41   A    
C24   C28   A    
C56   H23   S    
C4    O14   A    
C49   C50   S    
C53   H20   S    
C59   H36   S    
C28   C32   A    
C15   H11   S    
