data_mof_unit_48614.cif
_audit_creation_date              2012-12-10T16:59:18-0500
_audit_creation_method            fapswitch 2.2
_symmetry_space_group_name_H-M    P1
_symmetry_Int_Tables_number       1
_space_group_crystal_system       triclinic
_cell_length_a                    7.739101
_cell_length_b                    8.560395
_cell_length_c                    27.705191
_cell_angle_alpha                 91.126133
_cell_angle_beta                  86.332665
_cell_angle_gamma                 93.662025
_cell_volume                      1827.74034366

loop_
_atom_site_label
_atom_site_type_symbol
_atom_type_description
_atom_site_fract_x
_atom_site_fract_y
_atom_site_fract_z
_atom_type_partial_charge
C1    C     C_R   0.545860 0.794825 0.498744 0.976166
C2    C     C_R   0.454140 0.205175 0.501256 0.976165
C3    C     C_R   0.529180 0.492754 0.897769 -0.148796
C4    C     C_R   0.470807 0.507248 0.102231 -0.148797
C5    C     C_R   0.593139 0.627231 0.872226 0.025533
C6    C     C_R   0.406856 0.372769 0.127773 0.025533
C7    C     C_R   0.658309 0.758248 0.897343 -0.088135
C8    C     C_R   0.341688 0.241751 0.102657 -0.088128
C9    C     C_R   0.479025 0.355722 0.871845 -0.264064
C10   C     C_R   0.520956 0.644281 0.128154 -0.264060
C11   C     C_R   0.511511 0.500563 0.646452 -0.040774
C12   C     C_R   0.488488 0.499438 0.353548 -0.040769
C13   C     C_R   0.545311 0.642027 0.025652 -0.179879
C14   C     C_R   0.454674 0.357974 0.974347 -0.179880
C15   C     C_R   0.430926 0.365107 0.025579 0.150794
C16   C     C_R   0.569062 0.634894 0.974420 0.150797
C17   C     C_R   0.483447 0.504616 0.050914 -0.000633
C18   C     C_R   0.516539 0.495385 0.949086 -0.000632
C19   C     C_R   0.573712 0.782921 0.052933 0.503726
C20   C     C_R   0.426267 0.217081 0.947066 0.503730
C21   C     C_R   0.567388 0.782329 0.103070 0.612569
C22   C     C_R   0.432588 0.217676 0.896929 0.612572
C23   C     C_R   0.503238 0.500278 0.593932 0.874689
C24   C     C_R   0.496762 0.499722 0.406068 0.874690
C25   C     C_R   0.651877 0.760003 0.947376 -0.070287
C26   C     C_R   0.348116 0.239996 0.052624 -0.070288
C27   C     C_2   0.570122 0.958256 0.498008 -0.370752
C28   C     C_2   0.429878 0.041744 0.501992 -0.370751
C29   C     C_R   0.594051 0.626174 0.821783 0.540375
C30   C     C_R   0.405948 0.373826 0.178217 0.540373
C31   C     C_R   0.481670 0.360150 0.821215 0.593934
C32   C     C_R   0.518309 0.639856 0.178784 0.593927
C33   C     C_R   0.680542 0.495031 0.716873 -0.087854
C34   C     C_R   0.319445 0.504883 0.283127 -0.087841
C35   C     C_R   0.672565 0.495799 0.666949 -0.206339
C36   C     C_R   0.327425 0.504113 0.333051 -0.206342
C37   C     C_R   0.358877 0.505274 0.676542 -0.200406
C38   C     C_R   0.641128 0.494816 0.323459 -0.200415
C39   C     C_R   0.367325 0.504172 0.726449 -0.086118
C40   C     C_R   0.632678 0.495920 0.273552 -0.086108
C41   C     C_R   0.527961 0.498772 0.746533 0.293955
C42   C     C_R   0.472032 0.501232 0.253467 0.293934
H1    H     H_    0.233257 0.508998 0.661612 0.161230
H2    H     H_    0.766756 0.491163 0.338390 0.161227
H3    H     H_    0.013955 0.383144 0.463382 0.191723
H4    H     H_    0.986045 0.616856 0.536618 0.191726
H5    H     H_    0.249349 0.507117 0.749602 0.142681
H6    H     H_    0.750659 0.493044 0.250400 0.142683
H7    H     H_    0.717729 0.859505 0.878390 0.209370
H8    H     H_    0.282273 0.140493 0.121610 0.209374
H9    H     H_    0.207803 0.507350 0.355486 0.160156
H10   H     H_    0.792182 0.492489 0.644513 0.160165
H11   H     H_    0.195254 0.509307 0.267429 0.139416
H12   H     H_    0.804726 0.490539 0.732571 0.139408
H13   H     H_    0.719490 0.859304 0.963504 0.224636
H14   H     H_    0.280504 0.140694 0.036497 0.224641
H15   H     H_    0.702568 0.009319 0.494198 0.181100
H16   H     H_    0.297432 0.990681 0.505802 0.181101
N1    N     N_R   0.535402 0.494896 0.797686 -0.373218
N2    N     N_R   0.464588 0.505107 0.202314 -0.373214
N3    N     N_2   0.950320 0.457960 0.486880 -0.175662
N4    N     N_2   0.049680 0.542040 0.513120 -0.175662
O1    O     O_R   0.389250 0.738570 0.503220 -0.611175
O2    O     O_R   0.610750 0.261430 0.496780 -0.611175
O3    O     O_R   0.678390 0.711630 0.494810 -0.629083
O4    O     O_R   0.321610 0.288370 0.505190 -0.629083
O5    O     O_R   0.355440 0.513440 0.575450 -0.620607
O6    O     O_R   0.644560 0.486560 0.424550 -0.620607
O7    O     O_R   0.644590 0.486500 0.567040 -0.630527
O8    O     O_R   0.355410 0.513500 0.432960 -0.630525
O9    O     O_2   0.650625 0.755646 0.796946 -0.511332
O10   O     O_2   0.349388 0.244349 0.203053 -0.511330
O11   O     O_2   0.569384 0.768216 0.204522 -0.453263
O12   O     O_2   0.430582 0.231794 0.795477 -0.453262
Zn1   Zn    Zn3+2 0.306940 0.517990 0.505620 0.951504
Zn2   Zn    Zn3+2 0.693060 0.482010 0.494380 0.951503
F1    F     F_    0.600874 0.920297 0.126822 -0.571731
F2    F     F_    0.399097 0.079709 0.873177 -0.571730
F3    F     F_    0.594357 0.926029 0.032607 -0.612935
F4    F     F_    0.405619 0.073973 0.967391 -0.612933

loop_
_geom_bond_atom_site_label_1
_geom_bond_atom_site_label_2
_ccdc_geom_bond_type
C8    C26   A    
C14   C18   A    
C34   C42   A    
C7    H7    S    
C24   O8    A    
C39   C41   A    
O3    Zn2   S    
H4    N4    S    
C19   C21   A    
C9    C22   A    
C31   N1    A    
C16   C25   A    
O7    Zn2   S    
C15   C17   A    
C11   C23   S    
C11   C37   A    
C23   O7    A    
C29   N1    A    
C30   N2    A    
C1    O3    A    
C12   C36   A    
C40   C42   A    
N3    Zn2   S    
C1    O1    A    
C3    C18   A    
C2    O2    A    
C5    C29   A    
C10   C21   A    
C20   F4    S    
C14   C20   A    
C22   F2    S    
C4    C6    A    
C27   H15   S    
C42   N2    S    
C32   O11   S    
C5    C7    A    
C13   C19   A    
C15   C26   A    
C6    C8    A    
C3    C5    A    
C24   O6    A    
C37   H1    S    
C38   H2    S    
C3    C9    A    
O2    Zn2   S    
C19   F3    S    
C41   N1    S    
C36   H9    S    
C4    C17   A    
C6    C30   A    
C20   C22   A    
N4    Zn1   S    
O5    Zn1   S    
C32   N2    A    
C4    C10   A    
C8    H8    S    
C35   H10   S    
C39   H5    S    
C33   H12   S    
C40   H6    S    
C25   H13   S    
C2    O4    A    
C26   H14   S    
C30   O10   S    
C28   H16   S    
O6    Zn2   S    
C12   C24   S    
C7    C25   A    
C13   C17   A    
C33   C41   A    
C11   C35   A    
C37   C39   A    
C38   C40   A    
O1    Zn1   S    
O4    Zn1   S    
H3    N3    S    
C33   C35   A    
C34   C36   A    
C12   C38   A    
N3    N4    D    
C31   O12   S    
C23   O5    A    
C9    C31   A    
C10   C32   A    
O8    Zn1   S    
C34   H11   S    
C16   C18   A    
C13   C16   A    
C21   F1    S    
C27   C28   D    
C1    C27   S    
C14   C15   A    
C2    C28   S    
C29   O9    S    
