data_mof_unit_37538.cif
_audit_creation_date              2013-03-05T16:18:22-0500
_audit_creation_method            fapswitch 2.2
_symmetry_space_group_name_H-M    P1
_symmetry_Int_Tables_number       1
_space_group_crystal_system       triclinic
_cell_length_a                    10.745284
_cell_length_b                    9.774759
_cell_length_c                    10.49624
_cell_angle_alpha                 89.785801
_cell_angle_beta                  88.65338
_cell_angle_gamma                 89.311063
_cell_volume                      1102.05623788

loop_
_atom_site_label
_atom_site_type_symbol
_atom_site_description
_atom_site_fract_x
_atom_site_fract_y
_atom_site_fract_z
_atom_type_partial_charge
O1    O     O_R   0.314910 0.616040 0.499970 -0.578402
O2    O     O_R   0.314910 0.383960 0.499970 -0.621392
C1    C     C_R   0.257418 0.500752 0.507535 0.960507
O3    O     O_R   0.500080 0.616020 0.313900 -0.606463
O4    O     O_R   0.500080 0.383980 0.313900 -0.612540
C2    C     C_R   0.501005 0.500436 0.257349 0.911024
Zn1   Zn    Zn3+2 0.500150 0.654960 0.499940 0.999134
Zn2   Zn    Zn3+2 0.500150 0.345040 0.499940 0.991564
O5    O     O_R   0.685320 0.616040 0.499930 -0.619154
O6    O     O_R   0.685320 0.383960 0.499930 -0.594357
O7    O     O_R   0.500150 0.616060 0.686000 -0.626846
O8    O     O_R   0.500150 0.383940 0.686000 -0.623728
C3    C     C_R   0.742016 0.499569 0.501616 0.897360
C4    C     C_R   0.501815 0.499731 0.742536 0.949573
C5    C     C_3   0.493392 0.630818 0.040152 -0.122774
C6    C     C_3   0.404674 0.428960 0.044903 -0.136020
C7    C     C_3   0.395893 0.557902 0.960195 -0.092135
H1    H     H_    0.308889 0.605386 0.925230 0.237329
H2    H     H_    0.484941 0.737253 0.076074 0.192705
H3    H     H_    0.325083 0.370921 0.086156 0.173202
C8    C     C_3   0.502476 0.499281 0.877648 -0.043701
C9    C     C_3   0.600120 0.572258 0.954974 -0.189773
C10   C     C_3   0.511463 0.370265 0.959902 -0.080651
C11   C     C_3   0.609090 0.443455 0.040001 -0.103722
C12   C     C_3   0.502205 0.501725 0.122325 -0.030279
H4    H     H_    0.679579 0.630344 0.913501 0.186818
H5    H     H_    0.518829 0.263983 0.923262 0.174754
H6    H     H_    0.696480 0.398543 0.077110 0.200638
C13   C     C_3   0.063615 0.651185 0.551726 0.465546
C14   C     C_3   0.065252 0.392090 0.617705 0.493433
C15   C     C_3   0.922407 0.647421 0.529368 -0.408421
C16   C     C_3   0.920244 0.408790 0.619498 -0.448064
H7    H     H_    0.867563 0.698861 0.606690 0.213475
H8    H     H_    0.883335 0.457136 0.708470 0.201568
H9    H     H_    0.900751 0.707010 0.442026 0.263637
H10   H     H_    0.875574 0.306722 0.616201 0.226541
H11   H     H_    0.105027 0.532378 0.304161 0.238794
H12   H     H_    0.119864 0.363450 0.346605 0.229635
H13   H     H_    0.896032 0.510199 0.298983 0.195000
H14   H     H_    0.907155 0.341097 0.362210 0.278504
C17   C     C_3   0.075352 0.460313 0.379673 -0.433013
C18   C     C_3   0.119666 0.501859 0.515103 -0.240693
C19   C     C_3   0.877555 0.499795 0.507485 -0.076905
C20   C     C_3   0.933411 0.448555 0.379295 -0.320479
C21   C     C_3   0.376463 0.082640 0.535630 -0.284241
C22   C     C_3   0.374132 0.921487 0.524382 -0.293455
H15   H     H_    0.303077 0.127297 0.474875 0.229083
H16   H     H_    0.312310 0.894683 0.445986 0.233320
H17   H     H_    0.353684 0.113066 0.635442 0.239833
H18   H     H_    0.334381 0.877410 0.613519 0.254933
H19   H     H_    0.446713 0.103401 0.306924 0.068631
H20   H     H_    0.475588 0.879257 0.298231 0.085220
C23   C     C_3   0.528582 0.079831 0.367263 0.201759
C24   C     C_3   0.540876 0.917828 0.370515 0.188368
C25   C     C_3   0.588685 0.078386 0.589957 -0.247773
C26   C     C_3   0.580153 0.917630 0.597799 -0.248647
N1    N     N_3   0.499750 0.138610 0.497240 -0.132818
N2    N     N_3   0.499750 0.861390 0.497240 -0.137806
H21   H     H_    0.685579 0.108187 0.567124 0.234615
H22   H     H_    0.673809 0.869292 0.594647 0.213320
H23   H     H_    0.568874 0.121738 0.686231 0.159746
H24   H     H_    0.541692 0.888828 0.693492 0.169520
N3    N     N_R   0.634407 0.144387 0.300443 0.257896
O9    O     O_R   0.632755 0.154007 0.176834 -0.407334
O10   O     O_R   0.738124 0.168191 0.356797 -0.338575
N4    N     N_R   0.665815 0.867508 0.331282 0.255189
O11   O     O_R   0.680235 0.799393 0.225634 -0.377966
O12   O     O_R   0.764742 0.903513 0.391045 -0.342371
N5    N     N_R   0.110834 0.766609 0.473846 0.195252
O13   O     O_R   0.085372 0.890204 0.513324 -0.285975
O14   O     O_R   0.144751 0.751772 0.354921 -0.422665
N6    N     N_R   0.095223 0.247474 0.585008 0.199718
O15   O     O_R   0.132258 0.164988 0.674534 -0.319052
O16   O     O_R   0.051718 0.191256 0.483411 -0.362918
N7    N     N_R   0.089570 0.683072 0.686665 0.217851
O17   O     O_R   0.001384 0.696883 0.773140 -0.356746
O18   O     O_R   0.203300 0.704534 0.720360 -0.394864
N8    N     N_R   0.114489 0.416956 0.746388 0.225922
O19   O     O_R   0.233951 0.410456 0.762509 -0.406910
O20   O     O_R   0.042695 0.408753 0.847871 -0.341291

loop_
_geom_bond_atom_site_label_1
_geom_bond_atom_site_label_2
_geom_bond_distance
_ccdc_geom_bond_type
N4    O12   1.299737 A    
C25   C26   1.576846 S    
N3    O10   1.297814 A    
C1    C18   1.480357 S    
C25   H21   1.105143 S    
C13   C18   1.616537 S    
C17   C18   1.566241 S    
C19   C20   1.543160 S    
C23   C24   1.587762 S    
Zn1   O7    1.988208 S    
C21   N1    1.485714 S    
C15   C19   1.546519 S    
C16   H10   1.113338 S    
C4    C8    1.418347 S    
O4    C2    1.281858 A    
O7    C4    1.280778 A    
N8    O20   1.303239 A    
C5    C12   1.529050 S    
C2    C12   1.417011 S    
Zn1   O5    2.021246 S    
N5    O14   1.300275 A    
O5    C3    1.285018 A    
C5    C9    1.543382 S    
C6    C7    1.542943 S    
C10   C11   1.543735 S    
C15   H7    1.110057 S    
C10   H5    1.110418 S    
Zn1   N2    2.017852 S    
C6    H3    1.110485 S    
N4    O11   1.300748 A    
C8    C9    1.526686 S    
C22   N2    1.487379 S    
O3    Zn1   1.990887 S    
H20   C24   1.115107 S    
C13   N5    1.478501 S    
C21   H15   1.110085 S    
C22   H16   1.103872 S    
C11   C12   1.526911 S    
H12   C17   1.108810 S    
N6    O16   1.300646 A    
C23   N1    1.506333 S    
N8    O19   1.299459 A    
C21   C22   1.580632 S    
C7    C8    1.527082 S    
C26   H22   1.106448 S    
O1    C1    1.292920 A    
C16   H8    1.110904 S    
C5    H2    1.109885 S    
N7    O17   1.302850 A    
Zn2   N1    2.018167 S    
C21   H17   1.111070 S    
Zn2   O8    1.990998 S    
C7    H1    1.108396 S    
N7    O18   1.299829 A    
C24   N4    1.474273 S    
O3    C2    1.278029 A    
O8    C4    1.280432 A    
C6    C10   1.543294 S    
C25   N1    1.494238 S    
C17   C20   1.530994 S    
C26   H24   1.113592 S    
C3    C19   1.459175 S    
C24   N2    1.497211 S    
C6    C12   1.525402 S    
C5    C7    1.540675 S    
O1    Zn1   2.030967 S    
O2    Zn2   2.021981 S    
C11   H6    1.110048 S    
N6    O15   1.302178 A    
O6    C3    1.290611 A    
O4    Zn2   1.988090 S    
C14   N6    1.485664 S    
H13   C20   1.114137 S    
C13   N7    1.484905 S    
C22   H18   1.107279 S    
C8    C10   1.529025 S    
O2    C1    1.293307 A    
C13   C15   1.541705 S    
C14   C16   1.564409 S    
C23   N3    1.469562 S    
C25   H23   1.112190 S    
C15   H9    1.112040 S    
C16   C19   1.546535 S    
C26   N2    1.490403 S    
C9    C11   1.543903 S    
H11   C17   1.102464 S    
N5    O13   1.302520 A    
N3    O9    1.300995 A    
C14   N8    1.484068 S    
H14   C20   1.107236 S    
Zn2   O6    2.030232 S    
C9    H4    1.110498 S    
C14   C18   1.621657 S    
H19   C23   1.117265 S    
