data_mof_unit_44219.cif
_audit_creation_date              2012-12-10T16:37:26-0500
_audit_creation_method            fapswitch 2.2
_symmetry_space_group_name_H-M    P1
_symmetry_Int_Tables_number       1
_space_group_crystal_system       triclinic
_cell_length_a                    16.767022
_cell_length_b                    16.772563
_cell_length_c                    16.879077
_cell_angle_alpha                 66.036111
_cell_angle_beta                  65.490327
_cell_angle_gamma                 66.440083
_cell_volume                      3791.1318283

loop_
_atom_site_label
_atom_site_type_symbol
_atom_type_description
_atom_site_fract_x
_atom_site_fract_y
_atom_site_fract_z
_atom_type_partial_charge
C1    C     C_R   0.401578 0.043361 0.670904 -0.223908
C2    C     C_R   0.411792 0.673792 0.010421 -0.220867
C3    C     C_R   0.989046 0.586977 0.324411 -0.218238
C4    C     C_R   0.060145 0.398889 0.661112 -0.222346
C5    C     C_R   0.962684 0.179493 0.437916 0.931162
C6    C     C_R   0.031659 0.821529 0.564227 0.934241
C7    C     C_R   0.178828 0.435832 0.967901 0.935349
C8    C     C_R   0.822816 0.568361 0.022666 0.958600
C9    C     C_R   0.431383 0.976478 0.177388 0.959187
C10   C     C_R   0.561892 0.039639 0.820443 0.934791
C11   C     C_R   0.562070 0.820252 0.036256 0.960393
C12   C     C_R   0.539471 0.076183 0.301882 -0.208799
C13   C     C_R   0.436381 0.179099 0.967212 0.914780
C14   C     C_R   0.031663 0.564512 0.821272 0.913605
C15   C     C_R   0.963505 0.437087 0.179897 0.968045
C16   C     C_R   0.820335 0.040262 0.561382 0.936224
C17   C     C_R   0.179458 0.961033 0.438629 0.926962
C18   C     C_R   0.444372 0.064730 0.711508 -0.151736
C19   C     C_R   0.493120 0.060259 0.260240 -0.148664
C20   C     C_R   0.079474 0.704123 0.444741 -0.141952
C21   C     C_R   0.951497 0.288650 0.549574 -0.133094
C22   C     C_R   0.745963 0.510854 0.929649 -0.150089
C23   C     C_R   0.066957 0.659612 0.398515 -0.207595
C24   C     C_R   0.295289 0.558150 0.915064 -0.163158
C25   C     C_R   0.294129 0.939062 0.552328 -0.147245
C26   C     C_R   0.703387 0.080738 0.442866 -0.138382
C27   C     C_R   0.559042 0.301185 0.908598 -0.156478
C28   C     C_R   0.451627 0.709815 0.040925 -0.134582
C29   C     C_R   0.959736 0.547805 0.286916 -0.135157
C30   C     C_R   0.073849 0.444756 0.705160 -0.171283
C31   C     C_R   0.531696 0.049200 0.535986 0.033199
C32   C     C_R   0.441674 0.014045 0.449178 0.033965
C33   C     C_R   0.046567 0.534227 0.534679 0.034693
C34   C     C_R   0.980472 0.326161 0.588963 -0.222224
C35   C     C_R   0.998506 0.451224 0.451504 0.033213
C36   C     C_R   0.557557 0.566110 0.964127 0.034869
C37   C     C_R   0.470860 0.475414 0.929987 0.034750
C38   C     C_R   0.568642 0.057872 0.441889 0.042387
C39   C     C_R   0.406414 0.002907 0.543654 0.046199
C40   C     C_R   0.037693 0.445277 0.579159 0.050391
C41   C     C_R   0.013139 0.538334 0.404945 0.048224
C42   C     C_R   0.464051 0.602660 0.970301 0.044065
C43   C     C_R   0.564909 0.439224 0.921073 0.040880
C44   C     C_R   0.518309 0.048812 0.397042 0.047675
C45   C     C_R   0.705401 0.466602 0.908979 -0.210089
C46   C     C_R   0.446347 0.030008 0.584573 0.050005
C47   C     C_R   0.424087 0.562434 0.942674 0.049677
C48   C     C_R   0.610099 0.489534 0.930743 0.046998
C49   C     C_R   0.008905 0.405486 0.539532 0.046393
C50   C     C_R   0.041482 0.578077 0.445067 0.043626
C51   C     C_R   0.537785 0.062412 0.673157 0.040504
C52   C     C_R   0.429216 0.008864 0.311336 0.027372
C53   C     C_R   0.060990 0.671587 0.540138 0.028210
C54   C     C_R   0.956181 0.324185 0.456676 0.039170
C55   C     C_R   0.692858 0.574174 0.980471 0.028195
C56   C     C_R   0.339016 0.605924 0.926669 -0.217089
C57   C     C_R   0.329602 0.462807 0.931620 0.031413
C58   C     C_R   0.323138 0.957014 0.457207 0.048889
C59   C     C_R   0.669304 0.068677 0.537551 0.036455
C60   C     C_R   0.462906 0.332178 0.929659 0.027915
C61   C     C_R   0.546435 0.680390 0.027558 0.041138
C62   C     C_R   0.959916 0.455468 0.323566 0.038171
C63   C     C_R   0.058752 0.539995 0.672187 0.036156
C64   C     C_R   0.589231 0.066699 0.720667 -0.185962
C65   C     C_R   0.394501 0.972721 0.272153 -0.161242
C66   C     C_R   0.041402 0.725491 0.597077 -0.180418
C67   C     C_R   0.333793 0.962870 0.594516 -0.218905
C68   C     C_R   0.941541 0.278850 0.409920 -0.175976
C69   C     C_R   0.729249 0.606152 0.021870 -0.164089
C70   C     C_R   0.275407 0.404028 0.955751 -0.182821
C71   C     C_R   0.278801 0.941262 0.410671 -0.183971
C72   C     C_R   0.719653 0.068897 0.588653 -0.177798
C73   C     C_R   0.404676 0.276039 0.955552 -0.177679
C74   C     C_R   0.591136 0.722117 0.049584 -0.178203
C75   C     C_R   0.943815 0.408442 0.279159 -0.178324
C76   C     C_R   0.040755 0.597117 0.725554 -0.181626
C77   C     C_R   0.673520 0.084288 0.673223 0.096807
C78   C     C_R   0.654456 0.075456 0.396247 -0.204327
C79   C     C_R   0.325654 0.930144 0.325678 0.086278
C80   C     C_R   0.013356 0.689878 0.690162 0.070557
C81   C     C_R   0.922370 0.326528 0.327896 0.089663
C82   C     C_R   0.674592 0.674482 0.063776 0.083102
C83   C     C_R   0.311297 0.311326 0.984825 0.071162
C84   C     C_R   0.579554 0.060537 0.582056 0.074253
C85   C     C_R   0.399026 0.991990 0.406197 0.074669
C86   C     C_R   0.056115 0.581553 0.581988 0.081828
C87   C     C_R   0.971753 0.410201 0.410437 0.070670
C88   C     C_R   0.598729 0.606273 0.991469 0.074563
C89   C     C_R   0.608875 0.353272 0.905167 -0.202464
C90   C     C_R   0.421535 0.423585 0.929823 0.083280
H1    H     H_    0.331089 0.043034 0.705825 0.140064
H2    H     H_    0.338583 0.698846 0.023765 0.145891
H3    H     H_    0.986931 0.657806 0.291886 0.144570
H4    H     H_    0.068268 0.326795 0.691903 0.141171
H5    H     H_    0.400960 0.086075 0.771634 0.174847
H6    H     H_    0.508200 0.090301 0.187629 0.179111
H7    H     H_    0.101720 0.764585 0.404241 0.191730
H8    H     H_    0.921166 0.234063 0.595209 0.190845
H9    H     H_    0.819412 0.494123 0.904306 0.181657
H10   H     H_    0.233446 0.597344 0.896617 0.174482
H11   H     H_    0.242299 0.903842 0.595540 0.164755
H12   H     H_    0.589297 0.113508 0.258126 0.145082
H13   H     H_    0.766191 0.099078 0.401870 0.191409
H14   H     H_    0.597796 0.236371 0.895790 0.195736
H15   H     H_    0.406152 0.758407 0.078437 0.186556
H16   H     H_    0.931954 0.593936 0.232025 0.189919
H17   H     H_    0.094433 0.403854 0.765482 0.177135
H18   H     H_    0.077961 0.689952 0.326184 0.145754
H19   H     H_    0.975073 0.294581 0.660251 0.141872
H20   H     H_    0.750230 0.416179 0.873630 0.142202
H21   H     H_    0.306401 0.677319 0.921239 0.140575
H22   H     H_    0.308999 0.945987 0.667864 0.141479
H23   H     H_    0.686825 0.082725 0.324440 0.147528
H24   H     H_    0.681226 0.322521 0.894698 0.146166
I1    I     I_    0.722440 0.152487 0.720283 -0.388209
I2    I     I_    0.295116 0.839890 0.287739 -0.376680
I3    I     I_    0.898783 0.770919 0.773314 -0.290627
I4    I     I_    0.844751 0.283125 0.286453 -0.339096
I5    I     I_    0.708034 0.701599 0.158956 -0.315912
I6    I     I_    0.228346 0.229543 0.100788 -0.294633
O1    O     O_R   0.982940 0.138950 0.510160 -0.643496
O2    O     O_R   0.982940 0.510160 0.138950 -0.646876
O3    O     O_R   0.861050 0.017060 0.489840 -0.642421
O4    O     O_R   0.138950 0.982940 0.510160 -0.643539
O5    O     O_R   0.867700 0.025880 0.612340 -0.575632
O6    O     O_R   0.132300 0.974120 0.387660 -0.582675
O7    O     O_R   0.025880 0.612340 0.867700 -0.603120
O8    O     O_R   0.974120 0.387660 0.132300 -0.569580
O9    O     O_R   0.612340 0.867700 0.025880 -0.576531
O10   O     O_R   0.387660 0.132300 0.974120 -0.603942
O11   O     O_R   0.387660 0.974120 0.132300 -0.585350
O12   O     O_R   0.017060 0.861050 0.489840 -0.641255
O13   O     O_R   0.612340 0.025880 0.867700 -0.581420
O14   O     O_R   0.132300 0.387660 0.974120 -0.599523
O15   O     O_R   0.867700 0.612340 0.025880 -0.587637
O16   O     O_R   0.974120 0.132300 0.387660 -0.586477
O17   O     O_R   0.025880 0.867700 0.612340 -0.600930
O18   O     O_R   0.138950 0.510160 0.982940 -0.646160
O19   O     O_R   0.861050 0.489840 0.017060 -0.642549
O20   O     O_R   0.510160 0.982940 0.138950 -0.644310
O21   O     O_R   0.489840 0.017060 0.861050 -0.650305
O22   O     O_R   0.489840 0.861050 0.017060 -0.641251
O23   O     O_R   0.510160 0.138950 0.982940 -0.658046
O24   O     O_R   0.017060 0.489840 0.861050 -0.664771
Zn1   Zn    Zn3+2 0.004880 0.004880 0.583590 0.992841
Zn2   Zn    Zn3+2 0.995120 0.995120 0.416410 1.004101
Zn3   Zn    Zn3+2 0.004880 0.583590 0.004880 0.985012
Zn4   Zn    Zn3+2 0.995120 0.416410 0.995120 0.990168
Zn5   Zn    Zn3+2 0.583590 0.004880 0.004880 1.005613
Zn6   Zn    Zn3+2 0.416410 0.995120 0.995120 0.986488

loop_
_geom_bond_atom_site_label_1
_geom_bond_atom_site_label_2
_ccdc_geom_bond_type
C5    O16   A    
C15   C75   S    
C65   C79   A    
C15   O2    A    
C30   H17   S    
C64   C77   A    
C60   C73   A    
C36   C42   A    
C16   C72   S    
C10   O13   A    
O24   Zn4   S    
C7    C70   S    
C71   C79   A    
O6    Zn2   S    
C36   C88   A    
C12   H12   S    
C1    C18   A    
C26   C78   A    
C37   C90   A    
C8    O19   A    
C68   C81   A    
O17   Zn1   S    
C52   C85   A    
C16   O3    A    
C27   C60   A    
C54   C87   A    
C9    O20   A    
C17   O6    A    
C54   C68   A    
C63   C76   A    
C23   H18   S    
C40   C49   A    
C5    O1    A    
C27   H14   S    
C32   C39   A    
C55   C88   A    
C3    C29   A    
C69   C82   A    
C29   C62   A    
C35   C87   A    
C19   C52   A    
O10   Zn6   S    
C4    C40   A    
C24   C57   A    
C31   C46   A    
C25   C67   A    
C35   C49   A    
C13   O10   A    
O3    Zn2   S    
C36   C48   A    
C53   C86   A    
C57   C70   A    
C37   C47   A    
C43   C48   A    
O18   Zn3   S    
C56   H21   S    
C59   C72   A    
C28   C61   A    
C1    H1    S    
C79   I2    S    
C8    O15   A    
C18   H5    S    
C82   I5    S    
C74   C82   A    
C5    C68   S    
C35   C41   A    
C11   O9    A    
O21   Zn6   S    
C9    O11   A    
C32   C44   A    
C14   O24   A    
O19   Zn4   S    
C33   C40   A    
C57   C90   A    
C20   H7    S    
O13   Zn5   S    
C59   C84   A    
C7    O14   A    
C6    O12   A    
O4    Zn1   S    
C45   H20   S    
O8    Zn4   S    
C23   C50   A    
C21   C34   A    
C38   C78   A    
C33   C50   A    
C81   I4    S    
C4    C30   A    
C14   O7    A    
C10   O21   A    
C14   C76   S    
C83   I6    S    
C37   C43   A    
C33   C86   A    
C38   C44   A    
C72   C77   A    
C70   C83   A    
C61   C88   A    
C26   H13   S    
C17   O4    A    
C20   C23   A    
O23   Zn5   S    
C28   H15   S    
C8    C69   S    
C3    H3    S    
C43   C89   A    
O2    Zn3   S    
C2    H2    S    
C53   C66   A    
C55   C69   A    
C39   C46   A    
C4    H4    S    
C16   O5    A    
C13   C73   S    
C17   C71   S    
O15   Zn3   S    
C15   O8    A    
C63   C86   A    
C61   C74   A    
O1    Zn1   S    
C29   H16   S    
C78   H23   S    
C25   C58   A    
C62   C75   A    
C58   C85   A    
C41   C50   A    
C66   C80   A    
C26   C59   A    
C45   C48   A    
C80   I3    S    
C3    C41   A    
C34   C49   A    
C22   H9    S    
C24   H10   S    
C39   C67   A    
C75   C81   A    
C51   C64   A    
C76   C80   A    
C20   C53   A    
C11   C74   S    
C7    O18   A    
C22   C55   A    
C60   C90   A    
C18   C51   A    
C24   C56   A    
O14   Zn4   S    
C62   C87   A    
C10   C64   S    
C31   C38   A    
O12   Zn2   S    
O22   Zn6   S    
C6    O17   A    
C89   H24   S    
C12   C44   A    
O5    Zn1   S    
C21   H8    S    
C25   H11   S    
C21   C54   A    
C2    C42   A    
C32   C85   A    
C51   C84   A    
C12   C19   A    
C30   C63   A    
C27   C89   A    
C42   C47   A    
C13   O23   A    
C1    C46   A    
C11   O22   A    
C9    C65   S    
C58   C71   A    
C31   C84   A    
C19   H6    S    
C67   H22   S    
C6    C66   S    
C22   C45   A    
C34   H19   S    
O11   Zn6   S    
C2    C28   A    
O9    Zn5   S    
C77   I1    S    
O20   Zn5   S    
C73   C83   A    
O16   Zn2   S    
C52   C65   A    
O7    Zn3   S    
C47   C56   A    
