data_mof_unit_18210.cif
_audit_creation_date              2012-12-10T17:38:48-0500
_audit_creation_method            fapswitch 2.2
_symmetry_space_group_name_H-M    P1
_symmetry_Int_Tables_number       1
_space_group_crystal_system       triclinic
_cell_length_a                    12.443099
_cell_length_b                    13.179338
_cell_length_c                    23.415653
_cell_angle_alpha                 75.770423
_cell_angle_beta                  100.443404
_cell_angle_gamma                 116.9593
_cell_volume                      3306.81529265

loop_
_atom_site_label
_atom_site_type_symbol
_atom_type_description
_atom_site_fract_x
_atom_site_fract_y
_atom_site_fract_z
_atom_type_partial_charge
C1    C     C_R   0.854399 0.285732 0.507904 0.909956
C2    C     C_R   0.214821 0.509827 0.048792 -0.150874
C3    C     C_R   0.220909 0.519644 0.988720 -0.157068
C4    C     C_R   0.142207 0.554097 0.946684 -0.015882
C5    C     C_R   0.059184 0.582256 0.965323 -0.045034
C6    C     C_R   0.990235 0.629047 0.922764 -0.109390
C7    C     C_R   0.909320 0.660938 0.941360 0.099683
C8    C     C_R   0.896522 0.643327 0.002045 0.182814
C9    C     C_R   0.143081 0.560135 0.886005 0.599344
C10   C     C_R   0.006435 0.642697 0.862848 0.625395
C11   C     C_R   0.945175 0.578631 0.743721 0.410354
C12   C     C_R   0.002220 0.504675 0.608434 0.824530
C13   C     C_R   0.952464 0.580966 0.684084 0.261634
C14   C     C_R   0.006634 0.517151 0.669975 -0.204071
C15   C     C_R   0.052631 0.454200 0.716132 -0.333143
C16   C     C_R   0.057533 0.463745 0.774974 0.157251
C17   C     C_R   0.022823 0.544194 0.788255 0.190324
C18   C     C_R   0.002394 0.429489 0.245763 -0.203814
C19   C     C_R   0.993014 0.416938 0.305944 0.056945
C20   C     C_R   0.010718 0.513137 0.328621 -0.034731
C21   C     C_R   0.043205 0.622783 0.291732 0.021793
C22   C     C_R   0.056350 0.635488 0.231437 0.163770
C23   C     C_R   0.144822 0.713893 0.493163 0.793443
C24   C     C_R   0.033070 0.537753 0.208357 0.311575
C25   C     C_R   0.278180 0.031323 0.427981 0.210542
C26   C     C_R   0.227244 0.838257 0.486875 -0.197638
C27   C     C_R   0.791388 0.092073 0.573195 0.092748
C28   C     C_R   0.696556 0.007429 0.606632 0.034198
C29   C     C_R   0.576293 0.987930 0.585997 0.463560
C30   C     C_R   0.550958 0.033124 0.526276 0.012507
C31   C     C_R   0.646152 0.125980 0.494737 -0.067598
C32   C     C_R   0.431946 0.991348 0.498063 -0.047306
C33   C     C_R   0.401776 0.063530 0.448581 -0.023330
C34   C     C_R   0.001535 0.501566 0.391439 0.887507
C35   C     C_R   0.495876 0.160155 0.418400 0.370719
C36   C     C_R   0.617781 0.181989 0.438033 0.064797
C37   C     C_R   0.345822 0.875601 0.514577 0.448388
C38   C     C_R   0.192260 0.918752 0.447734 -0.299030
C39   C     C_R   0.766997 0.162053 0.521412 -0.096035
C40   C     C_R   0.320919 0.299205 0.581685 -0.326698
C41   C     C_R   0.762667 0.648285 0.419582 0.550150
C42   C     C_R   0.657906 0.662088 0.392879 -0.043571
C43   C     C_R   0.546279 0.589787 0.416550 0.442263
C44   C     C_R   0.541295 0.515011 0.472218 -0.192608
C45   C     C_R   0.960366 0.581258 0.106313 0.611439
C46   C     C_R   0.645248 0.492747 0.493920 0.043319
C47   C     C_R   0.435789 0.457971 0.505881 -0.061811
C48   C     C_R   0.421404 0.356875 0.548225 -0.024416
C49   C     C_R   0.512921 0.319907 0.560509 0.014356
C50   C     C_R   0.628074 0.395943 0.541907 0.496187
C51   C     C_R   0.345820 0.499141 0.500725 0.527323
C52   C     C_R   0.236470 0.343291 0.575415 0.346799
C53   C     C_R   0.123112 0.525134 0.128293 0.541786
C54   C     C_R   0.130098 0.534507 0.068025 -0.001170
C55   C     C_R   0.052010 0.571439 0.026130 -0.060593
C56   C     C_R   0.968243 0.598689 0.044921 -0.079855
Cu1   Cu    Cu3+1 0.098270 0.475410 0.513370 0.993612
Cu2   Cu    Cu3+1 0.901730 0.524590 0.486630 1.029078
H1    H     H_    0.276220 0.482105 0.080108 0.190682
H2    H     H_    0.099597 0.891408 0.428742 0.202542
H3    H     H_    0.285962 0.498269 0.975404 0.185496
H4    H     H_    0.310357 0.223517 0.615454 0.154861
H5    H     H_    0.080806 0.393693 0.706965 0.174756
H6    H     H_    0.985481 0.354680 0.227911 0.165605
N1    N     N_R   0.038966 0.548000 0.146242 -0.451187
N2    N     N_R   0.054871 0.579595 0.846541 -0.433860
N3    N     N_R   0.246280 0.438190 0.533650 -0.230816
N4    N     N_R   0.754320 0.561190 0.466710 -0.213755
O1    O     O_R   0.972510 0.318130 0.516820 -0.536820
O2    O     O_2   0.200367 0.494192 0.168698 -0.529417
O3    O     O_2   0.235608 0.554436 0.866800 -0.529667
O4    O     O_2   0.989673 0.728571 0.823321 -0.498791
O5    O     O_R   0.806530 0.359650 0.494230 -0.542618
O6    O     O_R   0.082990 0.479200 0.593420 -0.577705
O7    O     O_R   0.917010 0.520720 0.570830 -0.503304
O8    O     O_R   0.193470 0.640350 0.505770 -0.558696
O9    O     O_R   0.027490 0.681870 0.483180 -0.532331
O10   O     O_R   0.082990 0.479280 0.429170 -0.611436
O11   O     O_R   0.917010 0.520800 0.406580 -0.544242
O12   O     O_2   0.874626 0.596419 0.126374 -0.498913
N5    N     N_3   0.964394 0.306258 0.343958 -0.579250
H7    H     H_    0.032011 0.280827 0.342489 0.234921
H8    H     H_    0.883053 0.246377 0.326807 0.225808
N6    N     N_3   0.065650 0.720797 0.316395 -0.564965
H9    H     H_    0.007437 0.757470 0.293734 0.239601
H10   H     H_    0.154875 0.782140 0.310524 0.225410
N7    N     N_3   0.094787 0.746935 0.193270 -0.562685
H11   H     H_    0.179675 0.802090 0.210033 0.221438
H12   H     H_    0.033248 0.780732 0.193099 0.241338
O13   O     O_3   0.466910 0.221788 0.365943 -0.696716
H13   H     H_    0.535898 0.297984 0.355981 0.321854
N8    N     N_3   0.240299 0.111178 0.385990 -0.486279
H14   H     H_    0.253328 0.177240 0.407428 0.223849
H15   H     H_    0.147696 0.071481 0.373478 0.202383
O14   O     O_3   0.383288 0.796611 0.551731 -0.654932
H16   H     H_    0.319965 0.746846 0.579608 0.338348
N9    N     N_3   0.913312 0.115810 0.595730 -0.537218
H17   H     H_    0.925531 0.040886 0.599628 0.250144
H18   H     H_    0.925099 0.134040 0.638059 0.240520
O15   O     O_3   0.483518 0.933259 0.623382 -0.728091
H19   H     H_    0.514172 0.911675 0.664251 0.326129
N10   N     N_3   0.725190 0.946259 0.662493 -0.592005
H20   H     H_    0.706215 0.972744 0.696523 0.216481
H21   H     H_    0.672174 0.857374 0.664451 0.251761
N11   N     N_3   0.711510 0.251543 0.398428 -0.593918
H22   H     H_    0.686361 0.218352 0.359404 0.233741
H23   H     H_    0.720753 0.336634 0.388232 0.232174
N12   N     N_3   0.145666 0.295070 0.616284 -0.514794
H24   H     H_    0.179074 0.346585 0.648613 0.204989
H25   H     H_    0.137749 0.213183 0.638668 0.187964
N13   N     N_3   0.495401 0.208785 0.596510 -0.593156
H26   H     H_    0.483199 0.207464 0.639733 0.226239
H27   H     H_    0.419047 0.144249 0.578906 0.247480
O16   O     O_3   0.366829 0.607314 0.468135 -0.664067
H28   H     H_    0.291110 0.600833 0.444142 0.364474
O17   O     O_3   0.873136 0.714353 0.396061 -0.690537
H29   H     H_    0.869548 0.779037 0.364875 0.323694
O18   O     O_3   0.443778 0.584995 0.380477 -0.695700
H30   H     H_    0.378012 0.506082 0.390311 0.326072
N14   N     N_3   0.663431 0.743821 0.338883 -0.598061
H31   H     H_    0.608259 0.698570 0.305715 0.274440
H32   H     H_    0.628741 0.798933 0.345065 0.263273
O19   O     O_3   0.721986 0.375144 0.573227 -0.677187
H33   H     H_    0.703039 0.335520 0.614483 0.324265
N15   N     N_3   0.833297 0.704939 0.899876 -0.587841
H34   H     H_    0.886875 0.787596 0.877624 0.271544
H35   H     H_    0.786574 0.649138 0.869803 0.272466
N16   N     N_3   0.811963 0.673653 0.019794 -0.498260
H36   H     H_    0.725657 0.625448 0.001250 0.243086
H37   H     H_    0.835341 0.761590 0.003092 0.236726
O20   O     O_3   0.853401 0.595542 0.759416 -0.693425
H38   H     H_    0.798885 0.605430 0.724208 0.370425
O21   O     O_3   0.904407 0.645093 0.641216 -0.710077
H39   H     H_    0.961539 0.686680 0.609876 0.334834
N17   N     N_3   0.080666 0.379685 0.820828 -0.536047
H40   H     H_    0.162018 0.380677 0.814098 0.253340
H41   H     H_    0.011996 0.297794 0.816296 0.209189

loop_
_geom_bond_atom_site_label_1
_geom_bond_atom_site_label_2
_ccdc_geom_bond_type
C55   C56   A    
C12   O6    A    
O19   H33   S    
C41   C42   A    
O14   H16   S    
C23   O8    A    
N7    H11   S    
C42   N14   S    
N16   H36   S    
C8    C56   A    
O16   H28   S    
Cu1   Cu2   S    
C7    C8    A    
C53   C54   A    
N12   H24   S    
N11   H23   S    
C17   N2    S    
C18   C24   A    
C5    C6    A    
Cu1   O8    S    
C28   C29   A    
N6    H10   S    
C30   C31   A    
C34   O11   A    
C15   C16   A    
N9    H17   S    
C40   H4    S    
O17   H29   S    
C37   O14   S    
C40   C48   A    
C18   C19   A    
C23   C26   S    
C9    N2    A    
O15   H19   S    
Cu2   O9    S    
N9    H18   S    
O18   H30   S    
C8    N16   S    
C27   N9    S    
N13   H26   S    
C45   C56   A    
C27   C39   A    
C16   C17   A    
C53   N1    A    
C44   C47   A    
C49   N13   S    
C20   C34   S    
C10   N2    A    
C21   C22   A    
Cu1   N3    S    
C53   O2    S    
N5    H8    S    
C44   C46   A    
Cu2   O7    S    
N5    H7    S    
C41   N4    A    
C3    H3    S    
C51   O16   S    
N17   H40   S    
N6    H9    S    
C2    C54   A    
C2    H1    S    
C26   C38   A    
C47   C51   A    
C40   C52   A    
C1    O1    A    
N16   H37   S    
C35   C36   A    
Cu1   O6    S    
C43   C44   A    
C46   N4    A    
C29   C30   A    
C25   C38   A    
C47   C48   A    
C31   C39   A    
C21   N6    S    
N8    H15   S    
N13   H27   S    
C51   N3    A    
C32   C37   A    
C23   O9    A    
N10   H21   S    
C52   N3    A    
C24   N1    S    
C38   H2    S    
Cu2   O11   S    
Cu2   N4    S    
C48   C49   A    
C7    N15   S    
C12   C14   S    
N7    H12   S    
C45   N1    A    
O21   H39   S    
C22   C24   A    
C42   C43   A    
C41   O17   S    
O20   H38   S    
N14   H31   S    
N14   H32   S    
C22   N7    S    
N17   H41   S    
C54   C55   A    
C11   C17   A    
C25   N8    S    
C29   O15   S    
C36   N11   S    
C14   C15   A    
C13   O21   S    
Cu1   O10   S    
C5    C55   A    
C50   O19   S    
C9    O3    S    
C4    C5    A    
C11   O20   S    
C6    C10   A    
C26   C37   A    
C6    C7    A    
N11   H22   S    
C46   C50   A    
C1    O5    A    
C32   C33   A    
C19   C20   A    
C2    C3    A    
C19   N5    S    
C34   O10   A    
C30   C32   A    
C11   C13   A    
C18   H6    S    
O13   H13   S    
N15   H34   S    
N8    H14   S    
C33   C35   A    
N12   H25   S    
C45   O12   S    
N10   H20   S    
C1    C39   S    
C43   O18   S    
C35   O13   S    
C28   N10   S    
C20   C21   A    
C52   N12   S    
C49   C50   A    
C12   O7    A    
C27   C28   A    
N15   H35   S    
C15   H5    S    
C31   C36   A    
Cu1   O1    S    
C4    C9    A    
C13   C14   A    
C16   N17   S    
C3    C4    A    
Cu2   O5    S    
C25   C33   A    
C10   O4    S    
