data_mof_unit_60193.cif
_audit_creation_date              2012-12-10T21:26:42-0500
_audit_creation_method            fapswitch 2.2
_symmetry_space_group_name_H-M    P1
_symmetry_Int_Tables_number       1
_space_group_crystal_system       triclinic
_cell_length_a                    10.673197
_cell_length_b                    16.165466
_cell_length_c                    16.825989
_cell_angle_alpha                 87.617162
_cell_angle_beta                  90.334837
_cell_angle_gamma                 91.108282
_cell_volume                      2900.01931496

loop_
_atom_site_label
_atom_site_type_symbol
_atom_type_description
_atom_site_fract_x
_atom_site_fract_y
_atom_site_fract_z
_atom_type_partial_charge
C1    C     C_R   0.501191 0.488874 0.652932 0.857000
C2    C     C_R   0.537604 0.552978 0.780923 -0.215797
C3    C     C_R   0.535768 0.549559 0.862935 -0.160624
C4    C     C_R   0.501022 0.475379 0.904312 0.320588
C5    C     C_R   0.476867 0.403654 0.862947 -0.172930
C6    C     C_R   0.478829 0.406988 0.780272 -0.180522
C7    C     C_R   0.394976 0.468112 0.139608 -0.013157
C8    C     C_R   0.409709 0.460194 0.221786 0.592670
C9    C     C_R   0.453860 0.535312 0.097720 0.259205
C10   C     C_R   0.480246 0.519824 0.261828 -0.198170
C11   C     C_R   0.529472 0.589819 0.220334 -0.294713
C12   C     C_R   0.737212 0.498323 0.507380 0.818795
C13   C     C_R   0.515938 0.597455 0.138431 -0.217420
C14   C     C_R   0.437448 0.762550 0.461359 0.172264
C15   C     C_R   0.437543 0.850247 0.464199 -0.122132
C16   C     C_R   0.520835 0.890065 0.517587 0.186495
C17   C     C_R   0.598270 0.840070 0.566363 0.506665
C18   C     C_R   0.594069 0.753804 0.561648 -0.161511
C19   C     C_R   0.567678 0.150795 0.533946 -0.180318
C20   C     C_R   0.566770 0.237954 0.535970 0.577944
C21   C     C_R   0.480724 0.109835 0.483996 0.047641
C22   C     C_R   0.400985 0.245091 0.442080 0.578685
C23   C     C_R   0.496932 0.511294 0.347245 0.944866
C24   C     C_R   0.397978 0.158692 0.437937 0.436482
C25   C     C_R   0.262481 0.501263 0.499665 0.855204
C26   C     C_2   0.072449 0.548127 0.554996 -0.079895
C27   C     C_2   0.130227 0.506148 0.498907 0.566558
C28   C     C_2   0.937353 0.557986 0.549318 -0.075077
C29   C     C_2   0.866519 0.492029 0.530203 0.567441
C30   C     C_R   0.506238 0.482324 0.739116 -0.030172
H1    H     H_    0.559579 0.605123 0.894004 0.157146
H2    H     H_    0.559190 0.649747 0.106083 0.171801
H3    H     H_    0.562338 0.611288 0.750378 0.172665
H4    H     H_    0.653624 0.716016 0.599942 0.181252
H5    H     H_    0.452439 0.346034 0.894778 0.157857
H6    H     H_    0.456035 0.351548 0.748756 0.180558
H7    H     H_    0.581463 0.637255 0.250931 0.196979
N1    N     N_2   0.489135 0.471550 0.987513 -0.157864
N2    N     N_2   0.460272 0.539148 0.014473 -0.172378
N3    N     N_R   0.515110 0.716920 0.509720 -0.115755
N4    N     N_2   0.529130 0.978137 0.526783 -0.058920
N5    N     N_2   0.473621 0.021836 0.475220 -0.035532
N6    N     N_R   0.484890 0.283060 0.490290 -0.245056
O1    O     O_R   0.494590 0.422540 0.612660 -0.589557
O2    O     O_R   0.504290 0.561850 0.618900 -0.628365
O3    O     O_R   0.676080 0.430360 0.496880 -0.524173
O4    O     O_R   0.685780 0.569670 0.503120 -0.634532
O5    O     O_R   0.495710 0.438150 0.381100 -0.528654
O6    O     O_R   0.505410 0.577460 0.387340 -0.615924
O7    O     O_R   0.314220 0.430330 0.496880 -0.544749
O8    O     O_R   0.323920 0.569640 0.503120 -0.627990
Zn1   Zn    Zn3+2 0.493520 0.406980 0.495830 1.123967
Zn2   Zn    Zn3+2 0.506480 0.593020 0.504170 0.972564
N7    N     N_3   0.141768 0.584570 0.618671 -0.477836
H8    H     H_    0.101861 0.563106 0.672431 0.207093
H9    H     H_    0.131516 0.648745 0.613815 0.201924
F1    F     F_    0.649052 0.277749 0.583563 -0.607475
N8    N     N_3   0.657913 0.105646 0.580815 -0.338859
H10   H     H_    0.645063 0.118976 0.640462 0.237613
H11   H     H_    0.747384 0.126958 0.563970 0.252599
F2    F     F_    0.678052 0.875174 0.618861 -0.639267
F3    F     F_    0.319617 0.291053 0.397732 -0.507488
N9    N     N_3   0.352561 0.897416 0.414847 -0.372494
H12   H     H_    0.370122 0.885965 0.355307 0.205316
H13   H     H_    0.260815 0.878339 0.428526 0.203442
F4    F     F_    0.313890 0.122250 0.388972 -0.572448
F5    F     F_    0.068783 0.475861 0.434780 -0.610618
N10   N     N_3   0.355452 0.720105 0.408415 -0.376004
H14   H     H_    0.262862 0.733921 0.421720 0.169672
H15   H     H_    0.374777 0.740956 0.350074 0.172669
N11   N     N_3   0.885151 0.638001 0.560014 -0.462622
H16   H     H_    0.904258 0.654950 0.618171 0.194929
H17   H     H_    0.930471 0.680727 0.521093 0.209779
F6    F     F_    0.914458 0.414287 0.535544 -0.586798
F7    F     F_    0.353439 0.395256 0.262136 -0.583709
N12   N     N_3   0.320896 0.408442 0.098428 -0.412555
H18   H     H_    0.359063 0.350048 0.109975 0.235260
H19   H     H_    0.230327 0.407623 0.121837 0.236477

loop_
_geom_bond_atom_site_label_1
_geom_bond_atom_site_label_2
_ccdc_geom_bond_type
N9    H13   S    
C12   C29   S    
N4    N5    D    
C13   H2    S    
C19   C20   A    
C7    C8    A    
C26   C27   D    
C28   C29   D    
C19   C21   A    
N12   H19   S    
C5    C6    A    
N6    Zn1   S    
C23   O6    A    
N8    H11   S    
C15   C16   A    
O3    Zn1   S    
C9    N2    S    
C11   H7    S    
C18   N3    A    
C25   O7    A    
C9    C13   A    
C17   F2    S    
C16   C17   A    
O7    Zn1   S    
C24   F4    S    
O4    Zn2   S    
O1    Zn1   S    
O2    Zn2   S    
C12   O4    A    
C26   N7    S    
C19   N8    S    
N7    H9    S    
N12   H18   S    
C12   O3    A    
N11   H17   S    
N10   H14   S    
C29   F6    S    
N8    H10   S    
C8    F7    S    
N9    H12   S    
O8    Zn2   S    
C25   O8    A    
C22   F3    S    
C1    O1    A    
C22   N6    A    
C17   C18   A    
C3    H1    S    
C18   H4    S    
C2    H3    S    
N10   H15   S    
C6    C30   A    
C4    N1    S    
C22   C24   A    
C28   N11   S    
C3    C4    A    
C20   N6    A    
C7    C9    A    
N7    H8    S    
C14   N10   S    
C23   O5    A    
C4    C5    A    
C7    N12   S    
C10   C23   S    
C25   C27   S    
C26   C28   S    
C2    C30   A    
C2    C3    A    
N11   H16   S    
C11   C13   A    
C1    O2    A    
N1    N2    D    
O6    Zn2   S    
C5    H5    S    
C1    C30   S    
C6    H6    S    
C27   F5    S    
C10   C11   A    
C14   N3    A    
C21   N5    S    
O5    Zn1   S    
C8    C10   A    
N3    Zn2   S    
C21   C24   A    
C15   N9    S    
C14   C15   A    
C20   F1    S    
C16   N4    S    
