data_mof_unit_18849.cif
_audit_creation_date              2012-12-11T15:48:13-0500
_audit_creation_method            fapswitch 2.2
_symmetry_space_group_name_H-M    P1
_symmetry_Int_Tables_number       1
_space_group_crystal_system       triclinic
_cell_length_a                    6.913572
_cell_length_b                    17.67148
_cell_length_c                    19.450974
_cell_angle_alpha                 108.562046
_cell_angle_beta                  89.613494
_cell_angle_gamma                 90.850643
_cell_volume                      2252.51066555

loop_
_atom_site_label
_atom_site_type_symbol
_atom_type_description
_atom_site_fract_x
_atom_site_fract_y
_atom_site_fract_z
_atom_type_partial_charge
O1    O     O_R   0.494330 0.415710 0.413720 -0.551089
O2    O     O_R   0.819360 0.430070 0.560210 -0.544649
O3    O     O_R   0.994320 0.584290 0.586280 -0.539570
C1    C     C_R   0.649996 0.415733 0.582232 0.717297
O4    O     O_R   0.823740 0.406290 0.412670 -0.532754
O5    O     O_R   0.998730 0.560340 0.437690 -0.547529
C2    C     C_R   0.653671 0.385178 0.383344 0.689717
O6    O     O_R   0.489920 0.439660 0.562310 -0.537840
O7    O     O_3   0.662330 0.550570 0.508380 -0.372805
V1    V     V_3+5 0.935370 0.490620 0.498440 1.414967
O8    O     O_R   0.328720 0.569930 0.439790 -0.531197
C3    C     C_R   0.161561 0.584090 0.417276 0.743798
O9    O     O_R   0.324340 0.593710 0.587330 -0.543570
C4    C     C_R   0.155489 0.616888 0.615293 0.694721
V2    V     V_3+5 0.435940 0.509380 0.501560 1.414618
O10   O     O_3   0.159110 0.449430 0.491620 -0.371827
C5    C     C_R   0.296413 0.698018 0.735152 -0.134679
H1    H     H_    0.419804 0.658780 0.722914 0.152609
C6    C     C_R   0.284998 0.758589 0.802965 0.001478
C7    C     C_R   0.122499 0.810156 0.818917 -0.111145
C8    C     C_R   0.971583 0.795345 0.767934 -0.066618
H2    H     H_    0.845552 0.833077 0.778494 0.145348
C9    C     C_R   0.981769 0.732760 0.702239 -0.130258
H3    H     H_    0.862348 0.723206 0.664531 0.124975
C10   C     C_R   0.145540 0.684218 0.684597 -0.097498
C11   C     C_R   0.286017 0.617702 0.307244 0.254408
C12   C     C_R   0.157260 0.632487 0.367033 -0.109397
C13   C     C_R   0.021571 0.693492 0.378759 -0.305872
C14   C     C_R   0.011889 0.740169 0.332518 0.113709
C15   C     C_R   0.136452 0.724996 0.272005 0.020397
C16   C     C_R   0.271687 0.662610 0.258338 0.003932
C17   C     C_R   0.878506 0.801957 0.346095 -0.172184
C18   C     C_R   0.868691 0.849202 0.300871 -0.185444
C19   C     C_R   0.990476 0.835381 0.239727 0.048766
C20   C     C_R   0.125307 0.772364 0.225196 -0.031581
C21   C     C_R   0.248843 0.756576 0.164100 0.067533
C22   C     C_R   0.378513 0.692329 0.149128 0.288161
C23   C     C_R   0.388759 0.646487 0.195966 -0.252686
C24   C     C_R   0.979994 0.882577 0.192660 0.228136
C25   C     C_R   0.106864 0.867157 0.132336 -0.136207
C26   C     C_R   0.238918 0.804612 0.118804 -0.286711
H4    H     H_    0.924482 0.705353 0.424902 0.132601
H5    H     H_    0.781613 0.814196 0.392272 0.123975
H6    H     H_    0.764032 0.896495 0.314682 0.133124
H7    H     H_    0.333484 0.793310 0.072049 0.167021
H8    H     H_    0.490272 0.597997 0.182314 0.143492
C27   C     C_R   0.776178 0.190232 0.873106 -0.080753
C28   C     C_R   0.624523 0.133296 0.867245 -0.170235
C29   C     C_R   0.478871 0.123236 0.813527 -0.006664
C30   C     C_R   0.476650 0.174032 0.769964 0.041167
C31   C     C_R   0.630692 0.229289 0.774811 0.017580
C32   C     C_R   0.782184 0.236639 0.825311 0.029799
C33   C     C_R   0.325960 0.169646 0.719962 -0.175537
C34   C     C_R   0.327051 0.218214 0.675968 -0.173315
C35   C     C_R   0.480304 0.271428 0.679044 0.112023
C36   C     C_R   0.633555 0.277174 0.728336 0.004812
C37   C     C_R   0.789854 0.330398 0.730559 0.062658
C38   C     C_R   0.938874 0.338437 0.781518 0.263466
C39   C     C_R   0.932869 0.292472 0.828315 -0.227808
C40   C     C_R   0.483034 0.318374 0.632887 -0.197466
C41   C     C_R   0.641362 0.368703 0.632852 -0.106080
C42   C     C_R   0.794295 0.374016 0.681334 -0.199300
H9    H     H_    0.204508 0.128951 0.714044 0.117110
H10   H     H_    0.208134 0.213369 0.638699 0.126492
H11   H     H_    0.364766 0.313905 0.595388 0.124889
H12   H     H_    0.915860 0.413293 0.681020 0.165680
H13   H     H_    0.048192 0.302239 0.867419 0.178317
C43   C     C_R   0.788072 0.262065 0.296783 -0.157547
H14   H     H_    0.909100 0.269452 0.333678 0.126646
C44   C     C_R   0.786398 0.196718 0.233073 0.021713
C45   C     C_R   0.626953 0.184482 0.184555 -0.137043
C46   C     C_R   0.476206 0.239567 0.202099 -0.121467
H15   H     H_    0.356715 0.231672 0.164609 0.198525
C47   C     C_R   0.478850 0.306145 0.265413 -0.013763
C48   C     C_R   0.638643 0.317764 0.313974 -0.132864
O11   O     O_R   0.774940 0.060470 0.937800 -0.547597
O12   O     O_R   0.440880 0.093730 0.087350 -0.528573
O13   O     O_R   0.266130 0.939630 0.062280 -0.558085
C49   C     C_R   0.611239 0.115823 0.116127 0.696823
O14   O     O_R   0.445480 0.069960 0.939820 -0.517467
O15   O     O_R   0.270770 0.915690 0.913690 -0.537392
C50   C     C_R   0.615020 0.084743 0.917824 0.740878
O16   O     O_R   0.770300 0.084410 0.086380 -0.510738
O17   O     O_3   0.602600 0.949510 0.991670 -0.389667
V3    V     V_3+5 0.329470 0.009370 0.001550 1.538853
O18   O     O_R   0.940760 0.906160 0.912560 -0.539645
C51   C     C_R   0.110337 0.880930 0.886144 0.679183
O19   O     O_R   0.936150 0.929930 0.060100 -0.532398
C52   C     C_R   0.103199 0.916087 0.082758 0.761070
V4    V     V_3+5 0.828930 0.990450 0.998310 1.513847
O20   O     O_3   0.105670 0.050490 0.008320 -0.337565
N1    N     N_2   0.494451 0.671081 0.085247 -0.530883
H16   H     H_    0.487175 0.610881 0.056811 0.258746
C53   C     C_3   0.692330 0.699639 0.096999 -0.542935
H17   H     H_    0.768065 0.671719 0.132868 0.195991
H18   H     H_    0.696018 0.765264 0.121957 0.211775
H19   H     H_    0.769722 0.684357 0.044245 0.205008
C54   C     C_2   0.920838 0.203539 0.932222 0.371167
H20   H     H_    0.872000 0.214309 0.987637 0.053661
O21   O     O_2   0.093912 0.198152 0.919104 -0.548622
C55   C     C_2   0.334505 0.056717 0.800087 0.398140
H21   H     H_    0.181393 0.067690 0.797031 0.065690
O22   O     O_2   0.386975 0.988565 0.791175 -0.544101
N2    N     N_2   0.096399 0.392774 0.786294 -0.525702
H22   H     H_    0.225979 0.373018 0.799835 0.269670
C56   C     C_3   0.057429 0.473870 0.830724 -0.550183
H23   H     H_    0.035137 0.476666 0.888130 0.195906
H24   H     H_    0.926976 0.496653 0.811123 0.211336
H25   H     H_    0.182366 0.513003 0.827893 0.205638
C57   C     C_2   0.437421 0.762585 0.857624 0.365244
H26   H     H_    0.411035 0.792006 0.914854 0.050497
O23   O     O_2   0.593801 0.731026 0.839503 -0.543925
C58   C     C_2   0.952641 0.142521 0.222876 0.415158
H27   H     H_    0.990160 0.118389 0.265721 -0.000713
O24   O     O_2   0.059882 0.130748 0.170610 -0.507808
C59   C     C_2   0.315343 0.362830 0.276751 0.329717
H28   H     H_    0.325277 0.422466 0.314448 0.104039
O25   O     O_2   0.165239 0.343650 0.242441 -0.533668
N3    N     N_2   0.423269 0.555498 0.295408 -0.551487
H29   H     H_    0.419637 0.514324 0.244135 0.246876
C60   C     C_3   0.617139 0.581771 0.320299 -0.486392
H30   H     H_    0.707600 0.528994 0.315736 0.189304
H31   H     H_    0.615148 0.620062 0.377954 0.210902
H32   H     H_    0.683704 0.615885 0.286973 0.187949
N4    N     N_2   0.855019 0.949600 0.208642 -0.532405
H33   H     H_    0.865415 0.987216 0.261298 0.235463
C61   C     C_3   0.656427 0.932027 0.184849 -0.505461
H34   H     H_    0.576587 0.988712 0.195762 0.176860
H35   H     H_    0.583136 0.895129 0.214206 0.180775
H36   H     H_    0.649537 0.899932 0.125791 0.214541

loop_
_geom_bond_atom_site_label_1
_geom_bond_atom_site_label_2
_ccdc_geom_bond_type
C49   O16   A    
C35   C36   A    
C55   H21   S    
C24   N4    S    
C6    C7    A    
C1    O6    A    
C45   C49   S    
V3    O20   S    
C37   C42   A    
C33   C34   A    
C59   H28   S    
C43   C48   A    
C13   C14   A    
C11   C12   A    
O14   V3    S    
C27   C54   S    
C34   H10   S    
C15   C20   A    
C8    H2    S    
C21   C22   A    
C22   C23   A    
C19   C20   A    
C14   C17   A    
O5    C3    A    
C15   C16   A    
C56   H23   S    
V2    O10   S    
C7    C51   S    
C36   C37   A    
C5    H1    S    
C31   C36   A    
C57   H26   S    
C60   H32   S    
C44   C58   S    
C39   H13   S    
O8    V2    S    
C20   C21   A    
C28   C50   S    
C43   H14   S    
C9    H3    S    
C44   C45   A    
O1    V2    S    
C25   C52   S    
O7    V1    S    
O19   C52   A    
N3    C60   S    
O12   V3    S    
C11   C16   A    
C55   O22   D    
O9    C4    A    
C21   C26   A    
C41   C42   A    
O17   V4    S    
N2    C56   S    
N2    H22   S    
C18   C19   A    
O12   C49   A    
O13   C52   A    
C30   C33   A    
C23   H8    S    
C47   C48   A    
C42   H12   S    
C3    C12   S    
C31   C32   A    
C11   N3    S    
C46   C47   A    
O18   V4    S    
O11   C50   A    
C24   C25   A    
O4    C2    A    
O18   C51   A    
C2    C48   S    
C53   H19   S    
C38   C39   A    
C1    C41   S    
C19   C24   A    
C40   C41   A    
O2    C1    A    
C61   H35   S    
C14   C15   A    
C32   C39   A    
C27   C28   A    
N3    H29   S    
C47   C59   S    
N1    C53   S    
C30   C31   A    
O17   V3    S    
C53   H18   S    
C60   H30   S    
O15   C51   A    
O3    C4    A    
O13   V3    S    
O14   C50   A    
C25   C26   A    
O19   V4    S    
C40   H11   S    
C54   H20   S    
O6    V2    S    
C54   O21   D    
C8    C9    A    
N4    H33   S    
C38   N2    S    
V4    O20   S    
C61   H34   S    
O2    V1    S    
C58   H27   S    
C6    C57   S    
O16   V4    S    
C34   C35   A    
C28   C29   A    
C22   N1    S    
O1    C2    A    
C18   H6    S    
C46   H15   S    
O5    V1    S    
O8    C3    A    
C27   C32   A    
C16   C23   A    
C5    C10   A    
C17   C18   A    
O9    V2    S    
O7    V2    S    
C61   H36   S    
C45   C46   A    
O3    V1    S    
V1    O10   S    
C29   C55   S    
C33   H9    S    
C37   C38   A    
C56   H24   S    
C13   H4    S    
N1    H16   S    
C5    C6    A    
C17   H5    S    
C59   O25   D    
C9    C10   A    
C4    C10   S    
C53   H17   S    
C57   O23   D    
C60   H31   S    
O4    V1    S    
C7    C8    A    
C43   C44   A    
C29   C30   A    
C12   C13   A    
N4    C61   S    
C26   H7    S    
C35   C40   A    
O15   V3    S    
O11   V4    S    
C58   O24   D    
C56   H25   S    
