data_mof_unit_32355.cif
_audit_creation_date              2013-03-05T16:44:18-0500
_audit_creation_method            fapswitch 2.2
_symmetry_space_group_name_H-M    P1
_symmetry_Int_Tables_number       1
_space_group_crystal_system       triclinic
_cell_length_a                    23.392804
_cell_length_b                    10.772425
_cell_length_c                    9.990188
_cell_angle_alpha                 89.103224
_cell_angle_beta                  89.003189
_cell_angle_gamma                 89.826054
_cell_volume                      2516.80075705

loop_
_atom_site_label
_atom_site_type_symbol
_atom_site_description
_atom_site_fract_x
_atom_site_fract_y
_atom_site_fract_z
_atom_type_partial_charge
O1    O     O_R   0.500010 0.316790 0.614690 -0.635067
O2    O     O_R   0.500000 0.316760 0.385350 -0.622826
C1    C     C_R   0.500336 0.260658 0.500765 0.926028
O3    O     O_R   0.416160 0.499980 0.614700 -0.581198
O4    O     O_R   0.416150 0.499940 0.385360 -0.576332
C2    C     C_R   0.389675 0.501120 0.500091 1.003728
Zn1   Zn    Zn3+2 0.500000 0.500020 0.653130 1.064756
Zn2   Zn    Zn3+2 0.500000 0.499980 0.346870 1.043861
O5    O     O_R   0.500000 0.683240 0.614650 -0.566502
O6    O     O_R   0.499990 0.683210 0.385310 -0.627356
O7    O     O_R   0.583850 0.500060 0.614640 -0.542391
O8    O     O_R   0.583840 0.500020 0.385300 -0.558518
C3    C     C_R   0.501713 0.738914 0.499507 0.876750
C4    C     C_R   0.610501 0.498092 0.498769 0.967620
C5    C     C_R   0.880119 0.617781 0.476318 0.563337
N1    N     N_R   0.853928 0.505629 0.458230 -0.338831
C6    C     C_R   0.885209 0.402022 0.426494 0.571426
C7    C     C_R   0.944188 0.410741 0.405192 -0.074282
C8    C     C_R   0.971997 0.521506 0.437735 -0.041513
C9    C     C_R   0.939987 0.625068 0.481513 -0.126410
C10   C     C_R   0.975731 0.310504 0.354635 -0.203829
C11   C     C_R   0.035025 0.318430 0.337474 0.516390
C12   C     C_R   0.063594 0.428004 0.374107 -0.174555
C13   C     C_R   0.031927 0.527904 0.428004 -0.078823
C14   C     C_R   0.060179 0.633446 0.474471 -0.047616
C15   C     C_R   0.028549 0.734782 0.521887 -0.206063
C16   C     C_R   0.968855 0.732178 0.525752 0.323011
C17   C     C_R   0.123239 0.439478 0.364443 0.683008
N2    N     N_R   0.150013 0.535327 0.425927 -0.317305
C18   C     C_R   0.119759 0.632003 0.479646 0.576040
O9    O     O_2   0.848265 0.722059 0.484697 -0.474157
O10   O     O_2   0.859559 0.290499 0.417123 -0.514433
H1    H     H_    0.954541 0.225693 0.326649 0.221406
O11   O     O_2   0.154670 0.354802 0.297249 -0.437863
O12   O     O_2   0.147224 0.724786 0.540866 -0.540911
H2    H     H_    0.050137 0.815601 0.559622 0.211722
C19   C     C_R   0.246672 0.624110 0.397558 0.292617
C20   C     C_R   0.304840 0.621023 0.429459 0.353167
C21   C     C_R   0.327778 0.515132 0.494958 -0.336676
C22   C     C_R   0.292495 0.413626 0.527295 0.306124
C23   C     C_R   0.233387 0.425040 0.515120 0.422749
C24   C     C_R   0.210545 0.528269 0.445539 -0.068313
C25   C     C_R   0.760670 0.437008 0.376795 -0.151328
H3    H     H_    0.782039 0.394459 0.292145 0.216740
C26   C     C_R   0.701582 0.426080 0.391840 0.255888
C27   C     C_R   0.673076 0.493198 0.494402 -0.324455
C28   C     C_R   0.705321 0.558471 0.589011 0.262120
C29   C     C_R   0.764809 0.552570 0.581864 -0.146760
H4    H     H_    0.789602 0.598432 0.657034 0.217536
C30   C     C_R   0.792741 0.497532 0.472715 0.152403
C31   C     C_R   0.493898 0.059609 0.617425 -0.066549
C32   C     C_R   0.502325 0.128856 0.500751 -0.038089
C33   C     C_R   0.513958 0.065808 0.380707 -0.153214
H5    H     H_    0.523161 0.115072 0.287913 0.169306
C34   C     C_R   0.514123 0.936872 0.379655 -0.184647
H6    H     H_    0.521973 0.890347 0.285710 0.180115
C35   C     C_R   0.504404 0.870035 0.499575 -0.081740
C36   C     C_R   0.496482 0.934955 0.617482 -0.068078
C37   C     C_3   0.486420 0.923815 0.766624 0.677462
C38   C     C_3   0.480803 0.068776 0.764735 -0.039094
H7    H     H_    0.512946 0.122112 0.819675 0.056824
C39   C     C_R   0.450582 0.512776 0.071866 -0.035089
N3    N     N_R   0.499610 0.499140 0.142800 -0.194898
C40   C     C_R   0.549746 0.501811 0.069514 0.403392
C41   C     C_R   0.549660 0.491703 0.927179 0.436259
N4    N     N_R   0.499610 0.499180 0.857150 -0.198623
C42   C     C_R   0.450641 0.516619 0.930574 0.078883
C43   C     C_3   0.396616 0.444322 0.921001 0.183079
C44   C     C_3   0.397639 0.433417 0.075299 0.620147
H8    H     H_    0.403127 0.357871 0.864091 0.154167
N5    N     N_R   0.671826 0.342649 0.306139 0.259460
O13   O     O_R   0.632398 0.269662 0.356038 -0.409076
O14   O     O_R   0.691182 0.322396 0.185479 -0.358949
N6    N     N_R   0.678886 0.637998 0.686457 0.255578
O15   O     O_R   0.639901 0.717265 0.649649 -0.394545
O16   O     O_R   0.701374 0.649041 0.803897 -0.367642
N7    N     N_R   0.433114 0.858662 0.802791 0.242590
O17   O     O_R   0.430398 0.792191 0.912502 -0.283227
O18   O     O_R   0.386158 0.880756 0.738779 -0.390378
O19   O     O_3   0.533353 0.869285 0.836622 -0.597780
C45   C     C_3   0.584973 0.937260 0.829261 -0.234826
H9    H     H_    0.584390 0.012658 0.903698 0.132366
H10   H     H_    0.595156 0.973803 0.727076 0.177633
H11   H     H_    0.620396 0.874010 0.857522 0.246713
N8    N     N_R   0.422500 0.113625 0.790475 0.227818
O20   O     O_R   0.396106 0.086624 0.902766 -0.319115
O21   O     O_R   0.396755 0.182673 0.702501 -0.370729
O22   O     O_3   0.601269 0.507091 0.133249 -0.542096
C46   C     C_3   0.619694 0.631696 0.130748 -0.091858
H12   H     H_    0.660736 0.637086 0.184316 0.178059
H13   H     H_    0.588468 0.693018 0.183321 0.133788
H14   H     H_    0.627519 0.666371 0.026576 0.198738
O23   O     O_3   0.064495 0.218970 0.283582 -0.561032
C47   C     C_3   0.073311 0.129476 0.385808 -0.120162
H15   H     H_    0.096829 0.169165 0.471108 0.171728
H16   H     H_    0.099839 0.053143 0.344437 0.224363
H17   H     H_    0.032172 0.088443 0.421617 0.171657
O24   O     O_3   0.601078 0.475327 0.860871 -0.524531
C48   C     C_3   0.613488 0.347152 0.859569 -0.179860
H18   H     H_    0.654963 0.333476 0.806219 0.199491
H19   H     H_    0.580527 0.295229 0.804577 0.122909
H20   H     H_    0.617774 0.308026 0.962683 0.187977
O25   O     O_3   0.353214 0.522582 0.870099 -0.527930
C49   C     C_3   0.302315 0.454755 0.855650 -0.103506
H21   H     H_    0.279801 0.441159 0.953144 0.209426
H22   H     H_    0.309617 0.363037 0.809035 0.200296
H23   H     H_    0.273425 0.509592 0.790587 0.156675
N9    N     N_R   0.349313 0.497072 0.139875 0.231674
O26   O     O_R   0.309317 0.432196 0.199726 -0.408151
O27   O     O_R   0.341513 0.615816 0.121271 -0.252393
O28   O     O_3   0.403219 0.309418 0.127359 -0.596201
C50   C     C_3   0.454332 0.246781 0.090187 -0.270630
H24   H     H_    0.490359 0.275033 0.151769 0.177266
H25   H     H_    0.466824 0.259572 0.983702 0.106552
H26   H     H_    0.448396 0.146142 0.110271 0.237581
N10   N     N_R   0.939049 0.833762 0.587074 0.254391
O29   O     O_R   0.906096 0.813123 0.691307 -0.307871
O30   O     O_R   0.953657 0.947382 0.557048 -0.377715
N11   N     N_R   0.224949 0.720409 0.310430 0.286809
O31   O     O_R   0.188598 0.693739 0.218094 -0.331880
O32   O     O_R   0.242697 0.834263 0.319460 -0.306909
O33   O     O_3   0.340639 0.710727 0.374048 -0.532725
C51   C     C_3   0.355474 0.793792 0.474484 -0.083946
H27   H     H_    0.383505 0.747004 0.547954 0.152312
H28   H     H_    0.317040 0.833681 0.525483 0.200581
H29   H     H_    0.379812 0.871857 0.427776 0.180125
O34   O     O_3   0.315560 0.301403 0.567812 -0.578518
C52   C     C_3   0.323106 0.226243 0.454196 0.004420
H30   H     H_    0.357339 0.264004 0.386714 0.169440
H31   H     H_    0.282712 0.215000 0.398317 0.202795
H32   H     H_    0.336734 0.132187 0.487538 0.186398
O35   O     O_3   0.198847 0.326218 0.553512 -0.565473
C53   C     C_3   0.174154 0.350042 0.680215 -0.242447
H33   H     H_    0.155693 0.445196 0.687385 0.146604
H34   H     H_    0.205909 0.333980 0.759800 0.182340
H35   H     H_    0.138667 0.283510 0.698435 0.201822

loop_
_geom_bond_atom_site_label_1
_geom_bond_atom_site_label_2
_geom_bond_distance
_ccdc_geom_bond_type
C34   H6    1.083474 S    
O23   C47   1.410761 S    
N2    C24   1.434494 S    
C26   N5    1.440112 S    
C7    C10   1.401719 A    
C23   C24   1.410834 A    
C33   C34   1.389151 A    
C8    C9    1.412589 A    
C43   O25   1.414045 S    
C52   H30   1.111679 S    
C37   N7    1.469645 S    
C49   H22   1.110340 S    
C45   H9    1.109674 S    
C51   H27   1.107203 S    
C4    C27   1.464514 S    
C33   H5    1.079692 S    
N9    O26   1.301047 A    
Zn1   O7    1.992246 S    
C15   C16   1.396641 A    
C39   N3    1.364966 A    
N6    O16   1.301393 A    
C39   C42   1.411464 A    
C17   N2    1.368516 A    
N1    C30   1.438891 S    
C41   O24   1.375260 S    
C20   C21   1.415070 A    
O7    C4    1.305630 A    
C51   H28   1.114063 S    
C3    C35   1.414098 S    
C5    N1    1.372169 A    
N10   O29   1.301483 A    
C7    C8    1.406011 A    
C19   C24   1.409112 A    
O5    C3    1.288967 A    
C49   H21   1.107078 S    
C28   C29   1.393499 A    
N10   O30   1.300890 A    
C43   C44   1.544701 S    
C53   H35   1.109153 S    
C12   C13   1.412884 A    
C46   H13   1.113725 S    
N2    C18   1.368678 A    
N7    O17   1.300517 A    
C16   N10   1.435423 S    
N11   O32   1.301000 A    
N4    C42   1.363582 A    
C17   O11   1.349518 S    
C37   C38   1.566550 S    
C10   C11   1.397342 A    
O3    Zn1   2.005023 S    
C50   H25   1.104949 S    
C50   H24   1.098558 S    
C45   H10   1.110568 S    
C44   N9    1.465655 S    
N7    O18   1.300096 A    
C5    C9    1.404803 A    
N6    O15   1.301208 A    
N8    O21   1.297552 A    
C42   C43   1.491774 S    
C13   C14   1.405943 A    
O3    C2    1.311158 A    
N11   O31   1.301397 A    
C21   C22   1.402283 A    
N5    O14   1.301652 A    
O35   C53   1.409115 S    
C51   H29   1.109247 S    
C47   H17   1.111385 S    
C36   C37   1.507359 S    
N8    O20   1.300406 A    
C22   O34   1.380134 S    
C31   C32   1.385497 A    
C39   C44   1.506621 S    
C38   H7    1.106165 S    
O1    C1    1.297015 A    
C25   H3    1.082211 S    
C19   C20   1.403103 A    
C23   O35   1.383794 S    
C48   H18   1.109366 S    
C19   N11   1.440813 S    
Zn2   O8    2.005021 S    
C2    C21   1.457056 S    
C6    C7    1.395536 A    
C31   C36   1.343990 A    
C12   C17   1.402619 A    
C46   H14   1.112518 S    
C47   H16   1.109366 S    
C25   C26   1.392915 A    
C20   O33   1.383321 S    
C18   O12   1.350012 S    
C15   H2    1.083821 S    
C29   H4    1.083007 S    
C48   H19   1.111834 S    
O8    C4    1.303143 A    
O24   C48   1.410297 S    
C34   C35   1.403512 A    
C53   H33   1.113943 S    
C11   O23   1.383375 S    
O34   C52   1.412786 S    
C46   H12   1.109385 S    
C52   H32   1.109205 S    
C45   H11   1.108723 S    
C32   C33   1.409457 A    
C14   C18   1.395626 A    
Zn1   O5    2.004899 S    
C27   C28   1.416164 A    
C22   C23   1.395023 A    
O28   C50   1.417855 S    
O1    Zn1   2.016731 S    
O2    Zn2   2.004897 S    
C28   N6    1.437356 S    
O19   C45   1.414334 S    
O6    C3    1.298617 A    
C52   H31   1.113727 S    
C37   O19   1.431567 S    
O4    Zn2   1.992246 S    
C1    C32   1.420458 S    
C25   C30   1.397763 A    
C5    O9    1.349004 S    
C9    C16   1.419081 A    
C40   C41   1.427847 A    
O2    C1    1.293533 A    
C14   C15   1.400932 A    
N5    O13   1.301360 A    
Zn1   N4    2.037938 S    
C44   O28   1.432264 S    
C35   C36   1.388642 A    
O4    C2    1.293510 A    
C29   C30   1.400212 A    
N9    O27   1.302460 A    
C8    C13   1.405423 A    
C49   H23   1.108605 S    
C47   H15   1.113896 S    
Zn2   N3    2.039039 S    
N3    C40   1.371883 A    
C26   C27   1.419072 A    
C48   H20   1.112920 S    
C10   H1    1.083586 S    
O22   C46   1.410760 S    
Zn2   O6    2.016733 S    
C41   N4    1.375827 A    
O25   C49   1.409595 S    
C53   H34   1.108760 S    
C6    O10   1.349796 S    
C11   C12   1.414459 A    
C38   N8    1.465380 S    
C31   C38   1.502680 S    
O33   C51   1.403562 S    
C43   H8    1.107439 S    
C40   O22   1.374618 S    
C50   H26   1.108163 S    
N1    C6    1.371030 A    
