data_mof_unit_14869.cif
_audit_creation_date              2012-12-10T17:52:01-0500
_audit_creation_method            fapswitch 2.2
_symmetry_space_group_name_H-M    P1
_symmetry_Int_Tables_number       1
_space_group_crystal_system       triclinic
_cell_length_a                    14.72986
_cell_length_b                    14.726405
_cell_length_c                    19.350159
_cell_angle_alpha                 76.005298
_cell_angle_beta                  103.332944
_cell_angle_gamma                 114.920549
_cell_volume                      3653.87790532

loop_
_atom_site_label
_atom_site_type_symbol
_atom_type_description
_atom_site_fract_x
_atom_site_fract_y
_atom_site_fract_z
_atom_type_partial_charge
C1    C     C_R   0.880669 0.312187 0.509192 0.795710
C2    C     C_R   0.119462 0.687884 0.490255 0.795517
C3    C     C_R   0.813931 0.204305 0.508804 -0.101860
C4    C     C_R   0.186739 0.796011 0.488456 -0.102549
C5    C     C_R   0.780538 0.028180 0.509602 -0.254605
C6    C     C_R   0.220942 0.973262 0.483937 -0.246905
C7    C     C_R   0.848992 0.129080 0.506736 -0.005884
C8    C     C_R   0.152612 0.872222 0.489541 -0.008351
C9    C     C_R   0.710687 0.177217 0.508380 -0.265682
C10   C     C_R   0.289404 0.822543 0.486844 -0.264151
C11   C     C_R   0.639957 0.078138 0.502935 0.091942
C12   C     C_R   0.360434 0.922376 0.488790 0.091573
C13   C     C_R   0.677141 0.002367 0.507510 0.142429
C14   C     C_R   0.323698 0.998670 0.483875 0.151777
C15   C     C_R   0.533762 0.052143 0.494289 0.071322
C16   C     C_R   0.466510 0.948504 0.495401 0.067715
C17   C     C_R   0.507827 0.874401 0.504919 -0.207834
C18   C     C_R   0.492560 0.126622 0.483027 -0.235972
C19   C     C_R   0.610901 0.901364 0.509800 -0.225221
C20   C     C_R   0.389734 0.099891 0.479224 -0.240628
C21   C     C_R   0.711661 0.663401 0.375900 -0.317155
C22   C     C_R   0.288187 0.337059 0.624735 -0.323841
C23   C     C_R   0.000262 0.500021 0.632573 0.789668
C24   C     C_R   0.999797 0.500074 0.367420 0.788198
C25   C     C_R   0.793803 0.634517 0.396041 0.103319
C26   C     C_R   0.205269 0.364569 0.603400 0.103473
C27   C     C_R   0.716455 0.511964 0.491725 0.010498
C28   C     C_R   0.284444 0.489188 0.509271 0.010622
C29   C     C_R   0.629441 0.537281 0.473925 -0.030501
C30   C     C_R   0.372677 0.465891 0.528716 -0.030105
C31   C     C_R   0.629351 0.616739 0.415121 0.104889
C32   C     C_R   0.373206 0.387513 0.588233 0.105486
C33   C     C_R   0.543550 0.486949 0.512190 0.055335
C34   C     C_R   0.459120 0.516946 0.491136 0.055374
C35   C     C_R   0.464093 0.597912 0.433681 -0.282456
C36   C     C_R   0.539686 0.407852 0.571027 -0.280747
C37   C     C_R   0.546906 0.647478 0.396251 0.000754
C38   C     C_R   0.457618 0.359822 0.609364 0.001335
C39   C     C_R   0.077569 0.480034 0.761112 -0.177637
C40   C     C_R   0.922070 0.519334 0.238954 -0.177903
C41   C     C_R   0.080572 0.479391 0.834092 0.188195
C42   C     C_R   0.919214 0.520281 0.165946 0.187147
C43   C     C_R   0.005736 0.499656 0.854977 0.052733
C44   C     C_R   0.994795 0.501297 0.144925 0.054317
C45   C     C_R   0.929544 0.518653 0.802365 -0.201651
C46   C     C_R   0.071616 0.483385 0.197455 -0.207968
C47   C     C_R   0.927648 0.519167 0.730040 -0.202698
C48   C     C_R   0.073381 0.482620 0.269803 -0.206982
C49   C     C_R   0.001694 0.500002 0.708829 -0.077678
C50   C     C_R   0.998530 0.500370 0.291142 -0.075703
C51   C     C_R   0.997239 0.501501 0.069194 0.409320
C52   C     C_R   0.003326 0.499535 0.930676 0.410083
Cu1   Cu    Cu3+1 0.081740 0.475680 0.518680 0.938573
Cu2   Cu    Cu3+1 0.918260 0.524320 0.481320 0.939075
H1    H     H_    0.134736 0.464488 0.745115 0.152213
H2    H     H_    0.864296 0.533826 0.255053 0.152668
H3    H     H_    0.276360 0.545982 0.464340 0.120320
H4    H     H_    0.724072 0.454170 0.535983 0.121307
H5    H     H_    0.140433 0.325416 0.631759 0.124974
H6    H     H_    0.857231 0.671797 0.366229 0.124383
H7    H     H_    0.713616 0.722505 0.329771 0.151023
H8    H     H_    0.284161 0.275364 0.669200 0.150978
H9    H     H_    0.404916 0.626670 0.417015 0.136565
H10   H     H_    0.600844 0.382077 0.589865 0.137603
H11   H     H_    0.871543 0.534148 0.817221 0.155343
H12   H     H_    0.130231 0.468925 0.182530 0.153428
H13   H     H_    0.868045 0.534382 0.690823 0.152207
H14   H     H_    0.133541 0.468372 0.308933 0.150164
H15   H     H_    0.638904 0.842190 0.516085 0.134452
H16   H     H_    0.361867 0.159237 0.472864 0.138687
H17   H     H_    0.311864 0.763435 0.483246 0.152943
H18   H     H_    0.687360 0.235052 0.513529 0.152468
H19   H     H_    0.807638 0.970065 0.510754 0.143962
H20   H     H_    0.194307 0.032020 0.482185 0.144398
H21   H     H_    0.463147 0.794189 0.509416 0.143721
H22   H     H_    0.537448 0.206935 0.476514 0.146773
N1    N     N_R   0.913470 0.463215 0.955451 -0.244196
N2    N     N_R   0.087101 0.537825 0.044410 -0.247863
N3    N     N_R   0.910562 0.463759 0.023516 -0.238166
N4    N     N_R   0.090015 0.537265 0.976346 -0.238785
N5    N     N_R   0.795420 0.560800 0.453240 -0.174381
N6    N     N_R   0.204580 0.439200 0.546760 -0.173942
O1    O     O_R   0.977910 0.338110 0.524620 -0.572417
O2    O     O_R   0.022090 0.661890 0.475380 -0.571253
O3    O     O_R   0.839850 0.379180 0.493080 -0.586445
O4    O     O_R   0.160150 0.620820 0.506920 -0.586671
O5    O     O_R   0.069040 0.479450 0.615630 -0.589015
O6    O     O_R   0.930960 0.520550 0.384370 -0.589455
O7    O     O_R   0.930990 0.520520 0.584090 -0.585436
O8    O     O_R   0.069010 0.479480 0.415910 -0.585466
C53   C     C_R   0.544912 0.733661 0.338316 0.107873
C54   C     C_R   0.472937 0.716935 0.276028 -0.151782
C55   C     C_R   0.468698 0.798826 0.222660 -0.131707
C56   C     C_R   0.535625 0.897750 0.231438 -0.108498
C57   C     C_R   0.606788 0.914948 0.293648 -0.125311
C58   C     C_R   0.611300 0.833232 0.346981 -0.153584
H23   H     H_    0.420269 0.640666 0.268932 0.128933
H24   H     H_    0.413288 0.785633 0.174631 0.135790
H25   H     H_    0.532074 0.961068 0.190179 0.126280
H26   H     H_    0.658137 0.991569 0.300721 0.132391
H27   H     H_    0.665701 0.847368 0.395243 0.117725
C59   C     C_R   0.463760 0.280883 0.672369 0.106495
C60   C     C_R   0.465983 0.190435 0.662723 -0.164802
C61   C     C_R   0.473276 0.116519 0.722111 -0.127131
C62   C     C_R   0.479157 0.132791 0.791530 -0.106093
C63   C     C_R   0.478033 0.223140 0.801631 -0.132840
C64   C     C_R   0.470711 0.297223 0.742317 -0.157163
H28   H     H_    0.461879 0.177285 0.609319 0.141919
H29   H     H_    0.474540 0.046738 0.714304 0.135281
H30   H     H_    0.484877 0.075548 0.837492 0.126007
H31   H     H_    0.483031 0.235848 0.855429 0.131858
H32   H     H_    0.470428 0.367178 0.750755 0.131113
C65   C     C_3   0.161547 0.453417 0.888033 -0.859561
H33   H     H_    0.126581 0.390493 0.930829 0.239938
H34   H     H_    0.205592 0.428415 0.862624 0.218499
H35   H     H_    0.215571 0.521078 0.912224 0.251653
C66   C     C_3   0.837523 0.545192 0.112149 -0.858267
H36   H     H_    0.871864 0.608343 0.069270 0.239793
H37   H     H_    0.784064 0.477243 0.088066 0.251446
H38   H     H_    0.792962 0.569441 0.137657 0.219853
C67   C     C_R   0.047880 0.849547 0.498662 0.126170
C68   C     C_R   0.987150 0.890587 0.444993 -0.140286
C69   C     C_R   0.887334 0.866848 0.452583 -0.155428
C70   C     C_R   0.847508 0.802169 0.513752 -0.125123
C71   C     C_R   0.908329 0.763198 0.568290 -0.107376
C72   C     C_R   0.008602 0.787503 0.561220 -0.091174
H39   H     H_    0.016628 0.939617 0.396898 0.127460
H40   H     H_    0.840895 0.898101 0.410614 0.125008
H41   H     H_    0.769566 0.782192 0.518927 0.116299
H42   H     H_    0.877624 0.713745 0.615816 0.118519
H43   H     H_    0.055010 0.756461 0.603663 0.106358
C73   C     C_R   0.954430 0.152950 0.498195 0.126302
C74   C     C_R   0.993968 0.216239 0.436051 -0.091109
C75   C     C_R   0.094338 0.241080 0.428893 -0.111189
C76   C     C_R   0.155267 0.201678 0.483004 -0.123099
C77   C     C_R   0.115558 0.136131 0.543917 -0.151378
C78   C     C_R   0.015372 0.111544 0.551525 -0.144776
H44   H     H_    0.947536 0.247578 0.393854 0.105763
H45   H     H_    0.125038 0.291256 0.381580 0.118279
H46   H     H_    0.233296 0.222048 0.477769 0.120167
H47   H     H_    0.162804 0.105227 0.585563 0.135236
H48   H     H_    0.985774 0.061591 0.599311 0.128472

loop_
_geom_bond_atom_site_label_1
_geom_bond_atom_site_label_2
_ccdc_geom_bond_type
C15   C18   A    
Cu2   O6    S    
C62   H30   S    
C55   C56   A    
C27   C29   A    
C64   H32   S    
C2    O2    A    
C57   C58   A    
C9    H18   S    
C4    C8    A    
Cu2   O2    S    
C69   C70   A    
C47   C49   A    
C28   H3    S    
C21   C31   A    
C22   C32   A    
C72   H43   S    
C35   C37   A    
C46   H12   S    
C3    C7    A    
C66   H37   S    
C61   H29   S    
N2    N4    A    
C8    C67   S    
C23   C49   S    
C22   H8    S    
C63   C64   A    
C15   C16   A    
C29   C33   A    
C33   C36   A    
C34   C35   A    
C68   H39   S    
C53   C58   A    
C11   C15   A    
C71   H42   S    
C39   H1    S    
C12   C16   A    
C73   C74   A    
C40   H2    S    
C23   O7    A    
C60   H28   S    
C25   H6    S    
C32   C38   A    
C26   H5    S    
C21   H7    S    
C65   H35   S    
C10   H17   S    
C48   C50   A    
C74   H44   S    
C26   N6    A    
C23   O5    A    
C58   H27   S    
C25   N5    A    
C41   C43   A    
C20   H16   S    
C56   C57   A    
C42   C44   A    
C47   H13   S    
C61   C62   A    
C44   C46   A    
C54   H23   S    
C6    H20   S    
C63   H31   S    
C45   C47   A    
C24   C50   S    
C76   H46   S    
C46   C48   A    
C78   H48   S    
C37   C53   S    
C28   N6    A    
C14   C20   A    
C76   C77   A    
Cu2   O7    S    
C39   C41   A    
C66   H38   S    
C53   C54   A    
C5    C7    A    
C30   C34   A    
C57   H26   S    
C16   C17   A    
C13   C19   A    
C6    C8    A    
C73   C78   A    
Cu1   Cu2   S    
C31   C37   A    
Cu1   N6    S    
C1    C3    S    
C2    C4    S    
C77   H47   S    
C3    C9    A    
C6    C14   A    
C43   C45   A    
C40   C42   A    
C27   N5    A    
C33   C34   A    
C67   C68   A    
N1    N3    A    
C59   C64   A    
Cu1   O5    S    
C48   H14   S    
C9    C11   A    
C7    C73   S    
Cu1   O4    S    
C10   C12   A    
C44   C51   S    
C39   C49   A    
C12   C14   A    
C45   H11   S    
C71   C72   A    
C19   H15   S    
C1    O3    A    
C4    C10   A    
C52   N1    A    
C75   H45   S    
C65   H33   S    
C21   C25   A    
C18   H22   S    
C5    C13   A    
C24   O6    A    
C41   C65   S    
C77   C78   A    
C27   H4    S    
C24   O8    A    
Cu2   O3    S    
C42   C66   S    
C75   C76   A    
C1    O1    A    
C62   C63   A    
Cu1   O1    S    
C36   C38   A    
Cu1   O8    S    
C51   N2    A    
C67   C72   A    
C29   C31   A    
C36   H10   S    
C66   H36   S    
C30   C32   A    
C11   C13   A    
C69   H40   S    
C74   C75   A    
C56   H25   S    
C40   C50   A    
C28   C30   A    
C54   C55   A    
C17   C19   A    
C70   H41   S    
C2    O4    A    
C18   C20   A    
C5    H19   S    
C59   C60   A    
C43   C52   S    
C51   N3    A    
C38   C59   S    
C22   C26   A    
C60   C61   A    
C17   H21   S    
C35   H9    S    
C68   C69   A    
C52   N4    A    
C55   H24   S    
Cu2   N5    S    
C70   C71   A    
C65   H34   S    
