data_mof_unit_55121.cif
_audit_creation_date              2012-12-11T14:01:12-0500
_audit_creation_method            fapswitch 2.2
_symmetry_space_group_name_H-M    P1
_symmetry_Int_Tables_number       1
_space_group_crystal_system       triclinic
_cell_length_a                    18.886904
_cell_length_b                    11.012844
_cell_length_c                    18.735743
_cell_angle_alpha                 90.309885
_cell_angle_beta                  90.576946
_cell_angle_gamma                 89.743391
_cell_volume                      3896.71424656

loop_
_atom_site_label
_atom_site_type_symbol
_atom_type_description
_atom_site_fract_x
_atom_site_fract_y
_atom_site_fract_z
_atom_type_partial_charge
C1    C     C_R   0.272701 0.041313 0.853984 0.554763
C2    C     C_R   0.728613 0.045305 0.148391 0.559584
C3    C     C_R   0.772700 0.541315 0.853983 0.554378
C4    C     C_R   0.228612 0.545303 0.148389 0.559788
C5    C     C_R   0.469510 0.046044 0.072537 0.250256
C6    C     C_R   0.513296 0.060015 0.929387 0.262579
C7    C     C_R   0.969442 0.546006 0.072579 0.250390
C8    C     C_R   0.013219 0.560033 0.929428 0.262432
C9    C     C_R   0.971512 0.658339 0.037445 -0.151455
C10   C     C_R   0.996060 0.665798 0.967928 -0.148445
C11   C     C_R   0.471605 0.158370 0.037395 -0.151459
C12   C     C_R   0.496159 0.165801 0.967878 -0.148393
C13   C     C_2   0.264086 0.633082 0.932148 -0.037814
C14   C     C_2   0.752949 0.575020 0.080987 -0.028634
C15   C     C_2   0.764086 0.133090 0.932149 -0.037932
C16   C     C_2   0.252947 0.075022 0.080986 -0.028413
C17   C     C_2   0.255933 0.603768 0.085429 -0.129428
C18   C     C_2   0.750963 0.579738 0.924834 -0.130471
C19   C     C_2   0.755940 0.103767 0.085432 -0.129697
C20   C     C_2   0.250963 0.079739 0.924833 -0.130285
C21   C     C_2   0.304475 0.547930 0.045129 -0.166901
C22   C     C_2   0.712501 0.503442 0.964733 -0.178791
C23   C     C_2   0.804460 0.047897 0.045122 -0.167101
C24   C     C_2   0.212499 0.003449 0.964731 -0.178692
C25   C     C_2   0.317926 0.586892 0.971463 0.203311
C26   C     C_2   0.701054 0.524239 0.041386 0.199382
C27   C     C_2   0.817917 0.086863 0.971458 0.203237
C28   C     C_2   0.201050 0.024251 0.041383 0.199501
C29   C     C_2   0.512606 0.838375 0.585071 -0.096973
C30   C     C_2   0.514701 0.829696 0.428747 -0.094074
C31   C     C_2   0.986409 0.328485 0.571715 -0.090843
C32   C     C_2   0.987834 0.339555 0.415408 -0.101176
C33   C     C_2   0.546651 0.748624 0.472288 -0.150469
C34   C     C_2   0.531743 0.740825 0.547774 -0.164648
C35   C     C_2   0.968939 0.241581 0.451723 -0.161582
C36   C     C_2   0.955509 0.247071 0.527578 -0.155056
C37   C     C_2   0.271393 0.661841 0.563468 -0.095566
C38   C     C_2   0.746214 0.611901 0.430428 -0.099685
C39   C     C_2   0.770723 0.160811 0.563530 -0.104941
C40   C     C_2   0.246404 0.111543 0.430317 -0.090359
C41   C     C_2   0.259554 0.613589 0.411173 -0.109700
C42   C     C_2   0.742190 0.603258 0.585773 -0.105060
C43   C     C_2   0.759688 0.113532 0.411148 -0.107639
C44   C     C_2   0.242416 0.102998 0.585651 -0.106178
C45   C     C_R   0.473178 0.822784 0.852257 0.584867
C46   C     C_R   0.529058 0.821546 0.146001 0.598155
C47   C     C_R   0.973170 0.322786 0.852263 0.586969
C48   C     C_R   0.029049 0.321544 0.146009 0.595823
C49   C     C_2   0.222943 0.701444 0.444352 -0.153590
C50   C     C_2   0.781314 0.681776 0.549937 -0.154511
C51   C     C_2   0.723284 0.201692 0.444232 -0.149190
C52   C     C_2   0.281735 0.181224 0.549806 -0.158746
C53   C     C_2   0.238450 0.737401 0.518180 -0.167223
C54   C     C_2   0.769855 0.700477 0.474352 -0.150272
C55   C     C_2   0.738904 0.237424 0.518054 -0.163533
C56   C     C_2   0.270415 0.199866 0.474219 -0.148289
C57   C     C_R   0.272772 0.678171 0.859981 0.587380
C58   C     C_R   0.739478 0.634601 0.149138 0.584914
C59   C     C_R   0.772772 0.178174 0.859981 0.587687
C60   C     C_R   0.239477 0.134604 0.149136 0.584113
C61   C     C_R   0.270616 0.047984 0.649578 0.549277
C62   C     C_R   0.729433 0.049392 0.350284 0.551752
C63   C     C_R   0.770588 0.548014 0.649585 0.549514
C64   C     C_R   0.229409 0.549394 0.350288 0.552289
C65   C     C_R   0.472322 0.824179 0.649573 0.549094
C66   C     C_R   0.532429 0.823516 0.353962 0.554540
C67   C     C_R   0.967827 0.322927 0.646222 0.547921
C68   C     C_R   0.027700 0.324788 0.350511 0.558410
C69   C     C_R   0.275476 0.691122 0.638521 0.571681
C70   C     C_R   0.738831 0.641614 0.355912 0.552237
C71   C     C_R   0.775343 0.190783 0.638445 0.566940
C72   C     C_R   0.238880 0.141486 0.355854 0.554464
C73   C     C_R   0.504100 0.827450 0.071672 0.027742
C74   C     C_R   0.507832 0.834232 0.922471 0.035700
C75   C     C_R   0.004062 0.327441 0.071692 0.028411
C76   C     C_R   0.007794 0.334240 0.922493 0.035246
C77   C     C_R   0.492579 0.939704 0.036352 0.017469
C78   C     C_R   0.504742 0.945020 0.961818 0.018565
C79   C     C_R   0.992521 0.439689 0.036381 0.017723
C80   C     C_R   0.004682 0.445024 0.961847 0.018237
C81   C     C_R   0.519237 0.725425 0.958358 -0.144223
C82   C     C_R   0.515581 0.721588 0.031284 -0.158172
C83   C     C_R   0.019196 0.225432 0.958376 -0.144343
C84   C     C_R   0.015538 0.221586 0.031301 -0.158024
Cr1   Cr    Cr6+3 0.230530 0.836340 0.748870 1.017539
Cr2   Cr    Cr6+3 0.769470 0.836340 0.251130 1.013757
Cr3   Cr    Cr6+3 0.730530 0.336340 0.748870 1.014560
Cr4   Cr    Cr6+3 0.269470 0.336340 0.251130 1.017065
Cr5   Cr    Cr6+3 0.387420 0.989430 0.750820 1.052121
Cr6   Cr    Cr6+3 0.612580 0.989430 0.249180 1.061996
Cr7   Cr    Cr6+3 0.887420 0.489430 0.750820 1.054536
Cr8   Cr    Cr6+3 0.112580 0.489430 0.249180 1.060053
Cr9   Cr    Cr6+3 0.385640 0.677860 0.749230 1.057034
Cr10  Cr    Cr6+3 0.614360 0.677860 0.250770 1.057932
Cr11  Cr    Cr6+3 0.885640 0.177860 0.749230 1.056586
Cr12  Cr    Cr6+3 0.114360 0.177860 0.250770 1.060189
H1    H     H_    0.525604 0.640324 0.929741 0.158163
H2    H     H_    0.524033 0.634121 0.056043 0.172936
H3    H     H_    0.025571 0.140336 0.929757 0.158421
H4    H     H_    0.023994 0.134119 0.056057 0.172914
H5    H     H_    0.175471 0.739814 0.420044 0.156084
H6    H     H_    0.827338 0.724922 0.574178 0.158506
H7    H     H_    0.675977 0.240519 0.419851 0.154646
H8    H     H_    0.327750 0.224333 0.574095 0.158899
H9    H     H_    0.214837 0.821146 0.537880 0.133280
H10   H     H_    0.786801 0.787565 0.453582 0.155253
H11   H     H_    0.716338 0.322151 0.537549 0.132076
H12   H     H_    0.287609 0.286821 0.453468 0.155456
H13   H     H_    0.309639 0.580343 0.432366 0.100313
H14   H     H_    0.693801 0.566069 0.562779 0.094063
H15   H     H_    0.809667 0.080009 0.432501 0.092082
H16   H     H_    0.194067 0.065785 0.562606 0.104100
H17   H     H_    0.293743 0.575670 0.546427 0.105871
H18   H     H_    0.728698 0.524166 0.449402 0.084108
H19   H     H_    0.791886 0.073642 0.546667 0.100626
H20   H     H_    0.228679 0.023928 0.449280 0.085098
H21   H     H_    0.955182 0.740889 0.064441 0.106286
H22   H     H_    0.000823 0.754403 0.943681 0.104853
H23   H     H_    0.455286 0.240937 0.064382 0.106455
H24   H     H_    0.500937 0.254398 0.943623 0.104681
H25   H     H_    0.331878 0.467236 0.064245 0.139649
H26   H     H_    0.689253 0.422115 0.941405 0.137840
H27   H     H_    0.831835 0.967171 0.064223 0.139600
H28   H     H_    0.189249 0.922122 0.941404 0.137841
H29   H     H_    0.229987 0.686752 0.067798 0.112485
H30   H     H_    0.773768 0.661919 0.947462 0.106090
H31   H     H_    0.730018 0.186778 0.067813 0.112566
H32   H     H_    0.273770 0.161919 0.947462 0.106048
H33   H     H_    0.211217 0.640723 0.954127 0.069017
H34   H     H_    0.804770 0.589921 0.057953 0.075137
H35   H     H_    0.711221 0.140760 0.954134 0.069026
H36   H     H_    0.304771 0.089911 0.057954 0.075152
H37   H     H_    0.581127 0.678061 0.451116 0.157384
H38   H     H_    0.530780 0.650628 0.570983 0.153438
H39   H     H_    0.969238 0.151896 0.427230 0.153458
H40   H     H_    0.922720 0.174793 0.548294 0.147797
H41   H     H_    0.480273 0.901545 0.448139 0.095854
H42   H     H_    0.517627 0.929030 0.563086 0.115200
H43   H     H_    0.983373 0.429999 0.438438 0.110769
H44   H     H_    0.019359 0.401839 0.552798 0.102111
O1    O     O_R   0.215090 0.709860 0.828130 -0.518747
O2    O     O_R   0.784910 0.709860 0.171870 -0.541837
O3    O     O_R   0.715090 0.209860 0.828130 -0.518686
O4    O     O_R   0.284910 0.209860 0.171870 -0.542038
O5    O     O_R   0.445660 0.919250 0.676780 -0.492785
O6    O     O_R   0.554340 0.919250 0.323220 -0.487542
O7    O     O_R   0.945660 0.419250 0.676780 -0.487038
O8    O     O_R   0.054340 0.419250 0.323220 -0.493024
O9    O     O_R   0.456260 0.718170 0.670000 -0.526934
O10   O     O_R   0.543740 0.718170 0.330000 -0.517620
O11   O     O_R   0.956260 0.218170 0.670000 -0.526049
O12   O     O_R   0.043740 0.218170 0.330000 -0.516014
O13   O     O_R   0.320940 0.626760 0.674370 -0.494391
O14   O     O_R   0.679060 0.626760 0.325630 -0.506069
O15   O     O_R   0.820940 0.126760 0.674370 -0.499871
O16   O     O_R   0.179060 0.126760 0.325630 -0.496869
O17   O     O_3   0.334530 0.834540 0.749640 -0.303881
O18   O     O_3   0.665470 0.834540 0.250360 -0.268004
O19   O     O_3   0.834530 0.334540 0.749640 -0.304940
O20   O     O_3   0.165470 0.334540 0.250360 -0.266580
O21   O     O_R   0.236990 0.958390 0.823710 -0.516926
O22   O     O_R   0.763010 0.958390 0.176290 -0.503190
O23   O     O_R   0.736990 0.458390 0.823710 -0.517315
O24   O     O_R   0.263010 0.458390 0.176290 -0.502950
O25   O     O_R   0.332380 0.074750 0.830850 -0.497934
O26   O     O_R   0.667620 0.074750 0.169150 -0.502486
O27   O     O_R   0.832380 0.574750 0.830850 -0.498002
O28   O     O_R   0.167620 0.574750 0.169150 -0.502565
O29   O     O_R   0.445800 0.917770 0.825070 -0.452018
O30   O     O_R   0.554200 0.917770 0.174930 -0.449205
O31   O     O_R   0.945800 0.417770 0.825070 -0.451202
O32   O     O_R   0.054200 0.417770 0.174930 -0.450321
O33   O     O_R   0.456410 0.716580 0.829970 -0.501110
O34   O     O_R   0.543590 0.716580 0.170030 -0.516762
O35   O     O_R   0.956410 0.216580 0.829970 -0.499287
O36   O     O_R   0.043590 0.216580 0.170030 -0.519182
O37   O     O_R   0.321080 0.625290 0.822650 -0.419468
O38   O     O_R   0.678920 0.625290 0.177350 -0.428899
O39   O     O_R   0.821080 0.125290 0.822650 -0.418774
O40   O     O_R   0.178920 0.125290 0.177350 -0.429946
O41   O     O_R   0.214930 0.711450 0.668160 -0.490351
O42   O     O_R   0.785070 0.711450 0.331840 -0.511584
O43   O     O_R   0.714930 0.211450 0.668160 -0.487831
O44   O     O_R   0.285070 0.211450 0.331840 -0.513833
O45   O     O_R   0.236850 0.959870 0.675420 -0.522221
O46   O     O_R   0.763150 0.959870 0.324580 -0.508403
O47   O     O_R   0.736850 0.459870 0.675420 -0.523846
O48   O     O_R   0.263150 0.459870 0.324580 -0.506262
O49   O     O_R   0.332230 0.076350 0.670880 -0.507301
O50   O     O_R   0.667770 0.076350 0.329120 -0.510259
O51   O     O_R   0.832230 0.576350 0.670880 -0.506555
O52   O     O_R   0.167770 0.576350 0.329120 -0.510953
O53   O     O_3   0.440842 0.037330 0.139900 -0.691741
H45   H     H_    0.427213 0.119489 0.156957 0.327368
O54   O     O_3   0.543158 0.067383 0.862487 -0.671735
H46   H     H_    0.546447 0.153888 0.848486 0.321979
O55   O     O_3   0.940794 0.537262 0.139949 -0.692467
H47   H     H_    0.927163 0.619410 0.157020 0.327215
O56   O     O_3   0.043092 0.567438 0.862537 -0.671089
H48   H     H_    0.046372 0.653948 0.848547 0.322211
O57   O     O_3   0.383621 0.567847 0.941540 -0.670835
H49   H     H_    0.414738 0.528742 0.977726 0.306497
O58   O     O_3   0.637891 0.490801 0.072185 -0.680921
H50   H     H_    0.606915 0.455265 0.034530 0.305573
O59   O     O_3   0.883604 0.067776 0.941529 -0.670904
H51   H     H_    0.914715 0.028655 0.977714 0.306474
O60   O     O_3   0.137883 0.990834 0.072179 -0.681076
H52   H     H_    0.106905 0.955305 0.034523 0.305565

loop_
_geom_bond_atom_site_label_1
_geom_bond_atom_site_label_2
_ccdc_geom_bond_type
C16   C28   D    
Cr3   O23   S    
O58   H50   S    
C38   C70   S    
C7    O55   S    
C72   O16   A    
C37   C69   S    
Cr8   O8    S    
C9    H21   S    
O57   H49   S    
Cr9   O9    S    
C35   C36   S    
C53   H9    S    
C11   H23   S    
C2    O22   A    
Cr7   O7    S    
C81   C82   A    
C3    O27   A    
C62   O50   A    
Cr12  O16   S    
C77   C78   A    
Cr5   O5    S    
C29   H42   S    
Cr1   O1    S    
C50   C54   S    
C7    C79   A    
Cr1   O17   S    
C10   H22   S    
Cr5   O49   S    
Cr7   O27   S    
C47   C76   S    
C66   O10   A    
C25   O57   S    
Cr3   O43   S    
C38   H18   S    
C49   C53   S    
C75   C84   A    
Cr4   O44   S    
C37   H17   S    
C34   H38   S    
C51   H7    S    
Cr12  O12   S    
C24   H28   S    
Cr1   O21   S    
C3    C18   S    
C16   C60   S    
Cr9   O33   S    
Cr11  O35   S    
C56   H12   S    
C48   O32   A    
Cr11  O11   S    
C70   O42   A    
C39   C55   D    
C20   C24   D    
C40   C56   D    
C4    O24   A    
Cr2   O22   S    
C23   C27   S    
C18   C22   D    
Cr12  O36   S    
C9    C10   A    
C2    O26   A    
Cr7   O19   S    
C68   O8    A    
C3    O23   A    
C32   C68   S    
C37   C53   D    
C44   C52   D    
C1    O21   A    
O56   H48   S    
Cr10  O18   S    
C30   H41   S    
C12   H24   S    
Cr6   O26   S    
C61   O49   A    
C47   O31   A    
C82   H2    S    
C48   C75   S    
C13   C25   D    
C43   H15   S    
C36   H40   S    
C76   C83   A    
C41   C49   D    
C6    O54   S    
C64   O52   A    
C61   O45   A    
C22   H26   S    
Cr1   O45   S    
C14   C58   S    
C54   H10   S    
C67   O11   A    
O60   H52   S    
C84   H4    S    
C32   C35   D    
C71   O43   A    
C79   C80   A    
C72   O44   A    
C32   H43   S    
C35   H39   S    
Cr9   O37   S    
Cr3   O47   S    
C41   H13   S    
C51   C55   S    
C18   H30   S    
O59   H51   S    
Cr7   O51   S    
C29   C34   D    
C69   O13   A    
C46   O30   A    
C55   H11   S    
C45   C74   S    
C27   O59   S    
Cr6   O18   S    
C19   C23   D    
C17   H29   S    
C68   O12   A    
C45   O33   A    
Cr2   O46   S    
Cr8   O28   S    
C15   C27   D    
C83   C84   A    
C38   C54   D    
C1    O25   A    
Cr10  O14   S    
C71   O15   A    
Cr6   O30   S    
C46   O34   A    
C33   C34   S    
C15   H35   S    
C58   O38   A    
C64   O48   A    
C14   C26   D    
Cr9   O17   S    
Cr2   O18   S    
Cr5   O25   S    
C30   C66   S    
C42   C50   D    
C29   C65   S    
C4    C17   S    
C44   H16   S    
Cr11  O39   S    
Cr12  O20   S    
Cr10  O34   S    
C50   H6    S    
C39   H19   S    
Cr7   O31   S    
C5    C11   A    
C67   O7    A    
Cr11  O19   S    
C76   C80   A    
C74   C81   A    
C5    C77   A    
C6    C12   A    
C73   C82   A    
Cr2   O2    S    
C5    O53   S    
Cr6   O50   S    
C7    C9    A    
C14   H34   S    
C21   C25   S    
C52   H8    S    
C1    C20   S    
Cr1   O41   S    
C58   O2    A    
C40   C72   S    
C30   C33   D    
C2    C19   S    
C70   O14   A    
C15   C59   S    
C33   H37   S    
C24   C28   S    
Cr2   O42   S    
Cr10  O38   S    
C45   O29   A    
C43   C62   S    
C23   H27   S    
C11   C12   A    
Cr5   O17   S    
C57   O1    A    
C44   C61   S    
C60   O40   A    
C74   C78   A    
C63   O47   A    
C62   O46   A    
C20   H32   S    
Cr8   O20   S    
Cr12  O40   S    
C59   O39   A    
C26   O58   S    
C42   H14   S    
Cr5   O29   S    
Cr6   O6    S    
Cr4   O24   S    
C75   C79   A    
C60   O4    A    
C57   O37   A    
C43   C51   D    
C40   H20   S    
C81   H1    S    
Cr8   O32   S    
C63   O51   A    
C52   C56   S    
C19   H31   S    
Cr3   O19   S    
Cr9   O13   S    
Cr11  O15   S    
Cr4   O20   S    
C21   H25   S    
O55   H47   S    
C16   H36   S    
C17   C21   D    
C66   O6    A    
C6    C78   A    
C31   C67   S    
C47   O35   A    
C59   O3    A    
O54   H46   S    
C4    O28   A    
Cr10  O10   S    
Cr4   O48   S    
C13   C57   S    
C28   O60   S    
C73   C77   A    
C8    C10   A    
O53   H45   S    
C22   C26   S    
C8    C80   A    
C65   O9    A    
C39   C71   S    
C31   C36   D    
C8    O56   S    
C83   H3    S    
C41   C64   S    
Cr3   O3    S    
C31   H44   S    
C65   O5    A    
C42   C63   S    
Cr4   O4    S    
C46   C73   S    
C13   H33   S    
Cr8   O52   S    
C49   H5    S    
C69   O41   A    
C48   O36   A    
