data_mof_unit_26299.cif
_audit_creation_date              2013-03-05T16:00:18-0500
_audit_creation_method            fapswitch 2.2
_symmetry_space_group_name_H-M    P1
_symmetry_Int_Tables_number       1
_space_group_crystal_system       triclinic
_cell_length_a                    7.287717
_cell_length_b                    25.868421
_cell_length_c                    28.825113
_cell_angle_alpha                 89.90646
_cell_angle_beta                  89.796517
_cell_angle_gamma                 90.173598
_cell_volume                      5434.09366265

loop_
_atom_site_label
_atom_site_type_symbol
_atom_site_description
_atom_site_fract_x
_atom_site_fract_y
_atom_site_fract_z
_atom_type_partial_charge
O1    O     O_R   0.600980 0.796780 0.202430 -0.585962
O2    O     O_R   0.399020 0.203220 0.797570 -0.590781
O3    O     O_R   0.399020 0.203220 0.702430 -0.586424
O4    O     O_R   0.600980 0.796780 0.297570 -0.586781
O5    O     O_R   0.100980 0.703220 0.297570 -0.585528
O6    O     O_R   0.899020 0.296780 0.702430 -0.585606
O7    O     O_R   0.899020 0.296780 0.797570 -0.594215
O8    O     O_R   0.100980 0.703220 0.202430 -0.587910
O9    O     O_R   0.271240 0.802920 0.297240 -0.535231
O10   O     O_R   0.728760 0.197080 0.702760 -0.522324
O11   O     O_R   0.728760 0.197080 0.797240 -0.566557
O12   O     O_R   0.271240 0.802920 0.202760 -0.535256
O13   O     O_R   0.771240 0.697080 0.202760 -0.535075
O14   O     O_R   0.228760 0.302920 0.797240 -0.533772
O15   O     O_R   0.228760 0.302920 0.702760 -0.533703
O16   O     O_R   0.771240 0.697080 0.297240 -0.535312
C1    C     C_R   0.438727 0.815317 0.312841 0.996207
C2    C     C_R   0.561335 0.184883 0.687023 1.015021
C3    C     C_R   0.560035 0.184055 0.811996 1.012216
C4    C     C_R   0.439341 0.815494 0.187194 0.985394
C5    C     C_R   0.938812 0.684660 0.187173 0.993600
C6    C     C_R   0.061244 0.315134 0.812970 0.946112
C7    C     C_R   0.061544 0.315341 0.687177 1.006938
C8    C     C_R   0.938398 0.684875 0.312972 0.985751
O17   O     O_3   0.434470 0.717290 0.250000 -0.243331
O18   O     O_3   0.565530 0.282710 0.750000 -0.242068
O19   O     O_3   0.934470 0.782710 0.250000 -0.244315
O20   O     O_3   0.065530 0.217290 0.750000 -0.255717
V1    V     V_3+5 0.159620 0.756070 0.250000 1.342450
V2    V     V_3+5 0.840380 0.243930 0.750000 1.324415
V3    V     V_3+5 0.659620 0.743930 0.250000 1.343465
V4    V     V_3+5 0.340380 0.256070 0.750000 1.333134
C9    C     C_R   0.111796 0.627226 0.367284 -0.111311
C10   C     C_R   0.887821 0.368608 0.629372 -0.107311
C11   C     C_R   0.887507 0.372985 0.867415 -0.122402
C12   C     C_R   0.113007 0.631281 0.129174 -0.106900
C13   C     C_R   0.617039 0.874466 0.133837 -0.111798
C14   C     C_R   0.411732 0.147794 0.883257 -0.106949
C15   C     C_R   0.387563 0.127078 0.632622 -0.105167
C16   C     C_R   0.612676 0.868582 0.370876 -0.108329
H1    H     H_    0.234913 0.638033 0.349243 0.244866
H2    H     H_    0.764883 0.349521 0.640763 0.243721
H3    H     H_    0.764477 0.362276 0.849543 0.247484
H4    H     H_    0.236026 0.650191 0.140467 0.243697
H5    H     H_    0.739526 0.861827 0.150768 0.246285
H6    H     H_    0.310785 0.178386 0.881449 0.159039
H7    H     H_    0.264373 0.137894 0.650482 0.243223
H8    H     H_    0.735522 0.849649 0.359552 0.243823
C17   C     C_R   0.123628 0.591989 0.403888 -0.206905
C18   C     C_R   0.875839 0.404926 0.593636 -0.209168
C19   C     C_R   0.875756 0.408296 0.903948 -0.208891
C20   C     C_R   0.124924 0.595049 0.093383 -0.209506
C21   C     C_R   0.631396 0.911401 0.098454 -0.208811
C22   C     C_R   0.404431 0.113526 0.920739 -0.174202
C23   C     C_R   0.375771 0.091714 0.596138 -0.204451
C24   C     C_R   0.624587 0.904774 0.406694 -0.210481
H9    H     H_    0.257016 0.576360 0.412329 0.198754
H10   H     H_    0.742610 0.412108 0.578493 0.198574
H11   H     H_    0.742519 0.424086 0.912489 0.199749
H12   H     H_    0.258207 0.587769 0.078093 0.198694
H13   H     H_    0.765689 0.926630 0.089799 0.197822
H14   H     H_    0.297596 0.118684 0.946516 0.157521
H15   H     H_    0.242314 0.075981 0.587635 0.198738
H16   H     H_    0.757675 0.912005 0.421960 0.198765
C25   C     C_R   0.966642 0.576794 0.428895 -0.072902
C26   C     C_R   0.032558 0.431022 0.577274 -0.071911
C27   C     C_R   0.032639 0.423351 0.928780 -0.073343
C28   C     C_R   0.968076 0.569145 0.077151 -0.071407
C29   C     C_R   0.475118 0.929020 0.074998 -0.069195
C30   C     C_R   0.533996 0.073803 0.925556 -0.071194
C31   C     C_R   0.532867 0.076540 0.571305 -0.072055
C32   C     C_R   0.467986 0.930709 0.422974 -0.071310
C33   C     C_R   0.796141 0.598954 0.416720 0.435295
C34   C     C_R   0.202929 0.420498 0.598651 0.432733
C35   C     C_R   0.202877 0.400952 0.916477 0.435087
C36   C     C_R   0.797676 0.579797 0.098738 0.432395
C37   C     C_R   0.302903 0.907913 0.087524 0.429866
C38   C     C_R   0.668411 0.067581 0.890428 0.459265
C39   C     C_R   0.703402 0.098880 0.583559 0.436205
C40   C     C_R   0.297848 0.920107 0.401416 0.432388
C41   C     C_R   0.783185 0.630926 0.376994 0.246672
C42   C     C_R   0.216147 0.380475 0.631986 0.246677
C43   C     C_R   0.215892 0.368965 0.876812 0.243414
C44   C     C_R   0.784555 0.619731 0.132091 0.246459
C45   C     C_R   0.288140 0.873091 0.125251 0.258510
C46   C     C_R   0.680567 0.103581 0.853217 0.178039
C47   C     C_R   0.716257 0.130946 0.623176 0.248019
C48   C     C_R   0.284591 0.880203 0.368028 0.245987
C49   C     C_R   0.943214 0.647099 0.352684 -0.344245
C50   C     C_R   0.056297 0.355282 0.649177 -0.354787
C51   C     C_R   0.055986 0.352920 0.852669 -0.344204
C52   C     C_R   0.944467 0.644751 0.149157 -0.349665
C53   C     C_R   0.446965 0.854785 0.148417 -0.351231
C54   C     C_R   0.550533 0.144178 0.849514 -0.320749
C55   C     C_R   0.556191 0.147081 0.647335 -0.338961
C56   C     C_R   0.444320 0.855180 0.350901 -0.350629
N1    N     N_R   0.832622 0.516650 0.487447 -0.028614
N2    N     N_R   0.166535 0.487997 0.516229 -0.028693
N3    N     N_R   0.167202 0.483308 0.987113 -0.028858
N4    N     N_R   0.833669 0.512464 0.016238 -0.028880
N5    N     N_R   0.347372 0.997848 0.024353 -0.032352
N6    N     N_R   0.670053 0.010345 0.980546 -0.041480
N7    N     N_R   0.667213 0.016446 0.512992 -0.028164
N8    N     N_R   0.333597 0.987491 0.483899 -0.028632
N9    N     N_R   0.848136 0.482891 0.522167 -0.077741
N10   N     N_R   0.151024 0.522135 0.481806 -0.077550
N11   N     N_R   0.152068 0.517053 0.021806 -0.077771
N12   N     N_R   0.848790 0.478343 0.981841 -0.077713
N13   N     N_R   0.361271 0.031619 0.989520 -0.076833
N14   N     N_R   0.655925 0.976413 0.015302 -0.088229
N15   N     N_R   0.652004 0.982696 0.478310 -0.077534
N16   N     N_R   0.348811 0.021616 0.518286 -0.077166
C57   C     C_R   0.015718 0.468203 0.537776 0.158792
C58   C     C_R   0.983457 0.537758 0.466934 0.159858
C59   C     C_R   0.984652 0.531999 0.037604 0.159853
C60   C     C_R   0.016162 0.462449 0.966790 0.160111
C61   C     C_R   0.522322 0.038125 0.966333 0.150352
C62   C     C_R   0.493333 0.968776 0.037542 0.162623
C63   C     C_R   0.484573 0.967850 0.462526 0.159433
C64   C     C_R   0.516250 0.037412 0.533321 0.162167
O21   O     O_3   0.638669 0.586335 0.441437 -0.651279
C65   C     C_3   0.584696 0.628538 0.469728 0.215423
H17   H     H_    0.432914 0.627110 0.473197 0.139151
H18   H     H_    0.618887 0.667093 0.454630 0.123784
C66   C     C_3   0.668853 0.624329 0.518215 -0.357608
H19   H     H_    0.633344 0.586291 0.533712 0.225236
H20   H     H_    0.820632 0.627430 0.515648 0.198535
C67   C     C_3   0.598464 0.666981 0.550074 -0.952695
H21   H     H_    0.634880 0.705569 0.535736 0.275813
H22   H     H_    0.662083 0.662944 0.584829 0.273248
H23   H     H_    0.447077 0.664115 0.554001 0.266885
O22   O     O_3   0.360327 0.446285 0.584351 -0.651475
C68   C     C_3   0.413379 0.483112 0.618235 0.219528
H24   H     H_    0.565537 0.485761 0.617590 0.140471
H25   H     H_    0.373981 0.472236 0.654382 0.119632
C69   C     C_3   0.334591 0.536478 0.606941 -0.355655
H26   H     H_    0.373911 0.547702 0.571083 0.226165
H27   H     H_    0.182458 0.535070 0.609291 0.197415
C70   C     C_3   0.405656 0.577430 0.640455 -0.959730
H28   H     H_    0.366744 0.567365 0.676660 0.274926
H29   H     H_    0.344710 0.615471 0.631657 0.273977
H30   H     H_    0.557387 0.580641 0.637835 0.267575
O23   O     O_3   0.360227 0.413317 0.941024 -0.649641
C71   C     C_3   0.412993 0.371008 0.969367 0.211775
H31   H     H_    0.564872 0.371955 0.972391 0.138127
H32   H     H_    0.376966 0.332510 0.954589 0.112608
C72   C     C_3   0.329831 0.375643 0.018064 -0.346704
H33   H     H_    0.366925 0.413647 0.033213 0.225417
H34   H     H_    0.177916 0.372952 0.015944 0.194723
C73   C     C_3   0.399282 0.332937 0.049996 -0.978357
H35   H     H_    0.361436 0.294386 0.035993 0.269972
H36   H     H_    0.336276 0.337277 0.084895 0.275819
H37   H     H_    0.550801 0.335435 0.053506 0.268095
O24   O     O_3   0.640098 0.554198 0.084655 -0.651539
C74   C     C_3   0.586394 0.517299 0.118618 0.219878
H38   H     H_    0.434133 0.515168 0.118509 0.140749
H39   H     H_    0.627261 0.527732 0.154669 0.118182
C75   C     C_3   0.662604 0.463775 0.106842 -0.352886
H40   H     H_    0.622192 0.453050 0.071042 0.225992
H41   H     H_    0.814819 0.464637 0.108758 0.196619
C76   C     C_3   0.590289 0.422736 0.140348 -0.965024
H42   H     H_    0.630071 0.432326 0.176497 0.274678
H43   H     H_    0.649552 0.384584 0.131208 0.273454
H44   H     H_    0.438411 0.420039 0.138109 0.267890
O25   O     O_3   0.146448 0.922536 0.063806 -0.656556
C77   C     C_3   0.095120 0.883446 0.031837 0.208944
H45   H     H_    0.955659 0.869577 0.041425 0.155160
H46   H     H_    0.186828 0.848840 0.031531 0.091634
C78   C     C_3   0.089320 0.906167 0.982802 -0.296711
H47   H     H_    0.005458 0.941966 0.982770 0.238853
H48   H     H_    0.230847 0.916255 0.971454 0.199742
C79   C     C_3   0.007827 0.867918 0.948246 -0.986661
H49   H     H_    0.090808 0.831986 0.947254 0.274962
H50   H     H_    0.007736 0.885453 0.913051 0.275304
H51   H     H_    0.864244 0.858177 0.958050 0.269757
O26   O     O_3   0.790999 0.026784 0.892997 -0.636575
C80   C     C_3   0.741336 0.987438 0.861151 0.273137
H52   H     H_    0.869761 0.967963 0.849988 0.149035
H53   H     H_    0.675389 0.002325 0.828936 0.107953
C81   C     C_3   0.615902 0.947236 0.884310 -0.400350
H54   H     H_    0.681044 0.932819 0.916582 0.231508
H55   H     H_    0.482554 0.965312 0.893451 0.210290
C82   C     C_3   0.579665 0.901487 0.852277 -0.936000
H56   H     H_    0.512703 0.914758 0.819830 0.275149
H57   H     H_    0.487276 0.873426 0.869959 0.273436
H58   H     H_    0.710347 0.881684 0.843560 0.266600
O27   O     O_3   0.861038 0.086400 0.559003 -0.650432
C83   C     C_3   0.915734 0.128643 0.530608 0.212517
H59   H     H_    0.067612 0.127509 0.527435 0.139383
H60   H     H_    0.880966 0.167177 0.545435 0.122704
C84   C     C_3   0.833042 0.124127 0.481987 -0.354815
H61   H     H_    0.869050 0.086101 0.466776 0.225105
H62   H     H_    0.681193 0.126966 0.484251 0.197547
C85   C     C_3   0.904355 0.166792 0.450017 -0.956223
H63   H     H_    0.867555 0.205366 0.464072 0.275513
H64   H     H_    0.841723 0.162531 0.415170 0.272999
H65   H     H_    0.055843 0.164165 0.446379 0.266960
O28   O     O_3   0.140552 0.945730 0.415556 -0.651438
C86   C     C_3   0.088458 0.982631 0.381609 0.219485
H66   H     H_    0.936262 0.984878 0.381855 0.140643
H67   H     H_    0.129492 0.972121 0.345534 0.118123
C87   C     C_3   0.166158 0.036116 0.393255 -0.352478
H68   H     H_    0.125417 0.046949 0.429060 0.226027
H69   H     H_    0.318379 0.035126 0.391248 0.196704
C88   C     C_3   0.095785 0.077143 0.359720 -0.965885
H70   H     H_    0.135954 0.067446 0.323565 0.274147
H71   H     H_    0.156083 0.115266 0.368760 0.274162
H72   H     H_    0.943951 0.079965 0.362040 0.267836
N17   N     N_R   0.605091 0.642811 0.359729 0.235240
O29   O     O_R   0.526906 0.686182 0.371049 -0.448134
O30   O     O_R   0.540830 0.615784 0.325367 -0.397598
N18   N     N_R   0.394416 0.362824 0.644571 0.236559
O31   O     O_R   0.476653 0.382515 0.680459 -0.425915
O32   O     O_R   0.455740 0.320311 0.626186 -0.421391
N19   N     N_R   0.394136 0.356890 0.859455 0.237733
O33   O     O_R   0.471812 0.313510 0.870959 -0.471691
O34   O     O_R   0.459307 0.383801 0.824933 -0.390590
N20   N     N_R   0.606254 0.637439 0.144865 0.237016
O35   O     O_R   0.523136 0.617533 0.180735 -0.427461
O36   O     O_R   0.545447 0.680077 0.126588 -0.416765
N21   N     N_R   0.109390 0.859130 0.141043 0.234769
O37   O     O_R   0.032150 0.817130 0.125677 -0.447653
O38   O     O_R   0.041345 0.882726 0.177000 -0.398541
N22   N     N_R   0.821361 0.097220 0.818695 0.244314
O39   O     O_R   0.777902 0.094090 0.775037 -0.381489
O40   O     O_R   0.990285 0.088936 0.831086 -0.363853
N23   N     N_R   0.894361 0.143010 0.640467 0.235010
O41   O     O_R   0.973043 0.186460 0.629071 -0.453509
O42   O     O_R   0.958588 0.115904 0.674788 -0.356577
N24   N     N_R   0.106203 0.862517 0.355288 0.236950
O43   O     O_R   0.024517 0.882403 0.319410 -0.427054
O44   O     O_R   0.043988 0.819882 0.373575 -0.418930

loop_
_geom_bond_atom_site_label_1
_geom_bond_atom_site_label_2
_geom_bond_distance
_ccdc_geom_bond_type
O17   V3    1.777745 S    
C41   N17   1.425926 S    
C4    C53   1.510327 S    
C48   C56   1.421032 A    
O18   V4    1.777745 S    
O25   C77   1.419442 S    
C35   O23   1.386436 S    
C26   C57   1.494844 S    
C34   O22   1.386292 S    
O12   V1    1.991355 S    
C74   H39   1.115364 S    
C78   H47   1.111088 S    
C29   C37   1.412673 A    
C72   H33   1.109446 S    
C10   H2    1.071919 S    
C27   C60   1.497075 S    
C21   C29   1.403428 A    
N22   O39   1.301377 A    
N14   C62   1.358990 A    
C45   N21   1.423734 S    
C31   C39   1.415191 A    
C76   H42   1.110804 S    
N13   C61   1.358481 A    
O15   V4    1.998294 S    
C77   H46   1.118819 S    
C88   H70   1.110804 S    
C81   H54   1.110359 S    
O16   V3    1.998292 S    
O11   C3    1.341531 A    
C87   H69   1.111021 S    
C31   C64   1.497261 S    
N10   C58   1.358134 A    
C83   C84   1.532038 S    
O8    V1    1.984611 S    
C83   H60   1.114754 S    
C72   H34   1.110993 S    
C46   C54   1.420825 A    
C82   H57   1.110586 S    
C70   H30   1.110933 S    
C85   H65   1.110899 S    
C30   C38   1.416057 A    
C30   C61   1.495287 S    
C37   O25   1.384873 S    
O23   C71   1.419526 S    
C26   C34   1.415052 A    
C29   C62   1.495152 S    
O1    V3    1.983310 S    
C17   H9    1.082292 S    
O19   V1    1.781595 S    
O3    C2    1.349772 A    
O2    V4    1.983308 S    
C48   N24   1.426397 S    
C25   C58   1.495015 S    
C33   C41   1.415047 A    
C65   H18   1.114668 S    
C20   H12   1.082378 S    
C75   C76   1.525520 S    
C17   C25   1.404810 A    
C21   H13   1.082084 S    
C35   C43   1.415538 A    
C15   C23   1.397692 A    
N7    C64   1.359392 A    
O11   V2    1.991353 S    
C81   H55   1.110775 S    
O22   C68   1.419332 S    
C16   C24   1.397609 A    
C73   H37   1.110904 S    
C23   H15   1.082252 S    
C86   C87   1.531577 S    
C6    C51   1.506620 S    
C24   H16   1.082379 S    
O28   C86   1.419385 S    
C11   H3    1.071591 S    
C42   N18   1.426304 S    
C12   C20   1.397630 A    
C79   H51   1.111015 S    
O9    V1    1.997999 S    
N8    C63   1.359369 A    
C41   C49   1.420030 A    
C38   C46   1.421660 A    
O15   C7    1.340091 A    
C85   H63   1.110824 S    
C37   C45   1.414569 A    
C86   H66   1.110855 S    
O16   C8    1.339820 A    
O7    V2    1.984609 S    
C8    C49   1.504447 S    
C74   C75   1.531554 S    
C75   H41   1.111029 S    
C2    C55   1.506689 S    
C78   H48   1.111122 S    
C36   C44   1.415568 A    
C77   H45   1.110650 S    
C46   N22   1.436806 S    
N4    C59   1.359354 A    
C45   C53   1.420435 A    
C34   C42   1.415087 A    
C69   C70   1.525527 S    
C39   C47   1.415721 A    
C76   H43   1.110240 S    
C79   H50   1.110616 S    
O8    C5    1.349665 A    
O5    V1    1.979420 S    
C88   H71   1.110236 S    
C10   C18   1.396176 A    
N4    N12   1.333022 A    
C87   H68   1.109581 S    
O13   C5    1.339931 A    
C84   H61   1.109452 S    
C18   H10   1.082413 S    
C71   C72   1.531985 S    
C72   C73   1.525525 S    
C67   H21   1.110824 S    
C71   H32   1.114821 S    
C82   H58   1.110974 S    
N3    C60   1.359392 A    
N16   C64   1.358346 A    
C71   H31   1.110778 S    
N2    C57   1.358933 A    
C3    C54   1.494603 S    
C22   H14   1.083013 S    
C24   C32   1.405239 A    
C15   H7    1.071464 S    
C87   C88   1.525525 S    
C47   C55   1.420582 A    
C83   H59   1.110770 S    
C82   H56   1.110846 S    
C10   C50   1.399703 A    
N21   O37   1.301182 A    
C9    C49   1.399138 A    
C66   C67   1.525527 S    
C68   H24   1.110880 S    
O12   C4    1.342056 A    
O10   V2    1.998001 S    
N20   O36   1.301237 A    
N23   O41   1.301387 A    
C22   C30   1.404665 A    
C80   C81   1.533126 S    
C40   O28   1.386250 S    
C14   C54   1.404241 A    
N17   O29   1.301386 A    
O21   C65   1.419469 S    
C7    C50   1.505187 S    
C13   C53   1.401365 A    
O3    V4    1.984297 S    
C1    C56   1.507437 S    
C19   C27   1.405416 A    
N24   O44   1.301236 A    
C18   C26   1.404659 A    
O14   C6    1.339658 A    
N11   C59   1.358275 A    
O24   C74   1.419379 S    
N6    C61   1.360238 A    
C39   O27   1.386453 S    
C68   C69   1.531708 S    
O4    C1    1.349932 A    
N15   C63   1.358321 A    
O9    C1    1.340493 A    
O26   C80   1.418722 S    
N23   O42   1.300967 A    
N18   O32   1.301223 A    
C47   N23   1.425891 S    
C25   C33   1.415099 A    
C11   C19   1.397713 A    
C66   H19   1.109467 S    
C78   C79   1.525697 S    
C73   H36   1.110313 S    
N6    N14   1.334399 A    
C19   H11   1.082267 S    
N5    C62   1.359577 A    
C13   H5    1.070627 S    
C43   C51   1.420704 A    
C67   H23   1.110893 S    
C85   H64   1.110310 S    
C76   H44   1.110945 S    
N22   O40   1.301353 A    
C79   H49   1.110810 S    
C69   H27   1.111013 S    
N8    N16   1.333080 A    
C88   H72   1.110939 S    
N9    C57   1.358112 A    
C16   H8    1.071926 S    
O1    C4    1.349559 A    
O6    V2    1.979422 S    
O2    C3    1.342374 A    
N1    C58   1.358959 A    
N1    N9    1.332536 A    
O13   V3    1.997053 S    
O14   V4    1.997051 S    
C69   H26   1.109584 S    
C20   C28   1.405248 A    
C43   N19   1.426046 S    
C70   H28   1.110804 S    
C81   C82   1.525216 S    
C40   C48   1.415778 A    
C44   N20   1.426407 S    
N7    N15   1.333057 A    
C67   H22   1.110302 S    
C28   C36   1.415064 A    
O7    C6    1.349518 A    
N3    N11   1.333022 A    
C33   O21   1.386481 S    
C42   C50   1.420437 A    
C9    H1    1.071601 S    
N12   C60   1.358292 A    
C65   C66   1.532125 S    
N19   O34   1.301090 A    
C16   C56   1.400068 A    
C84   C85   1.525516 S    
C13   C21   1.399818 A    
O27   C83   1.419514 S    
N21   O38   1.301137 A    
C84   H62   1.110986 S    
C70   H29   1.110239 S    
C12   C52   1.400027 A    
N20   O35   1.301178 A    
C75   H40   1.109578 S    
O5    C8    1.348461 A    
N2    N10   1.332548 A    
O10   C2    1.340206 A    
O6    C7    1.348659 A    
C32   C63   1.497102 S    
O20   V2    1.781595 S    
N17   O30   1.301063 A    
C36   O24   1.386238 S    
C80   H53   1.115662 S    
C15   C55   1.399440 A    
C38   O26   1.386848 S    
N19   O33   1.301391 A    
N24   O43   1.301181 A    
C86   H67   1.115309 S    
C14   H6    1.083446 S    
O4    V3    1.984295 S    
C12   H4    1.071905 S    
C28   C59   1.496887 S    
C14   C22   1.397188 A    
C27   C35   1.415125 A    
N18   O31   1.301179 A    
C77   C78   1.530654 S    
C32   C40   1.415176 A    
C80   H52   1.111108 S    
C9    C17   1.396267 A    
C74   H38   1.110856 S    
C66   H20   1.110980 S    
C68   H25   1.115186 S    
C73   H35   1.110833 S    
C44   C52   1.421101 A    
C65   H17   1.110800 S    
N5    N13   1.333198 A    
C23   C31   1.405352 A    
C5    C52   1.507316 S    
C11   C51   1.399482 A    
