data_mof_unit_23954.cif
_audit_creation_date              2012-12-10T19:46:22-0500
_audit_creation_method            fapswitch 2.2
_symmetry_space_group_name_H-M    P1
_symmetry_Int_Tables_number       1
_space_group_crystal_system       triclinic
_cell_length_a                    10.912051
_cell_length_b                    10.99156
_cell_length_c                    10.476777
_cell_angle_alpha                 90.938088
_cell_angle_beta                  92.04974
_cell_angle_gamma                 87.231598
_cell_volume                      1254.18487166

loop_
_atom_site_label
_atom_site_type_symbol
_atom_type_description
_atom_site_fract_x
_atom_site_fract_y
_atom_site_fract_z
_atom_type_partial_charge
C1    C     C_R   0.495515 0.261512 0.498468 0.872580
C2    C     C_R   0.497155 0.738586 0.500966 0.874950
C3    C     C_R   0.872427 0.505328 0.507026 -0.162214
C4    C     C_R   0.128070 0.490371 0.492601 -0.160938
C5    C     C_R   0.944525 0.450442 0.607481 -0.152836
C6    C     C_R   0.055998 0.543394 0.391621 -0.159291
C7    C     C_R   0.459255 0.202829 0.056247 0.328430
C8    C     C_R   0.713844 0.830484 0.881287 0.306937
C9    C     C_R   0.434643 0.171996 0.181294 -0.194879
C10   C     C_R   0.665123 0.875264 0.764954 -0.164680
C11   C     C_R   0.521918 0.106414 0.257484 -0.044040
C12   C     C_R   0.537966 0.887672 0.740440 -0.012016
C13   C     C_R   0.635120 0.066185 0.205443 0.435868
C14   C     C_R   0.457393 0.854828 0.835557 0.368437
C15   C     C_R   0.657263 0.091925 0.078988 -0.164677
C16   C     C_R   0.505893 0.809063 0.951293 -0.167134
C17   C     C_R   0.574617 0.164332 0.005403 0.271421
C18   C     C_R   0.632551 0.798437 0.977032 0.262215
C19   C     C_R   0.468730 0.933008 0.384815 0.403650
C20   C     C_R   0.471053 0.068096 0.611691 0.416502
C21   C     C_R   0.487577 0.872444 0.501800 -0.190089
C22   C     C_R   0.484042 0.128121 0.495783 -0.178533
C23   C     C_R   0.261738 0.496323 0.497387 0.873746
C24   C     C_R   0.738466 0.502015 0.502598 0.880318
C25   C     C_R   0.493469 0.941468 0.616847 -0.182338
C26   C     C_R   0.485436 0.058538 0.380906 -0.171886
C27   C     C_1   0.500147 0.501062 0.072129 0.208159
C28   C     C_1   0.500058 0.501304 0.927959 0.083124
C29   C     C_R   0.127165 0.729442 0.107201 -0.157649
C30   C     C_R   0.883053 0.260672 0.892851 -0.086638
C31   C     C_R   0.110503 0.700208 0.234678 -0.174270
C32   C     C_R   0.899524 0.290395 0.765433 -0.150926
C33   C     C_R   0.109792 0.577574 0.270236 0.123213
C34   C     C_R   0.890870 0.412863 0.728231 0.115948
C35   C     C_R   0.136197 0.485389 0.179674 -0.111981
C36   C     C_R   0.855514 0.503321 0.817491 -0.123183
C37   C     C_R   0.153396 0.514924 0.052930 -0.173963
C38   C     C_R   0.836239 0.473048 0.943802 -0.197793
C39   C     C_R   0.144144 0.636497 0.015745 0.218727
C40   C     C_R   0.854012 0.352392 0.982582 0.192437
C41   C     C_R   0.927841 0.554632 0.401523 0.403354
C42   C     C_R   0.072899 0.439735 0.597292 0.397260
Cu1   Cu    Cu3+1 0.500000 0.500000 0.625300 1.035742
Cu2   Cu    Cu3+1 0.500000 0.500000 0.374700 1.063244
H1    H     H_    0.743563 0.060269 0.039305 0.200769
H2    H     H_    0.443777 0.784341 0.023819 0.208498
H3    H     H_    0.120056 0.823721 0.078440 0.188393
H4    H     H_    0.897502 0.167136 0.922564 0.171656
H5    H     H_    0.088813 0.772191 0.303204 0.168959
H6    H     H_    0.928589 0.219620 0.698419 0.165845
H7    H     H_    0.135508 0.390425 0.205586 0.166334
H8    H     H_    0.849322 0.597957 0.790291 0.184719
H9    H     H_    0.167164 0.442906 0.982751 0.188016
H10   H     H_    0.813189 0.544050 0.012689 0.171242
H11   H     H_    0.345537 0.197426 0.218821 0.182534
H12   H     H_    0.727293 0.901024 0.692733 0.181220
N1    N     N_1   0.500010 0.499990 0.186410 -0.114748
N2    N     N_1   0.499990 0.500010 0.813590 -0.147477
O1    O     O_R   0.499990 0.319650 0.605810 -0.519874
O2    O     O_R   0.500010 0.680350 0.394190 -0.491467
O3    O     O_R   0.499990 0.319640 0.394190 -0.603864
O4    O     O_R   0.500010 0.680360 0.605810 -0.599913
O5    O     O_R   0.319640 0.500010 0.605810 -0.509620
O6    O     O_R   0.680360 0.499990 0.394190 -0.505315
O7    O     O_R   0.319650 0.500010 0.394190 -0.608231
O8    O     O_R   0.680350 0.499990 0.605810 -0.608448
I1    I     I_    0.138148 0.676988 0.820399 -0.337086
I2    I     I_    0.848727 0.312098 0.178153 -0.417443
O9    O     O_3   0.726065 0.000913 0.273801 -0.698454
H13   H     H_    0.709420 0.006013 0.365992 0.332651
O10   O     O_3   0.331669 0.871452 0.822316 -0.707610
H14   H     H_    0.308013 0.894050 0.733480 0.344234
O11   O     O_3   0.443940 0.867153 0.273874 -0.678730
H15   H     H_    0.402101 0.921633 0.209894 0.320138
O12   O     O_3   0.439217 0.135574 0.718347 -0.690710
H16   H     H_    0.408391 0.082207 0.783559 0.353129
O13   O     O_3   0.853339 0.616301 0.311363 -0.683579
H17   H     H_    0.890559 0.611787 0.226802 0.336100
O14   O     O_3   0.147977 0.377698 0.686547 -0.696190
H18   H     H_    0.112304 0.384679 0.771706 0.339296
O15   O     O_3   0.612486 0.195543 0.887005 -0.698954
H19   H     H_    0.575418 0.276253 0.865193 0.354328
O16   O     O_3   0.671641 0.760403 0.097166 -0.674388
H20   H     H_    0.751447 0.795653 0.119349 0.362046
O17   O     O_3   0.366387 0.265859 0.988594 -0.748783
H21   H     H_    0.387206 0.272142 0.898405 0.369340
O18   O     O_3   0.840022 0.820389 0.896599 -0.724351
H22   H     H_    0.863012 0.759507 0.962707 0.321481

loop_
_geom_bond_atom_site_label_1
_geom_bond_atom_site_label_2
_ccdc_geom_bond_type
C38   C40   A    
O18   H22   S    
O11   H15   S    
Cu1   Cu2   S    
O15   H19   S    
Cu2   O7    S    
Cu1   O5    S    
O13   H17   S    
Cu2   O6    S    
C4    C42   A    
C29   H3    S    
C30   H4    S    
C19   C21   A    
C1    O1    A    
C41   O13   S    
C2    O2    A    
C20   C25   A    
C15   C17   A    
C14   O10   S    
C19   C26   A    
Cu1   N2    S    
C7    C17   A    
C6    C41   A    
C31   C33   A    
C9    H11   S    
C10   H12   S    
C34   C36   A    
C36   H8    S    
Cu1   O1    S    
C37   H9    S    
C23   O5    A    
C1    C22   S    
C24   O6    A    
C3    C24   S    
C31   H5    S    
C19   O11   S    
C4    C6    A    
C27   N1    T    
C16   H2    S    
C4    C23   S    
C11   C26   S    
O17   H21   S    
C8    C18   A    
C20   O12   S    
C32   C34   A    
O12   H16   S    
O16   H20   S    
C38   H10   S    
Cu2   N1    S    
C5    C34   S    
C29   C39   A    
C2    C21   S    
C18   O16   S    
C30   C40   A    
C16   C18   A    
C9    C11   A    
C32   H6    S    
C10   C12   A    
C8    C10   A    
C12   C14   A    
C13   C15   A    
C35   H7    S    
C14   C16   A    
C15   H1    S    
C5    C42   A    
C7    C9    A    
C21   C25   A    
C3    C41   A    
C35   C37   A    
C39   I1    S    
C20   C22   A    
C3    C5    A    
C1    O3    A    
C28   N2    T    
Cu2   O3    S    
C6    C33   S    
C12   C25   S    
C8    O18   S    
C23   O7    A    
C36   C38   A    
O10   H14   S    
C29   C31   A    
C30   C32   A    
C11   C13   A    
C7    O17   S    
C13   O9    S    
Cu2   O2    S    
Cu1   O8    S    
C33   C35   A    
C17   O15   S    
O9    H13   S    
C22   C26   A    
O14   H18   S    
C42   O14   S    
C24   O8    A    
C37   C39   A    
C40   I2    S    
C27   C28   S    
C2    O4    A    
Cu1   O4    S    
