data_mof_unit_37888.cif
_audit_creation_date              2012-12-10T17:44:28-0500
_audit_creation_method            fapswitch 2.2
_symmetry_space_group_name_H-M    P1
_symmetry_Int_Tables_number       1
_space_group_crystal_system       triclinic
_cell_length_a                    9.958409
_cell_length_b                    10.721503
_cell_length_c                    15.559469
_cell_angle_alpha                 93.164195
_cell_angle_beta                  66.806176
_cell_angle_gamma                 90.059071
_cell_volume                      1524.28698221

loop_
_atom_site_label
_atom_site_type_symbol
_atom_type_description
_atom_site_fract_x
_atom_site_fract_y
_atom_site_fract_z
_atom_type_partial_charge
C1    C     C_R   0.504227 0.738818 0.491870 0.907514
C2    C     C_R   0.728517 0.410437 0.032463 -0.004521
C3    C     C_R   0.587213 0.460270 0.087146 0.047900
C4    C     C_R   0.407978 0.499114 0.676349 0.939909
C5    C     C_R   0.827550 0.390659 0.074841 -0.147390
C6    C     C_R   0.787162 0.422236 0.170229 -0.130809
C7    C     C_R   0.557110 0.505586 0.178723 -0.224312
C8    C     C_R   0.282383 0.882040 0.447286 -0.398282
C9    C     C_R   0.145912 0.941402 0.466474 0.490836
C10   C     C_R   0.110991 0.053338 0.522370 0.452214
C11   C     C_R   0.221314 0.114006 0.543167 -0.399665
C12   C     C_R   0.415355 0.461369 0.912992 0.054044
C13   C     C_R   0.363932 0.061051 0.512378 0.066534
C14   C     C_R   0.384732 0.936496 0.479558 0.053666
C15   C     C_R   0.507249 0.871337 0.481571 -0.113587
C16   C     C_R   0.495269 0.260564 0.506162 0.864162
C17   C     C_R   0.623793 0.935849 0.489655 -0.166027
C18   C     C_R   0.617665 0.063360 0.498753 -0.227357
C19   C     C_R   0.488402 0.127072 0.511306 -0.088424
C20   C     C_R   0.795953 0.684844 0.617536 0.514963
C21   C     C_R   0.842119 0.778717 0.665405 0.458809
C22   C     C_R   0.983886 0.776564 0.658776 -0.362293
C23   C     C_R   0.269474 0.495343 0.973086 -0.045476
C24   C     C_R   0.075999 0.676351 0.612577 -0.181273
C25   C     C_R   0.039262 0.587478 0.556311 0.089505
C26   C     C_R   0.894445 0.589380 0.557000 -0.005487
C27   C     C_R   0.961495 0.415569 0.446442 -0.077363
C28   C     C_R   0.592466 0.497618 0.323987 0.849940
C29   C     C_R   0.104165 0.415657 0.446462 -0.091458
C30   C     C_R   0.351966 0.492642 0.778753 -0.181792
C31   C     C_R   0.651192 0.480369 0.222105 -0.072594
C32   C     C_R   0.167398 0.524522 0.935838 -0.244789
C33   C     C_R   0.210388 0.533018 0.839125 0.525371
C34   C     C_R   0.521570 0.441838 0.951442 0.000715
C35   C     C_R   0.450634 0.453281 0.816383 -0.299028
C36   C     C_3   0.092838 0.810723 0.358499 0.053778
C37   C     C_3   0.972954 0.787086 0.322570 -0.780221
C38   C     C_3   0.911606 0.153888 0.640373 0.144004
C39   C     C_3   0.747516 0.172233 0.670840 -0.773524
C40   C     C_3   0.632507 0.839051 0.794151 0.158194
C41   C     C_3   0.592186 0.940662 0.872849 -0.874850
C42   C     C_3   0.062619 0.701685 0.845112 0.080075
C43   C     C_3   0.896457 0.703193 0.887930 -0.787448
C44   C     C_R   0.479789 0.464734 0.049204 -0.016208
C45   C     C_R   0.330956 0.488198 0.107221 -0.297327
C46   C     C_R   0.227968 0.504103 0.069752 0.584447
C47   C     C_R   0.668238 0.403103 0.896323 -0.323534
C48   C     C_R   0.767893 0.382471 0.936880 0.603579
F1    F     F_    0.088198 0.533672 0.128619 -0.723075
F2    F     F_    0.653851 0.692106 0.636238 -0.671486
F3    F     F_    0.904829 0.339492 0.881561 -0.676551
H1    H     H_    0.934068 0.347614 0.035194 0.197967
H2    H     H_    0.184319 0.346437 0.402561 0.152989
H3    H     H_    0.859991 0.398855 0.203687 0.196100
H4    H     H_    0.056364 0.550785 0.982013 0.205953
H5    H     H_    0.557327 0.421516 0.768136 0.176113
H6    H     H_    0.290169 0.492725 0.182711 0.166176
H7    H     H_    0.709971 0.385782 0.821655 0.167314
H8    H     H_    0.128413 0.718462 0.372491 0.155762
H9    H     H_    0.185037 0.855329 0.302675 0.142072
H10   H     H_    0.927296 0.877172 0.312858 0.250182
H11   H     H_    0.018336 0.732171 0.254335 0.259194
H12   H     H_    0.719888 0.888334 0.489281 0.226618
H13   H     H_    0.884527 0.733149 0.373054 0.262611
H14   H     H_    0.956726 0.246523 0.648655 0.153735
H15   H     H_    0.930534 0.087757 0.687561 0.174240
H16   H     H_    0.698570 0.085130 0.655883 0.296816
H17   H     H_    0.695917 0.196078 0.747213 0.204719
H18   H     H_    0.724499 0.249045 0.633201 0.241817
H19   H     H_    0.655637 0.750834 0.821015 0.123346
H20   H     H_    0.536017 0.825214 0.775984 0.200063
H21   H     H_    0.555830 0.026999 0.851187 0.260898
H22   H     H_    0.501819 0.908961 0.936136 0.216725
H23   H     H_    0.310237 0.794780 0.405869 0.177307
H24   H     H_    0.688002 0.961921 0.890271 0.261941
H25   H     H_    0.102184 0.769329 0.790084 0.146103
H26   H     H_    0.102429 0.738031 0.899259 0.115737
H27   H     H_    0.856500 0.650759 0.952494 0.242616
H28   H     H_    0.853998 0.800906 0.906194 0.209302
H29   H     H_    0.854951 0.658578 0.837472 0.262055
H30   H     H_    0.194059 0.201157 0.584688 0.196467
H31   H     H_    0.714360 0.111575 0.496661 0.217970
H32   H     H_    0.935111 0.346388 0.402569 0.149068
H33   H     H_    0.458547 0.559560 0.218689 0.146448
H34   H     H_    0.020368 0.851139 0.693437 0.174838
H35   H     H_    0.175165 0.670368 0.622929 0.248552
N1    N     N_R   0.856800 0.501200 0.500850 -0.103239
N2    N     N_R   0.142390 0.501280 0.500880 -0.112143
O1    O     O_R   0.385310 0.683220 0.500000 -0.655052
O2    O     O_3   0.973370 0.107790 0.545612 -0.603181
O3    O     O_3   0.751830 0.878793 0.715380 -0.607300
O4    O     O_3   0.115467 0.580877 0.803362 -0.586593
O5    O     O_R   0.614640 0.683250 0.500010 -0.549652
O6    O     O_R   0.319840 0.499980 0.632240 -0.594878
O7    O     O_R   0.549160 0.500000 0.632250 -0.558008
O8    O     O_R   0.385360 0.316750 0.499990 -0.619713
O9    O     O_R   0.614690 0.316780 0.500000 -0.634284
O10   O     O_R   0.450840 0.500000 0.367750 -0.624600
O11   O     O_R   0.680160 0.500020 0.367760 -0.612889
O12   O     O_3   0.036824 0.888374 0.441911 -0.594840
Zn1   Zn    Zn3+2 0.346880 0.499980 0.499990 0.942889
Zn2   Zn    Zn3+2 0.653120 0.500020 0.500010 0.979664

loop_
_geom_bond_atom_site_label_1
_geom_bond_atom_site_label_2
_ccdc_geom_bond_type
C40   H20   S    
C27   C29   A    
C39   H17   S    
C36   H8    S    
C37   H11   S    
C45   C46   A    
C11   H30   S    
C43   H27   S    
C46   F1    S    
C45   H6    S    
C40   H19   S    
C30   C35   A    
C21   C22   A    
C36   C37   S    
C3    C7    A    
C38   C39   S    
C16   O9    A    
C43   H28   S    
C4    O7    A    
C18   C19   A    
C22   H34   S    
C29   N2    A    
C20   F2    S    
C48   F3    S    
C38   H15   S    
O6    Zn1   S    
C26   N1    A    
C8    C14   A    
C5    H1    S    
C1    C15   S    
C9    C10   A    
C32   H4    S    
O9    Zn2   S    
O7    Zn2   S    
C6    C31   A    
C23   C46   A    
C13   C14   A    
C6    H3    S    
N2    Zn1   S    
C3    C44   A    
C16   O8    A    
C7    C31   A    
C13   C19   A    
C34   C44   A    
C24   C25   A    
C33   O4    S    
C8    C9    A    
C2    C48   A    
C25   C26   A    
C25   N2    A    
C32   C33   A    
C41   H24   S    
N1    Zn2   S    
C47   C48   A    
C12   C23   A    
C38   H14   S    
C8    H23   S    
C17   C18   A    
C39   H18   S    
C36   O12   S    
C12   C35   A    
C27   N1    A    
C41   H21   S    
C4    O6    A    
C28   O11   A    
C40   C41   S    
C9    O12   S    
C22   C24   A    
C2    C5    A    
C42   C43   S    
C12   C34   A    
C37   H13   S    
C44   C45   A    
C21   O3    S    
C28   O10   A    
C15   C17   A    
C1    O1    A    
C30   C33   A    
O1    Zn1   S    
C35   H5    S    
C39   H16   S    
C28   C31   S    
C36   H9    S    
O5    Zn2   S    
C37   H10   S    
O10   Zn1   S    
C38   O2    S    
C42   H25   S    
C23   C32   A    
C27   H32   S    
C2    C3    A    
C43   H29   S    
C20   C26   A    
C17   H12   S    
C47   H7    S    
C11   C13   A    
C5    C6    A    
C29   H2    S    
C16   C19   S    
C18   H31   S    
C7    H33   S    
C42   O4    S    
C40   O3    S    
C10   C11   A    
C41   H22   S    
O11   Zn2   S    
C20   C21   A    
C10   O2    S    
C42   H26   S    
C1    O5    A    
C14   C15   A    
C34   C47   A    
O8    Zn1   S    
C24   H35   S    
C4    C30   S    
