data_mof_unit_51818.cif
_audit_creation_date              2012-12-10T19:04:45-0500
_audit_creation_method            fapswitch 2.2
_symmetry_space_group_name_H-M    P1
_symmetry_Int_Tables_number       1
_space_group_crystal_system       triclinic
_cell_length_a                    15.842439
_cell_length_b                    10.79965
_cell_length_c                    9.568738
_cell_angle_alpha                 90.234199
_cell_angle_beta                  89.99041
_cell_angle_gamma                 89.582722
_cell_volume                      1637.08501676

loop_
_atom_site_label
_atom_site_type_symbol
_atom_type_description
_atom_site_fract_x
_atom_site_fract_y
_atom_site_fract_z
_atom_type_partial_charge
C1    C     C_R   0.504239 0.262619 0.499809 0.818919
C2    C     C_3   0.082705 0.497158 0.497925 0.158082
C3    C     C_3   0.971313 0.592293 0.417253 -0.227607
C4    C     C_3   0.916830 0.500013 0.499156 0.127573
C5    C     C_3   0.027453 0.482437 0.366631 -0.209201
C6    C     C_3   0.971162 0.390280 0.447960 -0.132585
C7    C     C_1   0.174459 0.498023 0.498834 0.007668
C8    C     C_1   0.825240 0.500912 0.499791 -0.055700
C9    C     C_R   0.464155 0.063822 0.595205 -0.067250
C10   C     C_R   0.513490 0.129077 0.501394 -0.080694
C11   C     C_R   0.576365 0.064223 0.422739 0.135416
C12   C     C_R   0.339866 0.499959 0.499945 0.842807
C13   C     C_R   0.575334 0.931711 0.421286 0.115421
C14   C     C_R   0.513251 0.869898 0.502310 -0.136548
C15   C     C_R   0.464600 0.937396 0.596515 -0.114108
C16   C     C_3   0.372562 0.931550 0.633537 0.289900
C17   C     C_3   0.372432 0.073300 0.632480 0.186958
C18   C     C_R   0.566848 0.451396 0.073038 0.182011
C19   C     C_R   0.431802 0.542189 0.074440 -0.069931
C20   C     C_R   0.431665 0.541619 0.926034 -0.071541
C21   C     C_R   0.566938 0.454477 0.925535 0.220556
C22   C     C_3   0.654659 0.501430 0.917443 -0.481598
C23   C     C_R   0.503007 0.737195 0.500197 0.844629
C24   C     C_3   0.657356 0.494292 0.075801 -0.095135
C25   C     C_R   0.660054 0.500965 0.500061 0.796648
C26   C     C_3   0.971654 0.514677 0.630982 -0.231378
C27   C     C_3   0.027767 0.405187 0.579319 -0.206093
C28   C     C_1   0.250086 0.498983 0.499622 -0.150437
C29   C     C_1   0.749695 0.501330 0.500128 -0.197018
C30   C     C_3   0.027127 0.604087 0.547755 0.462348
Cu1   Cu    Cu3+1 0.500000 0.499980 0.640670 0.942785
Cu2   Cu    Cu3+1 0.500000 0.500020 0.359330 0.939300
H1    H     H_    0.052079 0.328218 0.644864 0.155605
H2    H     H_    0.361532 0.891342 0.738644 0.094922
H3    H     H_    0.360611 0.115941 0.736937 0.074121
H4    H     H_    0.377339 0.578294 0.129562 0.152290
H5    H     H_    0.377004 0.577100 0.871290 0.152338
H6    H     H_    0.697053 0.435200 0.861683 0.204100
H7    H     H_    0.657382 0.598101 0.878121 0.192054
H8    H     H_    0.664495 0.585871 0.127629 0.188989
H9    H     H_    0.947933 0.529789 0.738949 0.138815
H10   H     H_    0.946186 0.301651 0.406490 0.138888
H11   H     H_    0.051396 0.468491 0.258627 0.151589
H12   H     H_    0.947268 0.670026 0.352582 0.139958
N1    N     N_R   0.500530 0.500930 0.147930 -0.196098
N2    N     N_R   0.500530 0.500890 0.852020 -0.183452
O1    O     O_R   0.500000 0.319640 0.618810 -0.586548
O2    O     O_R   0.500010 0.319680 0.381230 -0.579202
O3    O     O_R   0.379070 0.499970 0.618770 -0.582222
O4    O     O_R   0.379080 0.500010 0.381190 -0.575801
O5    O     O_R   0.499990 0.680320 0.618770 -0.575960
O6    O     O_R   0.500000 0.680360 0.381190 -0.577976
O7    O     O_R   0.620920 0.499990 0.618810 -0.581821
O8    O     O_R   0.620930 0.500030 0.381230 -0.594147
O9    O     O_3   0.323693 0.123895 0.524080 -0.686791
H13   H     H_    0.322996 0.214701 0.540069 0.314059
C31   C     C_3   0.720984 0.395570 0.126779 -0.361533
C32   C     C_3   0.811670 0.441475 0.115163 -0.831718
H14   H     H_    0.828357 0.459285 0.004385 0.251453
H15   H     H_    0.819617 0.528048 0.176724 0.255336
H16   H     H_    0.855636 0.370197 0.157072 0.238989
H17   H     H_    0.709288 0.373636 0.237263 0.234179
H18   H     H_    0.714333 0.307895 0.066441 0.193876
O10   O     O_3   0.058794 0.715607 0.599777 -0.706533
H19   H     H_    0.008430 0.766530 0.623345 0.313563
C33   C     C_3   0.646706 0.135590 0.351325 -0.433809
C34   C     C_3   0.713576 0.174153 0.457515 -0.859100
H20   H     H_    0.685608 0.235330 0.538951 0.249021
H21   H     H_    0.741166 0.091035 0.508592 0.252449
H22   H     H_    0.765078 0.224607 0.404138 0.241651
H23   H     H_    0.678358 0.082492 0.267234 0.213274
H24   H     H_    0.621295 0.217429 0.296730 0.214419
C35   C     C_3   0.640584 0.857547 0.338241 -0.388283
C36   C     C_3   0.617377 0.850419 0.183140 -0.820755
H25   H     H_    0.671060 0.810205 0.123344 0.223709
H26   H     H_    0.561396 0.790827 0.167508 0.271754
H27   H     H_    0.602772 0.943294 0.139960 0.240773
H28   H     H_    0.704353 0.897675 0.351516 0.195328
H29   H     H_    0.647983 0.762119 0.378917 0.195195
O11   O     O_3   0.321886 0.876778 0.529366 -0.666609
H30   H     H_    0.341676 0.904574 0.436188 0.361463

loop_
_geom_bond_atom_site_label_1
_geom_bond_atom_site_label_2
_ccdc_geom_bond_type
O9    H13   S    
C30   O10   S    
C18   C21   A    
Cu2   N1    S    
C19   C20   A    
C4    C8    S    
C12   O3    A    
C31   C32   S    
C31   H17   S    
C27   H1    S    
C26   C27   S    
C36   H26   S    
C12   C28   S    
C18   C24   S    
C8    C29   T    
C25   O7    A    
C19   H4    S    
C5    C6    S    
C32   H15   S    
C15   C16   S    
C22   H6    S    
C35   C36   S    
Cu2   O6    S    
C16   H2    S    
C33   H24   S    
C2    C7    S    
C24   C31   S    
Cu1   N2    S    
C35   H28   S    
C2    C27   S    
C9    C10   A    
C17   O9    S    
C11   C33   S    
C32   H16   S    
C33   C34   S    
C5    H11   S    
Cu1   O1    S    
C21   C22   S    
Cu2   O2    S    
C6    C27   S    
Cu1   O3    S    
Cu2   O8    S    
C31   H18   S    
C25   C29   S    
C3    H12   S    
C36   H25   S    
C34   H20   S    
C25   O8    A    
C4    C6    S    
C1    O1    A    
C32   H14   S    
C36   H27   S    
C7    C28   T    
C34   H21   S    
C14   C23   S    
C3    C30   S    
C23   O5    A    
C33   H23   S    
C35   H29   S    
Cu1   O7    S    
Cu2   O4    S    
C9    C17   S    
C13   C35   S    
C26   C30   S    
C22   C24   S    
C2    C5    S    
C3    C4    S    
C18   N1    A    
C21   N2    A    
Cu1   Cu2   S    
C1    C10   S    
Cu1   O5    S    
O11   H30   S    
C3    C5    S    
C4    C26   S    
C19   N1    A    
C1    O2    A    
C2    C30   S    
C34   H22   S    
O10   H19   S    
C9    C15   A    
C20   H5    S    
C11   C13   A    
C23   O6    A    
C16   C17   S    
C22   H7    S    
C24   H8    S    
C10   C11   A    
C6    H10   S    
C14   C15   A    
C17   H3    S    
C16   O11   S    
C13   C14   A    
C12   O4    A    
C20   N2    A    
C26   H9    S    
