data_mof_unit_40610.cif
_audit_creation_date              2012-12-11T16:22:26-0500
_audit_creation_method            fapswitch 2.2
_symmetry_space_group_name_H-M    P1
_symmetry_Int_Tables_number       1
_space_group_crystal_system       triclinic
_cell_length_a                    16.86382
_cell_length_b                    16.844255
_cell_length_c                    19.570828
_cell_angle_alpha                 117.695799
_cell_angle_beta                  62.50128
_cell_angle_gamma                 100.690637
_cell_volume                      4363.20726391

loop_
_atom_site_label
_atom_site_type_symbol
_atom_type_description
_atom_site_fract_x
_atom_site_fract_y
_atom_site_fract_z
_atom_type_partial_charge
C1    C     C_R   0.024929 0.759703 0.023666 -0.157932
C2    C     C_R   0.741039 0.513927 0.253439 0.045487
C3    C     C_R   0.747892 0.451585 0.925805 -0.039263
C4    C     C_R   0.993021 0.757306 0.255785 0.035428
C5    C     C_R   0.261165 0.516192 0.960609 -0.163832
C6    C     C_R   0.925760 0.260891 0.833416 -0.098922
C7    C     C_R   0.160431 0.502549 0.756994 -0.227394
C8    C     C_R   0.022005 0.314620 0.078590 0.419596
C9    C     C_R   0.950873 0.245238 0.997282 -0.194889
C10   C     C_R   0.238529 0.573407 0.832470 0.516455
C11   C     C_R   0.195501 0.436015 0.034151 -0.094923
C12   C     C_R   0.749003 0.467364 0.171297 -0.009697
C13   C     C_R   0.994225 0.339993 0.758428 -0.110827
C14   C     C_R   0.277845 0.449822 0.975965 0.113291
C15   C     C_R   0.949042 0.262479 0.755982 0.055493
C16   C     C_R   0.239522 0.545789 0.753766 -0.044400
C17   C     C_R   0.985217 0.233191 0.044131 0.029437
C18   C     C_R   0.910110 0.919312 0.486229 -0.153195
C19   C     C_R   0.945568 0.842111 0.410940 -0.173115
C20   C     C_R   0.954803 0.838145 0.334682 0.139174
C21   C     C_R   0.921320 0.908902 0.335342 -0.148686
C22   C     C_R   0.883987 0.985835 0.411404 -0.076850
C23   C     C_R   0.819177 0.506037 0.908828 -0.209182
C24   C     C_R   0.882957 0.992964 0.486019 0.138805
C25   C     C_R   0.945051 0.141223 0.542095 0.491489
C26   C     C_R   0.964918 0.202892 0.608942 -0.251884
C27   C     C_R   0.917741 0.205380 0.690545 0.064019
C28   C     C_R   0.843380 0.152122 0.707298 -0.141655
C29   C     C_R   0.822730 0.090064 0.640576 -0.209932
C30   C     C_R   0.876825 0.080399 0.556831 -0.046688
C31   C     C_R   0.502230 0.523687 0.410353 -0.283117
C32   C     C_R   0.582050 0.490846 0.337838 0.468173
C33   C     C_R   0.656527 0.546013 0.329260 -0.019025
C34   C     C_R   0.976006 0.671534 0.248911 -0.119585
C35   C     C_R   0.648952 0.634043 0.392673 -0.239851
C36   C     C_R   0.569161 0.665502 0.466347 -0.063659
C37   C     C_R   0.496702 0.609078 0.476204 0.065932
C38   C     C_R   0.455397 0.608967 0.612903 0.547849
C39   C     C_R   0.392196 0.585121 0.676609 -0.307278
C40   C     C_R   0.303069 0.574680 0.688779 0.105073
C41   C     C_R   0.275674 0.593586 0.640184 -0.173932
C42   C     C_R   0.338410 0.617445 0.576250 -0.234413
C43   C     C_R   0.428580 0.622800 0.560961 -0.007564
C44   C     C_R   0.683910 0.427448 0.887708 0.110109
C45   C     C_R   0.753652 0.424936 0.981274 0.406451
C46   C     C_R   0.367401 0.407410 0.937947 -0.061746
C47   C     C_R   0.471439 0.307813 0.919853 0.311040
C48   C     C_R   0.382569 0.336244 0.950801 0.427191
C49   C     C_R   0.441546 0.444868 0.891573 -0.328514
C50   C     C_R   0.527114 0.427143 0.874430 0.148035
C51   C     C_R   0.542336 0.360950 0.892102 -0.055426
C52   C     C_R   0.624687 0.357444 0.891801 -0.111431
C53   C     C_R   0.672771 0.484596 0.858269 -0.167378
C54   C     C_R   0.595756 0.482343 0.848932 -0.158514
C55   C     C_R   0.805490 0.181772 0.179267 0.216933
C56   C     C_R   0.040424 0.750979 0.173754 -0.133106
C57   C     C_R   0.930322 0.862266 0.022473 0.128331
C58   C     C_R   0.848871 0.950630 0.004121 -0.194960
C59   C     C_R   0.888996 0.869409 0.977340 -0.172974
C60   C     C_R   0.932386 0.938886 0.094268 -0.258918
C61   C     C_R   0.891676 0.020527 0.121944 0.174485
C62   C     C_R   0.848854 0.026225 0.076858 0.160739
C63   C     C_R   0.805853 0.107191 0.106085 -0.282849
C64   C     C_R   0.848436 0.176503 0.223373 -0.135957
C65   C     C_R   0.891503 0.096291 0.194974 -0.214473
C66   C     C_R   0.826680 0.530231 0.249080 -0.103343
C67   C     C_R   0.944766 0.689807 0.949283 -0.128796
C68   C     C_R   0.966628 0.774276 0.997914 0.066163
H1    H     H_    0.059346 0.810785 0.057153 0.094189
H2    H     H_    0.880152 0.216111 0.857787 0.130601
H3    H     H_    0.133026 0.483404 0.711474 0.132374
H4    H     H_    0.909091 0.199029 0.968806 0.142936
H5    H     H_    0.181583 0.387450 0.058432 0.181527
H6    H     H_    0.009420 0.370333 0.715912 0.097234
H7    H     H_    0.910518 0.924080 0.543228 0.129759
H8    H     H_    0.969633 0.787277 0.411608 0.122667
H9    H     H_    0.925063 0.905049 0.277096 0.112191
H10   H     H_    0.695225 0.448363 0.152376 0.191425
H11   H     H_    0.862555 0.042179 0.410782 0.141869
H12   H     H_    0.022114 0.244087 0.594914 0.161990
H13   H     H_    0.803956 0.155206 0.770575 0.153772
H14   H     H_    0.770339 0.043474 0.652594 0.157511
H15   H     H_    0.447300 0.478735 0.419577 0.178494
H16   H     H_    0.705492 0.677374 0.386201 0.143350
H17   H     H_    0.565910 0.730773 0.518092 0.140312
H18   H     H_    0.844211 0.527313 0.858420 0.117209
H19   H     H_    0.414359 0.570203 0.713282 0.179459
H20   H     H_    0.206612 0.587608 0.649963 0.131617
H21   H     H_    0.318117 0.625034 0.534469 0.156931
H22   H     H_    0.637777 0.305945 0.903130 0.229393
H23   H     H_    0.718776 0.536956 0.850071 0.119088
H24   H     H_    0.585550 0.531537 0.832351 0.124009
H25   H     H_    0.434093 0.496453 0.876905 0.155253
H26   H     H_    0.772413 0.112905 0.072707 0.160952
H27   H     H_    0.946878 0.652196 0.300546 0.098667
H28   H     H_    0.848070 0.234746 0.279777 0.157242
H29   H     H_    0.816850 0.953992 0.968559 0.135881
H30   H     H_    0.923993 0.093284 0.230325 0.153481
H31   H     H_    0.887106 0.812074 0.921396 0.117434
H32   H     H_    0.962960 0.934680 0.130536 0.118796
H33   H     H_    0.071035 0.805553 0.157477 0.100072
H34   H     H_    0.842928 0.560548 0.302813 0.111162
H35   H     H_    0.901688 0.674620 0.917934 0.095962
H36   H     H_    0.307717 0.544076 0.918812 0.163588
N1    N     N_R   0.034930 0.670790 0.995440 -0.053231
N2    N     N_R   0.954880 0.335850 0.881080 -0.039492
N3    N     N_R   0.115060 0.502430 0.834090 -0.062418
N4    N     N_R   0.014160 0.371890 0.051540 -0.086319
N5    N     N_R   0.965070 0.329210 0.004560 -0.059677
N6    N     N_R   0.164150 0.545120 0.881070 -0.100476
N7    N     N_R   0.133000 0.490740 0.051540 -0.045170
N8    N     N_R   0.996220 0.383590 0.834100 -0.040480
N9    N     N_R   0.835850 0.454880 0.118930 -0.050410
N10   N     N_R   0.867000 0.509260 0.948460 -0.058559
N11   N     N_R   0.003780 0.616410 0.165900 -0.035233
N12   N     N_R   0.825670 0.461520 0.995440 -0.082435
N13   N     N_R   0.045120 0.664150 0.118920 -0.045639
N14   N     N_R   0.884940 0.497570 0.165910 -0.044594
N15   N     N_R   0.985840 0.628110 0.948460 -0.039231
N16   N     N_R   0.174330 0.538480 0.004560 -0.052084
Ni1   Ni    Ni4+2 0.103690 0.603690 0.000000 0.206640
Ni2   Ni    Ni4+2 0.896310 0.396310 0.000000 0.272995
Ni3   Ni    Ni4+2 0.991110 0.505800 0.892250 0.196524
Ni4   Ni    Ni4+2 0.008890 0.494200 0.107750 0.270779
Cl1   Cl    Cl    0.037638 0.348978 0.170866 -0.733725
O1    O     O_3   0.299242 0.630881 0.859523 -0.707311
C69   C     C_3   0.260169 0.716773 0.922003 0.167224
H37   H     H_    0.306967 0.752107 0.951369 0.150558
H38   H     H_    0.196881 0.713764 0.975014 0.090675
C70   C     C_3   0.248683 0.770743 0.881572 -0.320350
H39   H     H_    0.308545 0.758979 0.820179 0.231559
H40   H     H_    0.189256 0.747780 0.867822 0.191725
C71   C     C_3   0.237836 0.871410 0.939648 -0.939770
H41   H     H_    0.181132 0.886495 0.003326 0.253838
H42   H     H_    0.224973 0.907234 0.910140 0.275161
H43   H     H_    0.299938 0.896735 0.948046 0.274603
Cl2   Cl    Cl    0.017765 0.133811 0.439219 -0.672582
Cl3   Cl    Cl    0.588060 0.376558 0.266160 -0.636115
O2    O     O_3   0.544423 0.615725 0.598698 -0.666538
C72   C     C_3   0.582912 0.530664 0.567374 0.193757
H44   H     H_    0.639353 0.515498 0.503246 0.139057
H45   H     H_    0.536621 0.473801 0.558607 0.088820
C73   C     C_3   0.619528 0.534652 0.627308 -0.299430
H46   H     H_    0.670127 0.587244 0.631275 0.215526
H47   H     H_    0.564361 0.552838 0.692527 0.198858
C74   C     C_3   0.662701 0.444841 0.595966 -0.974024
H48   H     H_    0.612671 0.391642 0.593486 0.271495
H49   H     H_    0.688806 0.450298 0.640667 0.272118
H50   H     H_    0.719140 0.425772 0.531294 0.272896
Cl4   Cl    Cl    0.492010 0.208840 0.920406 -0.616673
O3    O     O_3   0.311894 0.290550 0.987626 -0.640505
C75   C     C_3   0.301508 0.311356 0.070474 0.201437
H51   H     H_    0.263120 0.376109 0.117500 0.106504
H52   H     H_    0.366045 0.318234 0.075122 0.138041
C76   C     C_3   0.250736 0.236583 0.095169 -0.219680
H53   H     H_    0.187738 0.225428 0.087512 0.237529
H54   H     H_    0.292292 0.173269 0.051636 0.228161
C77   C     C_3   0.228499 0.259374 0.187362 -0.881531
H55   H     H_    0.290813 0.269165 0.196005 0.269753
H56   H     H_    0.192163 0.203507 0.202875 0.277856
H57   H     H_    0.185239 0.321439 0.232144 0.284465
Cl5   Cl    Cl    0.703391 0.332786 0.002881 -0.688370

loop_
_geom_bond_atom_site_label_1
_geom_bond_atom_site_label_2
_ccdc_geom_bond_type
C58   C62   A    
C73   C74   S    
C18   H7    S    
C76   H54   S    
C59   H31   S    
C41   C42   A    
C66   H34   S    
C52   H22   S    
C35   C36   A    
C9    H4    S    
N3    Ni3   S    
C2    C12   A    
C67   H35   S    
C14   C46   S    
N2    N8    A    
C53   C54   A    
C32   Cl3   S    
C46   C49   A    
C28   C29   A    
C26   C27   A    
O1    C69   S    
N12   Ni2   S    
C18   C24   A    
C36   C37   A    
C72   H45   S    
C22   H11   S    
C12   N9    A    
C13   N8    A    
N6    Ni1   S    
C7    H3    S    
C38   C39   A    
C11   C14   A    
N5    Ni2   S    
C57   C59   A    
C24   C30   S    
C73   H46   S    
C1    C68   A    
C31   H15   S    
N4    N5    A    
C6    H2    S    
C18   C19   A    
C56   N13   A    
N13   Ni1   S    
C77   H57   S    
C6    C15   A    
C3    C23   A    
C44   C53   A    
N9    Ni2   S    
C47   C48   A    
N11   N13   A    
C23   H18   S    
C12   H10   S    
C53   H23   S    
C71   H43   S    
O3    C75   S    
C72   C73   S    
C70   H40   S    
C39   H19   S    
C44   C52   A    
N14   Ni4   S    
C5    H36   S    
C21   C22   A    
C4    C56   A    
C76   C77   S    
C77   H56   S    
C58   H29   S    
N4    Ni4   S    
C8    N4    A    
C74   H49   S    
C9    N5    A    
O2    C72   S    
C46   C48   A    
C3    C44   S    
C5    N16   A    
C11   N7    A    
C67   C68   A    
C34   H27   S    
C64   H28   S    
N8    Ni3   S    
C11   H5    S    
C39   C40   A    
C57   C60   A    
C47   C51   A    
C60   H32   S    
C25   C26   A    
C3    C45   A    
C1    H1    S    
C51   C52   A    
C55   C63   A    
C60   C61   A    
C37   C43   S    
C25   Cl2   S    
C45   Cl5   S    
C69   H38   S    
C54   H24   S    
C29   C30   A    
C61   C65   A    
C74   H50   S    
C15   C27   S    
C31   C32   A    
C63   H26   S    
C75   C76   S    
C38   O2    S    
C55   C64   A    
N2    Ni2   S    
C62   C63   A    
C50   C51   A    
C6    N2    A    
N1    Ni1   S    
C50   C54   A    
C72   H44   S    
C5    C14   A    
C16   C40   S    
N10   Ni3   S    
C2    C33   S    
C9    C17   A    
C40   C41   A    
C75   H52   S    
C13   C15   A    
C71   H41   S    
N3    N6    A    
C7    N3    A    
C58   C59   A    
C70   C71   S    
C42   C43   A    
C57   C68   S    
C69   H37   S    
C76   H53   S    
N16   Ni1   S    
C74   H48   S    
C10   O1    S    
C25   C30   A    
C73   H47   S    
C41   H20   S    
C19   H8    S    
N11   Ni4   S    
C28   H13   S    
C47   Cl4   S    
C7    C16   A    
C2    C66   A    
C65   H30   S    
N10   N12   A    
C35   H16   S    
C56   H33   S    
N15   Ni3   S    
C36   H17   S    
C8    C17   A    
C42   H21   S    
N1    N15   A    
C64   C65   A    
C19   C20   A    
C70   H39   S    
C34   N11   A    
C69   C70   S    
C38   C43   A    
C10   C16   A    
C32   C33   A    
C23   N10   A    
C45   N12   A    
C77   H55   S    
C33   C35   A    
C10   N6    A    
C22   C24   A    
C4    C34   A    
C61   C62   A    
C26   H12   S    
N9    N14   A    
C4    C20   S    
C31   C37   A    
C8    Cl1   S    
C29   H14   S    
C75   H51   S    
C20   C21   A    
C49   C50   A    
C66   N14   A    
C48   O3    S    
C21   H9    S    
C27   C28   A    
C71   H42   S    
N7    N16   A    
C49   H25   S    
N7    Ni4   S    
C67   N15   A    
C1    N1    A    
C13   H6    S    
