data_mof_unit_50449.cif
_audit_creation_date              2012-10-26T20:51:09-0400
_audit_creation_method            fapswitch 2.2
_symmetry_space_group_name_H-M    P1
_symmetry_Int_Tables_number       1
_space_group_crystal_system       triclinic
_cell_length_a                    13.015337
_cell_length_b                    10.837406
_cell_length_c                    9.538855
_cell_angle_alpha                 90.522602
_cell_angle_beta                  96.375457
_cell_angle_gamma                 90.314492
_cell_volume                      1337.07400939

loop_
_atom_site_label
_atom_site_type_symbol
_atom_type_description
_atom_site_fract_x
_atom_site_fract_y
_atom_site_fract_z
_atom_type_partial_charge
C1    C     C_R   0.497389 0.262383 0.498966 0.550231
C2    C     C_R   0.480232 0.934486 0.368625 -0.164621
C3    C     C_R   0.487375 0.871081 0.497574 0.006873
C4    C     C_R   0.300259 0.500500 0.473096 0.561342
C5    C     C_R   0.478229 0.938283 0.621124 0.023304
C6    C     C_3   0.542166 0.936121 0.761138 -0.277820
C7    C     C_3   0.540611 0.075935 0.759909 -0.262029
C8    C     C_R   0.587378 0.530674 0.087241 0.161074
C9    C     C_R   0.417919 0.455422 0.061540 -0.022894
C10   C     C_R   0.417685 0.455887 0.912735 -0.021346
C11   C     C_R   0.587754 0.529497 0.939928 0.157342
C12   C     C_R   0.028023 0.501975 0.567044 0.033551
C13   C     C_3   0.646513 0.647888 0.943908 -0.282323
C14   C     C_3   0.645051 0.649999 0.102773 -0.274730
C15   C     C_R   0.498093 0.737851 0.500013 0.544734
C16   C     C_R   0.699492 0.499677 0.526611 0.545600
C17   C     C_R   0.812269 0.499425 0.542233 0.004940
C18   C     C_R   0.186904 0.501849 0.456200 0.005780
C19   C     C_R   0.021472 0.499387 0.310903 -0.116589
C20   C     C_R   0.129229 0.503197 0.321300 0.268515
C21   C     C_R   0.135388 0.502614 0.577942 -0.180393
C22   C     C_3   0.173150 0.616946 0.138046 -0.124451
C23   C     C_R   0.970920 0.499672 0.432469 -0.000256
C24   C     C_R   0.863722 0.497644 0.420988 -0.129884
C25   C     C_R   0.869129 0.501398 0.676226 -0.136168
C26   C     C_R   0.976722 0.502623 0.688595 -0.127948
C27   C     C_R   0.477433 0.065328 0.619992 0.022300
C28   C     C_R   0.485908 0.129475 0.495763 0.009192
C29   C     C_R   0.479569 0.063208 0.367722 -0.160462
Cu1   Cu    Cu3+1 0.499990 0.499980 0.640670 0.931679
Cu2   Cu    Cu3+1 0.500010 0.500020 0.359330 0.949679
H1    H     H_    0.820584 0.494776 0.317078 0.115815
H2    H     H_    0.598084 0.726354 0.140383 0.144598
H3    H     H_    0.830674 0.501849 0.771177 0.120023
H4    H     H_    0.977522 0.496197 0.207452 0.107776
H5    H     H_    0.019640 0.504128 0.792715 0.108312
H6    H     H_    0.178643 0.503193 0.681884 0.124652
H7    H     H_    0.479687 0.110093 0.267944 0.135902
H8    H     H_    0.480476 0.885500 0.269196 0.128729
H9    H     H_    0.498802 0.896890 0.844543 0.131751
H10   H     H_    0.210255 0.688043 0.212490 0.126517
H11   H     H_    0.092239 0.643276 0.101069 0.101194
H12   H     H_    0.620609 0.897858 0.754522 0.132114
H13   H     H_    0.216666 0.614766 0.044434 0.129060
H14   H     H_    0.496147 0.116613 0.841789 0.139768
H15   H     H_    0.617946 0.118249 0.753202 0.143551
H16   H     H_    0.351259 0.420060 0.106482 0.169382
H17   H     H_    0.350423 0.421443 0.847188 0.121784
H18   H     H_    0.725224 0.636214 0.911290 0.116461
H19   H     H_    0.600571 0.722274 0.889990 0.145164
H20   H     H_    0.723116 0.640087 0.161431 0.118943
N1    N     N_R   0.500660 0.500930 0.148010 -0.237375
N2    N     N_R   0.500660 0.500890 0.852110 -0.231578
O1    O     O_R   0.500000 0.319640 0.618810 -0.499774
O2    O     O_R   0.500010 0.319680 0.381230 -0.506894
O3    O     O_R   0.348990 0.499960 0.599490 -0.527530
O4    O     O_R   0.349000 0.500000 0.361910 -0.459173
O5    O     O_R   0.499990 0.680320 0.618770 -0.498957
O6    O     O_R   0.500000 0.680360 0.381190 -0.512854
O7    O     O_R   0.651000 0.500000 0.638090 -0.505586
O8    O     O_R   0.651010 0.500040 0.400510 -0.506789
O9    O     O_3   0.177456 0.498864 0.199325 -0.569210

loop_
_geom_bond_atom_site_label_1
_geom_bond_atom_site_label_2
_ccdc_geom_bond_type
C4    O4    A    
C29   H7    S    
C1    C28   S    
C19   C23   A    
C23   C24   A    
C24   H1    S    
C6    C7    S    
C12   C21   A    
C22   O9    S    
C18   C21   A    
C11   C13   S    
C9    C10   A    
C8    N1    A    
C14   H20   S    
C11   N2    A    
Cu2   N1    S    
C1    O1    A    
C4    C18   S    
Cu2   O4    S    
C14   H2    S    
C2    C3    A    
C1    O2    A    
C7    C27   S    
C19   H4    S    
C13   C14   S    
C4    O3    A    
C20   O9    S    
Cu1   O1    S    
C12   C23   A    
C22   H11   S    
C9    N1    A    
C15   O6    A    
C2    C29   A    
C13   H18   S    
Cu1   O5    S    
C26   H5    S    
C28   C29   A    
C15   O5    A    
C9    H16   S    
C18   C20   A    
C6    H12   S    
C8    C11   A    
C10   H17   S    
C5    C6    S    
Cu1   N2    S    
C6    H9    S    
C17   C24   A    
C16   O8    A    
C13   H19   S    
C22   H10   S    
C7    H15   S    
C7    H14   S    
C25   H3    S    
C3    C15   S    
C21   H6    S    
C16   O7    A    
Cu2   O6    S    
C27   C28   A    
C10   N2    A    
Cu2   O8    S    
Cu1   Cu2   S    
C16   C17   S    
C8    C14   S    
Cu2   O2    S    
C25   C26   A    
C5    C27   A    
Cu1   O3    S    
C2    H8    S    
C22   H13   S    
C19   C20   A    
C12   C26   A    
C17   C25   A    
C3    C5    A    
Cu1   O7    S    
