data_mof_unit_58110.cif
_audit_creation_date              2012-12-10T17:00:46-0500
_audit_creation_method            fapswitch 2.2
_symmetry_space_group_name_H-M    P1
_symmetry_Int_Tables_number       1
_space_group_crystal_system       triclinic
_cell_length_a                    10.710714
_cell_length_b                    10.779066
_cell_length_c                    10.028809
_cell_angle_alpha                 89.824296
_cell_angle_beta                  103.013722
_cell_angle_gamma                 89.782996
_cell_volume                      1128.08595445

loop_
_atom_site_label
_atom_site_type_symbol
_atom_type_description
_atom_site_fract_x
_atom_site_fract_y
_atom_site_fract_z
_atom_type_partial_charge
C1    C     C_R   0.495196 0.262983 0.498930 0.813276
C2    C     C_2   0.122633 0.476253 0.413685 0.481061
C3    C     C_2   0.070420 0.427642 0.511338 -0.331024
C4    C     C_2   0.878298 0.475086 0.582898 -0.389707
C5    C     C_2   0.933403 0.416530 0.492247 0.058624
C6    C     C_2   0.491568 0.935183 0.391186 0.641034
C7    C     C_R   0.864154 0.336878 0.378590 0.185656
C8    C     C_R   0.813492 0.386615 0.247703 0.016641
C9    C     C_R   0.756987 0.309063 0.139867 -0.064311
C10   C     C_R   0.749438 0.181857 0.161876 -0.090655
C11   C     C_R   0.801017 0.131245 0.290885 -0.173620
C12   C     C_2   0.533923 0.867201 0.505633 -0.253054
C13   C     C_R   0.858240 0.208415 0.399194 -0.193690
C14   C     C_R   0.625644 0.914004 0.630367 0.076131
C15   C     C_R   0.598187 0.902209 0.760566 0.099730
C16   C     C_R   0.688525 0.937055 0.877641 -0.103358
C17   C     C_R   0.806043 0.986409 0.866024 -0.102680
C18   C     C_R   0.833813 0.999713 0.737179 -0.102049
C19   C     C_R   0.744562 0.962680 0.619971 -0.206805
C20   C     C_2   0.505175 0.067616 0.392843 -0.369289
C21   C     C_2   0.475242 0.132769 0.493979 0.429020
C22   C     C_2   0.576741 0.567392 0.943367 0.598209
C23   C     C_2   0.559956 0.580978 0.087385 -0.080721
C24   C     C_R   0.258910 0.496059 0.443847 0.824640
C25   C     C_R   0.505141 0.737362 0.500958 0.928483
C26   C     C_R   0.740970 0.492537 0.555655 0.910783
F1    F     F_    0.475364 0.390648 0.088763 -0.600482
F2    F     F_    0.052053 0.507479 0.287777 -0.660057
F3    F     F_    0.424128 0.884216 0.272703 -0.636861
F4    F     F_    0.419284 0.079986 0.589437 -0.666584
F5    F     F_    0.671757 0.632531 0.906184 -0.658139
H1    H     H_    0.419268 0.468135 0.876480 0.202558
H2    H     H_    0.899206 0.168217 0.498537 0.140217
H3    H     H_    0.507089 0.865599 0.771707 0.157348
H4    H     H_    0.667411 0.924897 0.977403 0.137095
H5    H     H_    0.875835 0.013648 0.956863 0.150999
H6    H     H_    0.925282 0.036984 0.728293 0.147795
H7    H     H_    0.768967 0.969444 0.521485 0.124342
H8    H     H_    0.603945 0.660528 0.145213 0.130967
H9    H     H_    0.128193 0.406087 0.612653 0.165250
H10   H     H_    0.936504 0.519740 0.672673 0.177887
H11   H     H_    0.537288 0.111331 0.308848 0.181904
H12   H     H_    0.817263 0.485377 0.229298 0.178729
H13   H     H_    0.718802 0.347426 0.039119 0.157336
H14   H     H_    0.703674 0.122778 0.078746 0.141378
H15   H     H_    0.796893 0.032147 0.306268 0.142742
N1    N     N_2   0.501330 0.501330 0.852460 -0.209924
N2    N     N_2   0.501370 0.501360 0.148130 0.133289
O1    O     O_R   0.499980 0.319060 0.613030 -0.580036
O2    O     O_R   0.500020 0.319100 0.386910 -0.597280
O3    O     O_R   0.317800 0.500000 0.570840 -0.662413
O4    O     O_R   0.317840 0.500040 0.344720 -0.533802
O5    O     O_R   0.499980 0.680900 0.613090 -0.606436
O6    O     O_R   0.500020 0.680940 0.386970 -0.573752
O7    O     O_R   0.682160 0.499960 0.655280 -0.553813
O8    O     O_R   0.682200 0.500000 0.429160 -0.638478
Zn1   Zn    Zn3+2 0.499970 0.499970 0.650990 1.022395
Zn2   Zn    Zn3+2 0.500030 0.500030 0.349010 1.083506

loop_
_geom_bond_atom_site_label_1
_geom_bond_atom_site_label_2
_ccdc_geom_bond_type
F1    N2    S    
C24   O4    A    
C4    C26   S    
N2    Zn2   S    
C1    C21   S    
O3    Zn1   S    
C17   H5    S    
N1    Zn1   S    
C6    C20   S    
C9    C10   A    
C2    C24   S    
C20   H11   S    
C1    O2    A    
C8    H12   S    
C12   C25   S    
C26   O7    A    
C24   O3    A    
C2    C3    D    
C7    C8    A    
C25   O6    A    
C13   H2    S    
C11   C13   A    
C16   C17   A    
C22   F5    S    
O4    Zn2   S    
C10   H14   S    
C23   H8    S    
C6    C12   D    
C19   H7    S    
C18   H6    S    
C12   C14   S    
C3    H9    S    
C17   C18   A    
C10   C11   A    
O7    Zn1   S    
C16   H4    S    
O6    Zn2   S    
H1    N1    S    
C22   N1    D    
C4    H10   S    
C15   C16   A    
O2    Zn2   S    
C7    C13   A    
C6    F3    S    
O1    Zn1   S    
C20   C21   D    
C18   C19   A    
C21   F4    S    
C5    C7    S    
O5    Zn1   S    
C14   C15   A    
C8    C9    A    
C9    H13   S    
C2    F2    S    
C23   N2    D    
C15   H3    S    
C3    C5    S    
C22   C23   S    
C1    O1    A    
C14   C19   A    
C25   O5    A    
O8    Zn2   S    
C4    C5    D    
C11   H15   S    
C26   O8    A    
