data_mof_unit_39198.cif
_audit_creation_date              2012-12-10T19:46:26-0500
_audit_creation_method            fapswitch 2.2
_symmetry_space_group_name_H-M    P1
_symmetry_Int_Tables_number       1
_space_group_crystal_system       triclinic
_cell_length_a                    10.843235
_cell_length_b                    10.888311
_cell_length_c                    10.434103
_cell_angle_alpha                 90.390582
_cell_angle_beta                  90.454644
_cell_angle_gamma                 87.859826
_cell_volume                      1230.97304127

loop_
_atom_site_label
_atom_site_type_symbol
_atom_type_description
_atom_site_fract_x
_atom_site_fract_y
_atom_site_fract_z
_atom_type_partial_charge
C1    C     C_R   0.495449 0.261651 0.499172 0.801118
C2    C     C_R   0.504543 0.738349 0.500830 0.801122
C3    C     C_R   0.871822 0.500365 0.501454 -0.137999
C4    C     C_R   0.128182 0.499586 0.498523 -0.137981
C5    C     C_R   0.940221 0.410813 0.572160 -0.053227
C6    C     C_R   0.059787 0.589124 0.427789 -0.053231
C7    C     C_R   0.297073 0.228146 0.120859 -0.136750
C8    C     C_R   0.702829 0.771873 0.879246 -0.136645
C9    C     C_R   0.330860 0.179902 0.240471 -0.117339
C10   C     C_R   0.669063 0.820094 0.759606 -0.117263
C11   C     C_R   0.445835 0.117705 0.257189 0.130795
C12   C     C_R   0.554110 0.882307 0.742851 0.130759
C13   C     C_R   0.526656 0.105698 0.152946 -0.151062
C14   C     C_R   0.473317 0.894409 0.847106 -0.151106
C15   C     C_R   0.492950 0.155455 0.033942 -0.142579
C16   C     C_R   0.507023 0.844715 0.966146 -0.142560
C17   C     C_R   0.377922 0.215648 0.017591 -0.128020
C18   C     C_R   0.622013 0.784459 0.982516 -0.128113
C19   C     C_R   0.490479 0.933409 0.386061 -0.239838
C20   C     C_R   0.509488 0.066591 0.613952 -0.239915
C21   C     C_R   0.508064 0.871896 0.502520 -0.089460
C22   C     C_R   0.491914 0.128103 0.497492 -0.089475
C23   C     C_R   0.261762 0.501225 0.499472 0.831623
C24   C     C_R   0.738240 0.498748 0.500525 0.831608
C25   C     C_R   0.520947 0.939354 0.617906 -0.013041
C26   C     C_R   0.479019 0.060645 0.382114 -0.013011
C27   C     C_1   0.500001 0.500024 0.071968 0.092802
C28   C     C_1   0.500003 0.499986 0.928032 0.092798
C29   C     C_R   0.199507 0.888554 0.339568 -0.130712
C30   C     C_R   0.800294 0.111530 0.660643 -0.130685
C31   C     C_R   0.153039 0.793554 0.411676 -0.195069
C32   C     C_R   0.846876 0.206417 0.588453 -0.195075
C33   C     C_R   0.123175 0.682532 0.352208 0.088228
C34   C     C_R   0.876823 0.317475 0.647828 0.088213
C35   C     C_R   0.143263 0.666271 0.219237 0.224601
C36   C     C_R   0.856749 0.333870 0.780795 0.224626
C37   C     C_R   0.192976 0.761214 0.148713 -0.120685
C38   C     C_R   0.806916 0.239049 0.851397 -0.120659
C39   C     C_R   0.219678 0.872372 0.208370 -0.200282
C40   C     C_R   0.780081 0.127866 0.791825 -0.200200
C41   C     C_R   0.930386 0.591264 0.430839 0.121058
C42   C     C_R   0.069620 0.408672 0.569119 0.121031
Cu1   Cu    Cu3+1 0.500000 0.500000 0.625300 0.976313
Cu2   Cu    Cu3+1 0.500000 0.500000 0.374700 0.976301
H1    H     H_    0.255629 0.946052 0.152517 0.149817
H2    H     H_    0.744005 0.054275 0.847724 0.149741
H3    H     H_    0.615354 0.057622 0.163813 0.126451
H4    H     H_    0.384645 0.942517 0.836223 0.126478
H5    H     H_    0.555366 0.146201 0.953923 0.133341
H6    H     H_    0.444644 0.854075 0.046183 0.133399
H7    H     H_    0.479864 0.882069 0.297497 0.167003
H8    H     H_    0.520092 0.117935 0.702515 0.167031
H9    H     H_    0.219343 0.974914 0.385658 0.143276
H10   H     H_    0.780381 0.025136 0.614636 0.143282
H11   H     H_    0.136547 0.807741 0.513053 0.135140
H12   H     H_    0.863365 0.192116 0.487084 0.135127
H13   H     H_    0.208872 0.749688 0.046928 0.140284
H14   H     H_    0.791027 0.250687 0.953179 0.140252
H15   H     H_    0.351604 0.252850 0.924967 0.132241
H16   H     H_    0.648327 0.747285 0.075162 0.132254
H17   H     H_    0.207897 0.274504 0.107958 0.130920
H18   H     H_    0.791968 0.725464 0.892171 0.130948
H19   H     H_    0.267140 0.189783 0.319612 0.101073
H20   H     H_    0.732773 0.810149 0.680465 0.101067
N1    N     N_1   0.500010 0.499990 0.186410 -0.144510
N2    N     N_1   0.499990 0.500010 0.813590 -0.144507
O1    O     O_R   0.499990 0.319650 0.605810 -0.582251
O2    O     O_R   0.500010 0.680350 0.394190 -0.582258
O3    O     O_R   0.499990 0.319640 0.394190 -0.566879
O4    O     O_R   0.500010 0.680360 0.605810 -0.566887
O5    O     O_R   0.319640 0.500010 0.605810 -0.575675
O6    O     O_R   0.680360 0.499990 0.394190 -0.575670
O7    O     O_R   0.319650 0.500010 0.394190 -0.583407
O8    O     O_R   0.680350 0.499990 0.605810 -0.583387
N3    N     N_3   0.111820 0.555505 0.153915 -0.613917
H21   H     H_    0.158993 0.481762 0.198237 0.229194
H22   H     H_    0.017207 0.543755 0.164396 0.227391
N4    N     N_3   0.888318 0.444663 0.846021 -0.613907
H23   H     H_    0.841230 0.518423 0.801631 0.229124
H24   H     H_    0.982950 0.456312 0.835521 0.227392
C43   C     C_3   0.853690 0.691851 0.363081 -0.841381
H25   H     H_    0.908028 0.768715 0.328205 0.231528
H26   H     H_    0.805813 0.652757 0.278652 0.242383
H27   H     H_    0.784468 0.733333 0.429995 0.207509
C44   C     C_3   0.146314 0.308087 0.636884 -0.841428
H28   H     H_    0.091969 0.231228 0.671771 0.231523
H29   H     H_    0.215532 0.266593 0.569968 0.207503
H30   H     H_    0.194198 0.347193 0.721309 0.242378

loop_
_geom_bond_atom_site_label_1
_geom_bond_atom_site_label_2
_ccdc_geom_bond_type
C38   C40   A    
C5    C42   A    
Cu1   Cu2   S    
C43   H25   S    
C3    C24   S    
C44   H28   S    
C40   H2    S    
C30   H10   S    
C35   N3    S    
C4    C42   A    
C19   C21   A    
C16   H6    S    
C2    O2    A    
N4    H24   S    
C20   C25   A    
C7    C9    A    
C19   C26   A    
C7    H17   S    
C33   C35   A    
C38   H14   S    
C7    C17   A    
C6    C41   A    
C31   C33   A    
C39   H1    S    
Cu1   O8    S    
C1    C22   S    
Cu2   N1    S    
C23   O7    A    
C43   H26   S    
C44   H29   S    
C23   O5    A    
C4    C6    A    
C13   H3    S    
C4    C23   S    
N4    H23   S    
C14   H4    S    
C11   C26   S    
C8    C18   A    
C32   C34   A    
C28   N2    T    
N3    H21   S    
C27   N1    T    
C9    C11   A    
C29   C31   A    
C41   C43   S    
C5    C34   S    
C29   C39   A    
C2    C21   S    
C30   C40   A    
Cu2   O3    S    
C42   C44   S    
N3    H22   S    
C10   C12   A    
C17   H15   S    
Cu1   O1    S    
C20   C22   A    
Cu1   O4    S    
C13   C15   A    
C14   C16   A    
Cu2   O2    S    
C43   H27   S    
C24   O6    A    
C44   H30   S    
C18   H16   S    
C15   C17   A    
C21   C25   A    
C3    C41   A    
Cu1   O5    S    
C35   C37   A    
C9    H19   S    
C8    C10   A    
C10   H20   S    
C12   C14   A    
C3    C5    A    
C6    C33   S    
C12   C25   S    
C16   C18   A    
C36   C38   A    
C37   C39   A    
C36   N4    S    
C30   C32   A    
C11   C13   A    
C24   O8    A    
C29   H9    S    
Cu1   N2    S    
C1    O1    A    
Cu2   O6    S    
C34   C36   A    
C15   H5    S    
Cu2   O7    S    
C1    O3    A    
C19   H7    S    
C20   H8    S    
C22   C26   A    
C27   C28   S    
C31   H11   S    
C2    O4    A    
C32   H12   S    
C37   H13   S    
C8    H18   S    
