data_mof_unit_56242.cif
_audit_creation_date              2012-12-11T20:07:15-0500
_audit_creation_method            fapswitch 2.2
_symmetry_space_group_name_H-M    P1
_symmetry_Int_Tables_number       1
_space_group_crystal_system       triclinic
_cell_length_a                    8.333796
_cell_length_b                    16.184449
_cell_length_c                    18.73359
_cell_angle_alpha                 112.201216
_cell_angle_beta                  90.88306
_cell_angle_gamma                 83.912642
_cell_volume                      2325.39497642

loop_
_atom_site_label
_atom_site_type_symbol
_atom_type_description
_atom_site_fract_x
_atom_site_fract_y
_atom_site_fract_z
_atom_type_partial_charge
Ba1   Ba    Ba6+2 0.333520 0.539550 0.472180 1.618647
Ba2   Ba    Ba6+2 0.856270 0.460520 0.527840 1.623951
C1    C     C_3   0.080878 0.854220 0.340255 -0.339406
C2    C     C_R   0.447042 0.405384 0.078697 -0.091522
C3    C     C_R   0.312201 0.417439 0.936551 -0.104474
C4    C     C_3   0.496511 0.706747 0.306966 0.343700
C5    C     C_R   0.456030 0.454180 0.967614 0.024935
C6    C     C_R   0.256009 0.417383 0.866343 -0.101763
C7    C     C_R   0.340560 0.453366 0.822942 -0.030223
C8    C     C_R   0.480209 0.495503 0.854131 -0.007215
C9    C     C_R   0.537305 0.497223 0.927275 0.005331
C10   C     C_R   0.288895 0.448924 0.749432 -0.006954
C11   C     C_R   0.383190 0.479925 0.705458 -0.247819
C12   C     C_3   0.036134 0.766554 0.343998 0.455307
C13   C     C_R   0.513660 0.528616 0.736977 0.078225
C14   C     C_R   0.559593 0.538394 0.813364 -0.074785
C15   C     C_R   0.657620 0.493574 0.069277 0.024265
C16   C     C_3   0.490380 0.724763 0.232890 -0.364806
C17   C     C_R   0.716604 0.493852 0.141695 -0.004481
C18   C     C_R   0.633498 0.454123 0.184046 -0.047071
C19   C     C_R   0.504959 0.405939 0.148964 -0.033112
C20   C     C_R   0.675452 0.594213 0.852283 0.000845
C21   C     C_R   0.728248 0.600346 0.925107 0.125492
C22   C     C_R   0.673000 0.543348 0.960066 -0.003243
C23   C     C_3   0.120465 0.293206 0.270452 0.422380
C24   C     C_R   0.740855 0.534399 0.027932 0.017098
C25   C     C_R   0.895517 0.558916 0.053193 -0.116012
C26   C     C_R   0.860186 0.532714 0.171128 -0.025112
C27   C     C_R   0.951879 0.560626 0.124035 -0.078221
C28   C     C_3   0.584549 0.754948 0.681438 0.397228
C29   C     C_R   0.909275 0.540358 0.245875 0.021973
C30   C     C_R   0.815746 0.509691 0.289995 -0.263439
C31   C     C_R   0.682730 0.463311 0.259634 0.056075
C32   C     C_2   0.391264 0.240668 0.494142 -0.288797
C33   C     C_R   0.799252 0.750714 0.519805 -0.283445
C34   C     C_3   0.179370 0.253189 0.185815 -0.071252
C35   C     C_2   0.228109 0.118864 0.424552 -0.129487
C36   C     C_2   0.251664 0.205667 0.446661 0.054363
C37   C     C_2   0.514456 0.184433 0.502557 -0.003252
C38   C     C_3   0.510482 0.084193 0.460086 -0.030181
C39   C     C_3   0.337376 0.057281 0.451362 -0.007066
C40   C     C_3   0.440417 0.829662 0.706587 -0.109085
C41   C     C_2   0.629631 0.026725 0.487609 -0.075738
C42   C     C_2   0.586320 0.967268 0.515798 -0.075007
C43   C     C_R   0.853065 0.930231 0.563589 -0.008199
C44   C     C_R   0.707021 0.902239 0.529878 -0.051652
C45   C     C_3   0.666548 0.283289 0.694728 0.361263
C46   C     C_R   0.969504 0.869852 0.577146 -0.133009
C47   C     C_R   0.942024 0.780068 0.556106 0.111591
C48   C     C_R   0.679440 0.811664 0.508249 -0.000318
C49   C     C_3   0.582437 0.264458 0.342172 0.328880
C50   C     C_3   0.619363 0.162723 0.308708 -0.384006
C51   C     C_3   0.079471 0.681096 0.724610 0.400978
C52   C     C_3   0.992357 0.713488 0.802921 -0.316535
C53   C     C_3   0.687057 0.260433 0.766206 -0.387510
C54   C     C_3   0.174979 0.233747 0.647654 0.365602
C55   C     C_3   0.218882 0.148859 0.664705 -0.126483
C56   C     C_R   0.517166 0.451823 0.038631 0.011840
H1    H     H_    0.327431 0.799750 0.702747 0.152223
H2    H     H_    0.187348 0.351323 0.301162 0.094845
H3    H     H_    0.040909 0.859777 0.285247 0.119420
H4    H     H_    0.593112 0.761768 0.229651 0.129671
H5    H     H_    0.715673 0.348192 0.706280 0.087716
H6    H     H_    0.814857 0.261952 0.783732 0.137209
H7    H     H_    0.610851 0.310107 0.814522 0.080596
H8    H     H_    0.649881 0.192680 0.754372 0.115224
H9    H     H_    0.290540 0.258305 0.640458 -0.102735
H10   H     H_    0.315982 0.105380 0.623501 0.067657
H11   H     H_    0.398687 0.666218 0.307529 0.119427
H12   H     H_    0.459532 0.283426 0.368477 -0.015163
H13   H     H_    0.266793 0.167239 0.723797 0.111937
H14   H     H_    0.145258 0.387914 0.846632 0.109266
H15   H     H_    0.445961 0.368283 0.175463 0.118281
H16   H     H_    0.720502 0.638025 0.828291 0.101887
H17   H     H_    0.069328 0.583075 0.140680 0.114147
H18   H     H_    0.852045 0.518197 0.347841 0.073997
H19   H     H_    0.237353 0.389090 0.965707 0.069786
H20   H     H_    0.347570 0.366352 0.056928 0.056913
H21   H     H_    0.612436 0.666597 0.306835 -0.010450
H22   H     H_    0.129157 0.092269 0.387536 0.088812
H23   H     H_    0.671058 0.291305 0.387333 0.084927
H24   H     H_    0.397270 0.312652 0.518112 0.065634
H25   H     H_    0.778054 0.681269 0.503947 0.080133
H26   H     H_    0.756801 0.029186 0.477782 0.095528
H27   H     H_    0.498240 0.660249 0.182389 0.082452
H28   H     H_    0.078119 0.764904 0.400230 0.058712
H29   H     H_    0.481828 0.860686 0.822585 0.206467
H30   H     H_    0.538996 0.936487 0.788022 0.175578
H31   H     H_    0.431850 0.865844 0.666394 0.078241
H32   H     H_    0.644638 0.137640 0.355497 0.072140
H33   H     H_    0.293357 0.716673 0.775677 0.180159
H34   H     H_    0.515369 0.131015 0.276144 0.112989
H35   H     H_    0.303064 0.647173 0.681907 0.162523
H36   H     H_    0.031585 0.618973 0.686383 0.113558
H37   H     H_    0.861909 0.728016 0.796958 0.124784
H38   H     H_    0.803432 0.827757 0.373362 0.162129
H39   H     H_    0.831178 0.720858 0.363855 0.104801
H40   H     H_    0.886916 0.266534 0.252396 0.185119
H41   H     H_    0.914340 0.359601 0.329998 0.168418
H42   H     H_    0.100985 0.201718 0.150743 0.077013
H43   H     H_    0.170129 0.307762 0.162974 0.053434
H44   H     H_    0.389200 0.201704 0.122973 0.162494
H45   H     H_    0.727921 0.142610 0.269819 0.123465
H46   H     H_    0.346114 0.149243 0.180660 0.194236
H47   H     H_    0.535685 0.290358 0.683946 -0.062111
H48   H     H_    0.109779 0.216956 0.592652 0.077110
H49   H     H_    0.033893 0.083427 0.602489 0.199940
H50   H     H_    0.991225 0.137750 0.697875 0.228748
H51   H     H_    0.345635 0.473219 0.648165 0.073803
H52   H     H_    0.789876 0.700308 0.025389 0.185621
H53   H     H_    0.937853 0.658981 0.952857 0.169891
H54   H     H_    0.978013 0.574552 0.017738 0.081190
H55   H     H_    0.077819 0.893985 0.606757 0.114993
H56   H     H_    0.212867 0.856890 0.344166 0.146285
H57   H     H_    0.459901 0.961328 0.523045 0.105470
H58   H     H_    0.375448 0.764980 0.230628 0.131862
H59   H     H_    0.756618 0.827520 0.749728 0.191521
H60   H     H_    0.720259 0.848645 0.670651 0.118450
H61   H     H_    0.572173 0.713352 0.619415 0.043838
H62   H     H_    0.038304 0.775778 0.843488 0.106089
H63   H     H_    0.011814 0.660691 0.827447 0.085448
H64   H     H_    0.022861 0.912820 0.389292 0.061570
N1    N     N_3   0.450455 0.894454 0.785727 -0.502258
N2    N     N_3   0.248215 0.660248 0.735050 -0.546832
N3    N     N_3   0.861337 0.764988 0.338881 -0.490458
N4    N     N_3   0.949641 0.323238 0.272546 -0.551862
N5    N     N_3   0.346284 0.212763 0.178344 -0.465658
N6    N     N_3   0.080766 0.098023 0.657514 -0.491777
N7    N     N_3   0.814474 0.675943 0.966058 -0.520905
N8    N     N_3   0.734526 0.796594 0.691061 -0.494057
O1    O     O_2   0.402610 0.439360 0.314250 -0.466060
O2    O     O_2   0.847939 0.188858 0.493118 -0.493655
O3    O     O_3   0.750216 0.214747 0.631971 -0.594887
O4    O     O_3   0.648560 0.446300 0.404730 -0.502311
O5    O     O_3   0.025080 0.609480 0.556050 -0.488959
O6    O     O_2   0.948320 0.280590 0.426090 -0.460077
O7    O     O_3   0.145151 0.227667 0.303019 -0.648493
O8    O     O_2   0.948211 0.465182 0.753078 -0.497893
O9    O     O_3   0.077321 0.297974 0.708040 -0.606343
O10   O     O_3   0.108870 0.604000 0.387500 -0.486660
O11   O     O_2   0.243182 0.529478 0.247228 -0.503947
O12   O     O_3   0.061376 0.749487 0.695208 -0.633144
O13   O     O_3   0.593602 0.296430 0.282726 -0.622853
O14   O     O_3   0.113847 0.693993 0.281593 -0.609051
O15   O     O_2   0.241370 0.719440 0.573960 -0.489791
O16   O     O_3   0.507090 0.652150 0.432150 -0.493812
O17   O     O_2   0.340151 0.811846 0.502750 -0.500414
O18   O     O_3   0.479428 0.788625 0.370986 -0.614119
O19   O     O_2   0.787080 0.560670 0.685800 -0.476193
O20   O     O_3   0.541120 0.553770 0.595290 -0.498762
O21   O     O_3   0.080800 0.396070 0.612520 -0.472161
O22   O     O_3   0.586656 0.704333 0.728484 -0.654838
O23   O     O_3   0.164600 0.390590 0.443970 -0.484510
O24   O     O_3   0.682580 0.347920 0.567870 -0.486218
P1    P     P_3+3 0.582960 0.413890 0.320860 0.974124
P2    P     P_3+3 0.071690 0.707860 0.593450 0.985083
P3    P     P_3+3 0.498869 0.767204 0.455954 0.926699
P4    P     P_3+3 0.606720 0.586180 0.679160 0.967588
P5    P     P_3+3 0.699283 0.232880 0.547674 0.945356
P6    P     P_3+3 0.092870 0.591257 0.290677 0.927659
P7    P     P_3+3 0.131645 0.276378 0.404486 0.941969
P8    P     P_3+3 0.097898 0.404357 0.707489 0.945868

loop_
_geom_bond_atom_site_label_1
_geom_bond_atom_site_label_2
_ccdc_geom_bond_type
Ba2   O20   S    
C4    H11   S    
O7    P7    S    
C50   H45   S    
C52   H62   S    
C25   C27   A    
C47   P2    S    
Ba1   O15   S    
C17   C18   A    
H35   N2    S    
C23   N4    S    
C55   N6    S    
O16   P3    S    
C51   C52   S    
C5    C9    A    
C10   C11   A    
C24   C25   A    
Ba2   O4    S    
C12   N3    S    
C15   C24   A    
C26   C27   A    
C22   C24   A    
H49   N6    S    
C51   O12   S    
C45   H5    S    
C28   H61   S    
C13   C14   A    
C19   H15   S    
C9    C22   A    
C54   C55   S    
C21   N7    S    
H52   N7    S    
Ba1   Ba2   S    
Ba1   P1    S    
C11   H51   S    
O15   P2    D    
O13   P1    S    
H53   N7    S    
C38   C41   S    
C29   C30   A    
C42   H57   S    
C6    C7    A    
C45   H47   S    
C33   C47   A    
C21   C22   A    
C23   H2    S    
O14   P6    S    
O19   P4    D    
C49   H23   S    
C5    C56   A    
C29   P6    S    
C1    H64   S    
C15   C56   A    
Ba2   O19   S    
Ba2   O24   S    
C45   O3    S    
C41   H26   S    
Ba1   O16   S    
H30   N1    S    
C53   H7    S    
C42   C44   S    
C40   N1    S    
H41   N4    S    
C12   O14   S    
O6    P7    D    
C1    H3    S    
C48   P3    S    
C4    C16   S    
C35   H22   S    
O22   P4    S    
C6    H14   S    
C16   H27   S    
C49   C50   S    
O2    P5    D    
C12   H28   S    
C13   P4    S    
H39   N3    S    
H44   N5    S    
C16   H58   S    
C37   C38   S    
C3    C5    A    
C54   O9    S    
C33   H25   S    
C16   H4    S    
C28   N8    S    
C51   N2    S    
H50   N6    S    
O5    P2    S    
C32   C37   D    
O23   P7    S    
C34   H43   S    
O3    P5    S    
Ba1   P2    S    
C23   O7    S    
C41   C42   D    
C26   C29   A    
C2    H20   S    
C35   C36   D    
H60   N8    S    
C4    O18   S    
O11   P6    D    
C28   O22   S    
O4    P1    S    
Ba2   P4    S    
O21   P8    S    
C53   H6    S    
C33   C48   A    
Ba1   O20   S    
C34   H42   S    
C55   H13   S    
Ba1   O23   S    
H59   N8    S    
Ba1   O10   S    
C54   H48   S    
C52   H37   S    
C1    C12   S    
C18   C31   A    
C46   C47   A    
C49   H12   S    
C52   H63   S    
C25   H54   S    
Ba2   O23   S    
H33   N2    S    
C11   C13   A    
C17   C26   A    
C50   H34   S    
C34   N5    S    
C20   H16   S    
C55   H10   S    
C3    H19   S    
Ba1   O4    S    
O17   P3    D    
C53   H8    S    
C45   C53   S    
C7    C8    A    
C43   C46   A    
Ba2   O21   S    
C50   H32   S    
C38   C39   S    
C14   C20   A    
O20   P4    S    
C37   P5    S    
C51   H36   S    
C32   C36   S    
O9    P8    S    
Ba1   O1    S    
C1    H56   S    
C40   H1    S    
C30   H18   S    
C3    C6    A    
C31   P1    S    
C27   H17   S    
C49   O13   S    
C54   H9    S    
C44   C48   A    
Ba2   O5    S    
C40   H31   S    
C30   C31   A    
O1    P1    D    
O24   P5    S    
O8    P8    D    
C8    C14   A    
O10   P6    S    
H29   N1    S    
C2    C19   A    
C4    H21   S    
H46   N5    S    
C15   C17   A    
C36   P7    S    
H38   N3    S    
O18   P3    S    
C35   C39   S    
C7    C10   A    
Ba2   O6    S    
C8    C9    A    
C23   C34   S    
C10   P8    S    
C43   C44   A    
H40   N4    S    
C18   C19   A    
C2    C56   A    
C20   C21   A    
C28   C40   S    
C32   H24   S    
O12   P2    S    
Ba1   O5    S    
C46   H55   S    
