data_mof_unit_41190.cif
_audit_creation_date              2012-12-10T16:48:05-0500
_audit_creation_method            fapswitch 2.2
_symmetry_space_group_name_H-M    P1
_symmetry_Int_Tables_number       1
_space_group_crystal_system       triclinic
_cell_length_a                    15.780338
_cell_length_b                    8.720338
_cell_length_c                    7.563894
_cell_angle_alpha                 103.689857
_cell_angle_beta                  93.982588
_cell_angle_gamma                 92.448792
_cell_volume                      1006.97327848

loop_
_atom_site_label
_atom_site_type_symbol
_atom_type_description
_atom_site_fract_x
_atom_site_fract_y
_atom_site_fract_z
_atom_type_partial_charge
C1    C     C_R   0.497523 0.199949 0.452978 0.864557
C2    C     C_R   0.502625 0.800059 0.547016 0.866165
C3    C     C_R   0.340404 0.504413 0.503261 0.814016
C4    C     C_R   0.659576 0.495662 0.496715 0.816377
C5    C     C_2   0.496513 0.031384 0.427575 -0.373449
C6    C     C_2   0.503848 0.968639 0.572418 -0.372505
C7    C     C_3   0.975491 0.383692 0.570232 -0.207778
C8    C     C_3   0.024939 0.625250 0.425855 -0.203594
C9    C     C_3   0.029260 0.371904 0.405074 0.153486
C10   C     C_3   0.970714 0.637505 0.590286 0.154019
C11   C     C_1   0.251228 0.516498 0.511172 -0.188997
C12   C     C_1   0.748811 0.485807 0.488692 -0.194018
C13   C     C_3   0.030688 0.533539 0.674788 -0.230101
C14   C     C_3   0.969355 0.475734 0.320793 -0.209082
C15   C     C_3   0.083474 0.519787 0.509098 0.140346
C16   C     C_3   0.916462 0.489251 0.487328 0.157493
C17   C     C_1   0.175758 0.523600 0.514127 -0.082580
C18   C     C_1   0.824342 0.481743 0.484569 -0.081936
Cu1   Cu    Cu3+1 0.509330 0.517380 0.684380 0.940536
Cu2   Cu    Cu3+1 0.490670 0.482620 0.315620 0.939791
H1    H     H_    0.954693 0.283188 0.626316 0.139243
H2    H     H_    0.046552 0.725423 0.370871 0.136985
H3    H     H_    0.943294 0.449785 0.175960 0.129559
H4    H     H_    0.056705 0.559844 0.819698 0.138379
H5    H     H_    0.489704 0.958579 0.288604 0.180885
H6    H     H_    0.510683 0.041444 0.711389 0.180792
N1    N     N_2   0.476600 0.456420 0.038510 -0.054023
N2    N     N_2   0.523400 0.543580 0.961490 -0.053802
O1    O     O_R   0.506070 0.286130 0.619780 -0.586016
O2    O     O_R   0.493930 0.713870 0.380220 -0.585874
O3    O     O_R   0.490300 0.256770 0.308360 -0.583677
O4    O     O_R   0.509700 0.743230 0.691640 -0.583627
O5    O     O_R   0.386960 0.514660 0.655680 -0.597851
O6    O     O_R   0.613040 0.485340 0.344320 -0.598987
O7    O     O_R   0.371190 0.485310 0.344260 -0.585085
O8    O     O_R   0.628810 0.514690 0.655740 -0.583452
C19   C     C_3   0.071261 0.225942 0.303569 -0.408207
C20   C     C_3   0.006433 0.092503 0.207225 -0.343052
C21   C     C_3   0.051758 0.942533 0.132167 -0.888277
H7    H     H_    0.089778 0.958484 0.018991 0.253265
H8    H     H_    0.095791 0.915596 0.240053 0.251903
H9    H     H_    0.004404 0.841039 0.081988 0.236423
H10   H     H_    0.961151 0.069320 0.304646 0.215829
H11   H     H_    0.969778 0.127031 0.093442 0.216403
H12   H     H_    0.111040 0.259516 0.201387 0.196360
H13   H     H_    0.113641 0.185407 0.404866 0.198760
C22   C     C_3   0.936687 0.789671 0.699828 -0.420430
C23   C     C_3   0.882016 0.872445 0.579725 -0.341511
C24   C     C_3   0.844193 0.017416 0.694839 -0.866518
H14   H     H_    0.799134 0.980961 0.785956 0.256762
H15   H     H_    0.895261 0.099271 0.779478 0.244304
H16   H     H_    0.809201 0.080697 0.604067 0.243843
H17   H     H_    0.922094 0.909431 0.480929 0.212639
H18   H     H_    0.829115 0.791529 0.501538 0.224797
H19   H     H_    0.898957 0.760669 0.807590 0.201803
H20   H     H_    0.991860 0.871028 0.764866 0.204689
C25   C     C_3   0.394301 0.391046 0.952199 -0.358205
H21   H     H_    0.367005 0.313124 0.032850 0.157170
H22   H     H_    0.350237 0.486839 0.951794 0.175182
H23   H     H_    0.398516 0.312433 0.816469 0.183581
C26   C     C_3   0.605709 0.608958 0.047801 -0.359664
H24   H     H_    0.633009 0.686884 0.967152 0.157427
H25   H     H_    0.601508 0.687570 0.183542 0.183657
H26   H     H_    0.649777 0.513169 0.048203 0.174874

loop_
_geom_bond_atom_site_label_1
_geom_bond_atom_site_label_2
_ccdc_geom_bond_type
C14   H3    S    
C26   H26   S    
C8    H2    S    
C9    C14   S    
C4    O8    A    
C20   H11   S    
C19   C20   S    
Cu2   N1    S    
C4    C12   S    
Cu1   Cu2   S    
C3    O7    A    
C2    O2    A    
C24   H16   S    
Cu2   O6    S    
N2    C26   S    
N1    N2    D    
C1    O1    A    
C9    C15   S    
C20   H10   S    
C21   H8    S    
C16   C18   S    
C6    H6    S    
Cu2   O2    S    
C23   H18   S    
Cu1   N2    S    
Cu2   O7    S    
C25   H21   S    
C26   H24   S    
C5    H5    S    
Cu1   O4    S    
C2    O4    A    
C23   C24   S    
C8    C15   S    
C14   C16   S    
Cu1   O8    S    
C13   C15   S    
C4    O6    A    
N1    C25   S    
C23   H17   S    
Cu2   O3    S    
C1    C5    S    
C25   H22   S    
C3    C11   S    
C15   C17   S    
C3    O5    A    
C19   H12   S    
Cu1   O1    S    
C22   C23   S    
C7    C9    S    
C1    O3    A    
C20   C21   S    
C22   H19   S    
C24   H14   S    
Cu1   O5    S    
C12   C18   T    
C21   H7    S    
C5    C6    D    
C21   H9    S    
C7    C16   S    
C25   H23   S    
C10   C16   S    
C7    C13   S    
C8    C14   S    
C24   H15   S    
C19   H13   S    
C7    H1    S    
C10   C22   S    
C10   C13   S    
C8    C10   S    
C11   C17   T    
C2    C6    S    
C13   H4    S    
C22   H20   S    
C26   H25   S    
C9    C19   S    
