data_mof_unit_28637.cif
_audit_creation_date              2012-12-10T16:49:25-0500
_audit_creation_method            fapswitch 2.2
_symmetry_space_group_name_H-M    P1
_symmetry_Int_Tables_number       1
_space_group_crystal_system       triclinic
_cell_length_a                    7.81745
_cell_length_b                    8.671948
_cell_length_c                    12.954579
_cell_angle_alpha                 87.467517
_cell_angle_beta                  90.831399
_cell_angle_gamma                 92.613834
_cell_volume                      876.384300887

loop_
_atom_site_label
_atom_site_type_symbol
_atom_type_description
_atom_site_fract_x
_atom_site_fract_y
_atom_site_fract_z
_atom_type_partial_charge
C1    C     C_R   0.456667 0.206336 0.497847 0.957926
C2    C     C_R   0.662748 0.376736 0.150874 -0.031823
C3    C     C_R   0.602229 0.488658 0.874060 -0.077410
C4    C     C_R   0.397771 0.511344 0.125940 -0.077409
C5    C     C_R   0.572417 0.466014 0.979339 0.027477
C6    C     C_R   0.427584 0.533988 0.020661 0.027477
C7    C     C_2   0.437798 0.047618 0.482885 -0.129206
C8    C     C_2   0.562202 0.952381 0.517115 -0.129206
C9    C     C_1   0.223789 0.515128 0.162791 0.212021
C10   C     C_1   0.776212 0.484874 0.837209 0.212021
C11   C     C_1   0.771156 0.282183 0.217210 0.260856
C12   C     C_R   0.543333 0.793664 0.502153 0.957926
C13   C     C_1   0.228844 0.717818 0.782790 0.260856
C14   C     C_R   0.473121 0.514183 0.698858 0.875074
C15   C     C_R   0.526879 0.485817 0.301142 0.875075
C16   C     C_R   0.530936 0.459186 0.191385 -0.190925
C17   C     C_R   0.469064 0.540815 0.808615 -0.190925
C18   C     C_R   0.320082 0.625898 0.955489 0.056446
C19   C     C_R   0.679919 0.374104 0.044511 0.056446
C20   C     C_R   0.337252 0.623265 0.849126 -0.031823
H1    H     H_    0.086681 0.672155 0.012798 0.203753
H2    H     H_    0.199702 0.943085 0.471319 0.229846
H3    H     H_    0.675881 0.064541 0.638862 0.191992
H4    H     H_    0.800298 0.056915 0.528681 0.229846
H5    H     H_    0.255788 0.786085 0.058704 0.193248
H6    H     H_    0.913319 0.327846 0.987202 0.203753
H7    H     H_    0.744212 0.213917 0.941295 0.193248
H8    H     H_    0.087965 0.736546 0.392209 0.169064
H9    H     H_    0.936754 0.620584 0.347021 0.211509
H10   H     H_    0.912033 0.263455 0.607792 0.169064
H11   H     H_    0.063249 0.379414 0.652977 0.211509
H12   H     H_    0.324118 0.935459 0.361138 0.191992
N1    N     N_2   0.054030 0.541640 0.471970 0.001115
N2    N     N_3   0.014989 0.336156 0.584283 -0.323447
N3    N     N_3   0.289441 0.000846 0.422827 -0.444623
N4    N     N_3   0.710559 0.999154 0.577173 -0.444623
N5    N     N_2   0.945970 0.458360 0.528030 0.001115
N6    N     N_1   0.084714 0.517019 0.191697 -0.236004
N7    N     N_1   0.915287 0.482983 0.808303 -0.236002
N8    N     N_1   0.857300 0.206544 0.270089 -0.188580
N9    N     N_1   0.142701 0.793457 0.729910 -0.188581
N10   N     N_3   0.202438 0.731336 0.994716 -0.458170
N11   N     N_3   0.797562 0.268665 0.005284 -0.458170
N12   N     N_3   0.985011 0.663842 0.415716 -0.323445
O1    O     O_R   0.609680 0.261530 0.506880 -0.656625
O2    O     O_R   0.390320 0.738470 0.493120 -0.656625
O3    O     O_R   0.323330 0.288220 0.488910 -0.584770
O4    O     O_R   0.676670 0.711780 0.511090 -0.584770
O5    O     O_R   0.619510 0.488830 0.661140 -0.617917
O6    O     O_R   0.380490 0.511170 0.338860 -0.617917
O7    O     O_R   0.333160 0.515520 0.643180 -0.630638
O8    O     O_R   0.666840 0.484480 0.356820 -0.630637
Zn1   Zn    Zn3+2 0.691200 0.482180 0.511990 0.979810
Zn2   Zn    Zn3+2 0.308800 0.517820 0.488010 0.979809

loop_
_geom_bond_atom_site_label_1
_geom_bond_atom_site_label_2
_ccdc_geom_bond_type
H5    N10   S    
C4    C16   A    
C5    C19   A    
N2    N5    S    
C2    C16   A    
C14   O7    A    
C12   O4    A    
C8    C12   S    
O7    Zn2   S    
N5    Zn1   S    
O2    Zn2   S    
C11   N8    T    
C13   N9    T    
C2    C19   A    
H11   N2    S    
O1    Zn1   S    
C7    C8    D    
C3    C10   S    
H4    N4    S    
C15   O8    A    
H2    N3    S    
C14   C17   S    
C1    O1    A    
O6    Zn2   S    
O3    Zn2   S    
O5    Zn1   S    
C2    C11   S    
C4    C6    A    
C9    N6    T    
C19   N11   S    
H6    N11   S    
C3    C17   A    
C18   C20   A    
C18   N10   S    
H9    N12   S    
O4    Zn1   S    
C6    C18   A    
C14   O5    A    
H10   N2    S    
C15   C16   S    
H12   N3    S    
H7    N11   S    
C17   C20   A    
O8    Zn1   S    
C12   O2    A    
H3    N4    S    
C8    N4    S    
C15   O6    A    
N1    Zn2   S    
C5    C6    A    
C1    O3    A    
C13   C20   S    
C4    C9    S    
C1    C7    S    
N1    N12   S    
C7    N3    S    
H8    N12   S    
N1    N5    D    
H1    N10   S    
C10   N7    T    
C3    C5    A    
