data_mof_unit_63785.cif
_audit_creation_date              2012-12-10T18:06:54-0500
_audit_creation_method            fapswitch 2.2
_symmetry_space_group_name_H-M    P1
_symmetry_Int_Tables_number       1
_space_group_crystal_system       triclinic
_cell_length_a                    28.325137
_cell_length_b                    18.381081
_cell_length_c                    21.739766
_cell_angle_alpha                 89.72258
_cell_angle_beta                  139.589874
_cell_angle_gamma                 90.169125
_cell_volume                      7337.33063067

loop_
_atom_site_label
_atom_site_type_symbol
_atom_type_description
_atom_site_fract_x
_atom_site_fract_y
_atom_site_fract_z
_atom_type_partial_charge
C1    C     C_R   0.860116 0.500045 0.859883 0.828804
C2    C     C_R   0.950178 0.532774 0.232027 -0.191128
C3    C     C_R   0.549822 0.967225 0.767973 -0.191129
C4    C     C_R   0.450177 0.032773 0.232026 -0.191127
C5    C     C_R   0.997938 0.507876 0.684044 -0.097101
C6    C     C_R   0.002062 0.492123 0.315956 -0.097102
C7    C     C_R   0.497938 0.007876 0.684044 -0.097101
C8    C     C_R   0.502062 0.992123 0.315956 -0.097103
C9    C     C_1   0.782588 0.500143 0.781983 -0.143696
C10   C     C_1   0.217412 0.499857 0.218017 -0.143695
C11   C     C_1   0.282588 0.000143 0.781983 -0.143695
C12   C     C_R   0.139884 0.499955 0.140117 0.828804
C13   C     C_1   0.717412 0.999857 0.218017 -0.143692
C14   C     C_1   0.717283 0.500150 0.716607 -0.135737
C15   C     C_1   0.282717 0.499850 0.283392 -0.135733
C16   C     C_1   0.217283 0.000150 0.716607 -0.135734
C17   C     C_1   0.782717 0.999850 0.283392 -0.135728
C18   C     C_R   0.999958 0.639933 0.500076 0.838361
C19   C     C_R   0.000042 0.360067 0.499924 0.838361
C20   C     C_R   0.499958 0.139933 0.500076 0.838362
C21   C     C_R   0.500042 0.860067 0.499924 0.838362
C22   C     C_R   0.999529 0.503822 0.618508 0.785603
C23   C     C_R   0.360116 0.000045 0.859883 0.828804
C24   C     C_R   0.000471 0.496178 0.381492 0.785603
C25   C     C_R   0.499529 0.003822 0.618508 0.785603
C26   C     C_R   0.500471 0.996178 0.381492 0.785603
C27   C     C_R   0.500056 0.639735 0.499931 0.837910
C28   C     C_R   0.499944 0.360265 0.500068 0.837910
C29   C     C_R   0.000056 0.139735 0.499931 0.837910
C30   C     C_R   0.999944 0.860265 0.500068 0.837910
C31   C     C_R   0.639735 0.500079 0.639509 0.837978
C32   C     C_R   0.360265 0.499921 0.360491 0.837980
C33   C     C_R   0.139735 0.000079 0.639509 0.837979
C34   C     C_R   0.639884 0.999955 0.140117 0.828803
C35   C     C_R   0.860265 0.999921 0.360491 0.837980
C36   C     C_1   0.999876 0.717455 0.500185 -0.170624
C37   C     C_1   0.000124 0.282545 0.499815 -0.170623
C38   C     C_1   0.499876 0.217455 0.500185 -0.170623
C39   C     C_1   0.500124 0.782545 0.499815 -0.170623
C40   C     C_R   0.998153 0.500181 0.879358 0.778274
C41   C     C_R   0.001847 0.499819 0.120642 0.778275
C42   C     C_R   0.498153 0.000181 0.879358 0.778275
C43   C     C_R   0.501846 0.999819 0.120642 0.778275
C44   C     C_1   0.499881 0.282734 0.500229 -0.158432
C45   C     C_R   0.048037 0.464103 0.829755 -0.197407
C46   C     C_1   0.500119 0.717266 0.499771 -0.158431
C47   C     C_1   0.999881 0.782734 0.500229 -0.158432
C48   C     C_1   0.000119 0.217266 0.499771 -0.158432
C49   C     C_R   0.881323 0.574539 0.697064 -0.229494
C50   C     C_R   0.118678 0.425463 0.302937 -0.229494
C51   C     C_R   0.381323 0.074538 0.697063 -0.229494
C52   C     C_R   0.618679 0.925466 0.302939 -0.229493
C53   C     C_R   0.828869 0.616075 0.613678 0.038817
C54   C     C_R   0.171133 0.383929 0.386323 0.038817
C55   C     C_R   0.328868 0.116072 0.613677 0.038816
C56   C     C_R   0.951962 0.535896 0.170244 -0.197408
C57   C     C_R   0.671135 0.883933 0.386326 0.038816
C58   C     C_R   0.836268 0.626394 0.557569 -0.173021
C59   C     C_R   0.163734 0.373609 0.442434 -0.173022
C60   C     C_R   0.336267 0.126392 0.557567 -0.173022
C61   C     C_R   0.663737 0.873613 0.442436 -0.173024
C62   C     C_R   0.893088 0.593491 0.581865 -0.204006
C63   C     C_R   0.106914 0.406511 0.418136 -0.204007
C64   C     C_R   0.393087 0.093490 0.581865 -0.204006
C65   C     C_R   0.606916 0.906513 0.418138 -0.204006
C66   C     C_R   0.943442 0.547452 0.662146 0.106605
C67   C     C_R   0.548038 0.964104 0.829755 -0.197408
C68   C     C_R   0.056559 0.452549 0.337854 0.106606
C69   C     C_R   0.443442 0.047452 0.662146 0.106606
C70   C     C_R   0.556559 0.952550 0.337855 0.106606
C71   C     C_R   0.939829 0.541460 0.723403 0.074464
C72   C     C_R   0.060171 0.458541 0.276597 0.074465
C73   C     C_R   0.439829 0.041459 0.723403 0.074465
C74   C     C_R   0.560172 0.958542 0.276597 0.074464
C75   C     C_R   0.994086 0.501150 0.808643 -0.076234
C76   C     C_R   0.005914 0.498850 0.191357 -0.076233
C77   C     C_R   0.494086 0.001150 0.808643 -0.076233
C78   C     C_R   0.451961 0.035894 0.170243 -0.197409
C79   C     C_R   0.505914 0.998850 0.191357 -0.076232
C80   C     C_2   0.766314 0.648612 0.584941 0.858766
C81   C     C_2   0.233689 0.351394 0.415062 0.858769
C82   C     C_2   0.266312 0.148608 0.584939 0.858769
C83   C     C_2   0.733692 0.851399 0.415065 0.858769
C84   C     C_R   0.049821 0.467224 0.767972 -0.191128
Cu1   Cu    Cu3+1 1.000000 0.427490 0.000000 0.986497
Cu2   Cu    Cu3+1 0.500000 0.500000 0.561800 0.990465
Cu3   Cu    Cu3+1 1.000000 0.000000 0.438200 0.990463
Cu4   Cu    Cu3+1 0.000000 0.000000 0.561800 0.990466
Cu5   Cu    Cu3+1 1.000000 0.572510 0.000000 0.986498
Cu6   Cu    Cu3+1 0.500000 0.927490 0.000000 0.986496
Cu7   Cu    Cu3+1 0.500000 0.072510 0.000000 0.986497
Cu8   Cu    Cu3+1 0.072520 0.500000 0.572540 0.970437
Cu9   Cu    Cu3+1 0.927480 0.500000 0.427460 0.970437
Cu10  Cu    Cu3+1 0.572520 0.000000 0.572540 0.970437
Cu11  Cu    Cu3+1 0.427480 0.000000 0.427460 0.970437
Cu12  Cu    Cu3+1 0.500000 0.500000 0.438200 0.990464
H1    H     H_    0.089500 0.433143 0.895033 0.152800
H2    H     H_    0.202276 0.340317 0.505906 0.195717
H3    H     H_    0.297726 0.159685 0.494095 0.195717
H4    H     H_    0.702279 0.840321 0.505910 0.195716
H5    H     H_    0.897081 0.605532 0.537291 0.165606
H6    H     H_    0.102920 0.394470 0.462711 0.165607
H7    H     H_    0.397081 0.105531 0.537290 0.165607
H8    H     H_    0.602923 0.894471 0.462712 0.165607
H9    H     H_    0.091473 0.436707 0.785256 0.163540
H10   H     H_    0.908525 0.563291 0.214742 0.163540
H11   H     H_    0.591474 0.936708 0.785257 0.163540
H12   H     H_    0.910498 0.566855 0.104966 0.152800
H13   H     H_    0.408524 0.063289 0.214741 0.163541
H14   H     H_    0.671493 0.703985 0.485925 0.331800
H15   H     H_    0.328512 0.296025 0.514081 0.331800
H16   H     H_    0.171490 0.203979 0.485922 0.331799
H17   H     H_    0.828514 0.796026 0.514081 0.331800
H18   H     H_    0.589501 0.933144 0.895033 0.152800
H19   H     H_    0.410496 0.066853 0.104964 0.152799
H20   H     H_    0.875072 0.566838 0.739919 0.171460
H21   H     H_    0.124929 0.433165 0.260081 0.171459
H22   H     H_    0.375071 0.066836 0.739919 0.171460
H23   H     H_    0.624930 0.933167 0.260082 0.171458
H24   H     H_    0.797728 0.659688 0.494097 0.195717
O1    O     O_R   0.894200 0.438770 0.894190 -0.582588
O2    O     O_R   0.000010 0.561230 0.090190 -0.582429
O3    O     O_R   0.000010 0.438770 0.090190 -0.581951
O4    O     O_R   0.999990 0.561230 0.909810 -0.581952
O5    O     O_R   0.499990 0.938770 0.909810 -0.582430
O6    O     O_R   0.500010 0.061230 0.090190 -0.582429
O7    O     O_R   0.500010 0.938770 0.090190 -0.581951
O8    O     O_R   0.499990 0.061230 0.909810 -0.581952
O9    O     O_R   0.061240 0.605830 0.561270 -0.575575
O10   O     O_R   0.938760 0.394170 0.438730 -0.575575
O11   O     O_R   0.938760 0.605830 0.438730 -0.587831
O12   O     O_R   0.105800 0.561230 0.105810 -0.582588
O13   O     O_R   0.061240 0.394170 0.561270 -0.587831
O14   O     O_R   0.561240 0.105830 0.561270 -0.575575
O15   O     O_R   0.438760 0.894170 0.438730 -0.575575
O16   O     O_R   0.438760 0.105830 0.438730 -0.587830
O17   O     O_R   0.561240 0.894170 0.561270 -0.587831
O18   O     O_R   0.061260 0.500000 0.651450 -0.582997
O19   O     O_R   0.938740 0.500000 0.348550 -0.582997
O20   O     O_R   0.561260 0.000000 0.651450 -0.582997
O21   O     O_R   0.438740 0.000000 0.348550 -0.582997
O22   O     O_R   0.938780 0.500000 0.528960 -0.589774
O23   O     O_R   0.105800 0.438770 0.105810 -0.571981
O24   O     O_R   0.061220 0.500000 0.471040 -0.589776
O25   O     O_R   0.438780 0.000000 0.528960 -0.589775
O26   O     O_R   0.561220 0.000000 0.471040 -0.589776
O27   O     O_R   0.500010 0.605810 0.447830 -0.579452
O28   O     O_R   0.499990 0.394190 0.552170 -0.579452
O29   O     O_R   0.499990 0.605810 0.552170 -0.582758
O30   O     O_R   0.500010 0.394190 0.447830 -0.582759
O31   O     O_R   0.000010 0.105810 0.447830 -0.579452
O32   O     O_R   0.999990 0.894190 0.552170 -0.579452
O33   O     O_R   0.999990 0.105810 0.552170 -0.582759
O34   O     O_R   0.894200 0.561230 0.894190 -0.571980
O35   O     O_R   0.000010 0.894190 0.447830 -0.582759
O36   O     O_R   0.605800 0.500000 0.553630 -0.571523
O37   O     O_R   0.394200 0.500000 0.446370 -0.571521
O38   O     O_R   0.105800 0.000000 0.553630 -0.571521
O39   O     O_R   0.894200 0.000000 0.446370 -0.571518
O40   O     O_R   0.605820 0.500000 0.658030 -0.587325
O41   O     O_R   0.394180 0.500000 0.341970 -0.587328
O42   O     O_R   0.105820 0.000000 0.658030 -0.587326
O43   O     O_R   0.894180 0.000000 0.341970 -0.587329
O44   O     O_2   0.761943 0.643147 0.636594 -0.604759
O45   O     O_R   0.394200 0.938770 0.894190 -0.582588
O46   O     O_R   0.711639 0.685123 0.498036 -0.756085
O47   O     O_2   0.238062 0.356860 0.363411 -0.604760
O48   O     O_R   0.288365 0.314883 0.501967 -0.756085
O49   O     O_2   0.261938 0.143140 0.636589 -0.604760
O50   O     O_R   0.211638 0.185121 0.498035 -0.756086
O51   O     O_2   0.738068 0.856870 0.363416 -0.604761
O52   O     O_R   0.788366 0.814884 0.501967 -0.756087
O53   O     O_R   0.605800 0.061230 0.105810 -0.582588
O54   O     O_R   0.605800 0.938770 0.105810 -0.571982
O55   O     O_R   0.394200 0.061230 0.894190 -0.571981
O56   O     O_R   0.999990 0.438770 0.909810 -0.582430

loop_
_geom_bond_atom_site_label_1
_geom_bond_atom_site_label_2
_ccdc_geom_bond_type
Cu10  O26   S    
C64   H7    S    
Cu3   O43   S    
Cu3   Cu4   S    
C82   O50   S    
C58   C62   A    
C56   C76   A    
Cu7   O6    S    
C50   H21   S    
C8    C26   S    
Cu8   O13   S    
C67   C77   A    
C21   O17   A    
C14   C31   S    
C4    C8    A    
C60   H3    S    
Cu8   O18   S    
Cu1   O23   S    
C31   O36   A    
Cu6   Cu7   S    
C15   C32   S    
C28   O30   A    
C50   C54   A    
Cu5   O12   S    
Cu1   O56   S    
C34   O54   A    
Cu8   Cu9   S    
C67   H18   S    
C3    C7    A    
C10   C15   T    
C49   C53   A    
C23   O55   A    
Cu5   O2    S    
C43   C79   S    
C65   C70   A    
C51   H22   S    
Cu10  O20   S    
Cu12  O41   S    
Cu7   O53   S    
C36   C47   T    
C4    C78   A    
Cu4   O39   S    
C26   O26   A    
C50   C72   A    
C80   O44   D    
C19   C37   S    
C42   O5    A    
C23   O45   A    
Cu6   O5    S    
H16   O50   S    
C5    C22   S    
C78   H19   S    
Cu11  O25   S    
C70   C74   A    
Cu6   O7    S    
C57   C83   S    
Cu1   O1    S    
C26   O21   A    
C31   O40   A    
C42   O8    A    
C62   H5    S    
C19   O10   A    
C6    C68   A    
C82   O49   D    
Cu12  O30   S    
C27   O29   A    
Cu3   O31   S    
C55   C60   A    
C83   O52   S    
Cu4   O32   S    
C22   O22   A    
C18   O11   A    
C2    C6    A    
Cu1   O3    S    
C63   H6    S    
C43   O6    A    
C80   O46   S    
H17   O52   S    
C35   O39   A    
C54   C59   A    
C24   O19   A    
C40   O4    A    
C28   O28   A    
Cu7   O8    S    
C62   C66   A    
C29   C48   S    
C30   C47   S    
C25   O20   A    
C1    C9    S    
Cu2   O29   S    
C43   O7    A    
C40   O56   A    
C5    C84   A    
Cu1   Cu5   S    
C78   C79   A    
C3    H11   S    
C28   C44   S    
C35   O43   A    
C83   O51   D    
C37   C48   T    
C41   O2    A    
C9    C14   T    
C38   C44   T    
Cu9   O19   S    
C16   C33   S    
C29   O31   A    
C20   C38   S    
C11   C16   T    
C30   O32   A    
C66   C71   A    
C21   C39   S    
Cu2   Cu12  S    
C68   C72   A    
C6    C24   S    
C32   O41   A    
C53   C80   S    
Cu11  O15   S    
C84   H9    S    
C81   O47   D    
Cu7   O55   S    
C72   C76   A    
C64   C69   A    
C20   O16   A    
C55   C82   S    
C69   C73   A    
C45   C75   A    
C10   C12   S    
C39   C46   T    
C27   C46   S    
C30   O35   A    
Cu11  O21   S    
Cu10  Cu11  S    
C74   C79   A    
Cu6   O45   S    
Cu3   O35   S    
C45   C84   A    
C58   H24   S    
Cu9   O10   S    
Cu3   O38   S    
C33   O38   A    
C29   O33   A    
C32   O37   A    
C59   H2    S    
Cu12  O27   S    
Cu6   O54   S    
C63   C68   A    
C73   C77   A    
C12   O12   A    
C8    C70   A    
C3    C67   A    
C51   C73   A    
C5    C66   A    
Cu2   O28   S    
C7    C69   A    
C25   O25   A    
C53   C58   A    
C40   C75   S    
C57   C61   A    
Cu5   O4    S    
C19   O13   A    
C4    H13   S    
C17   C35   S    
C22   O18   A    
C59   C63   A    
C7    C25   S    
C12   O23   A    
C13   C17   T    
C60   C64   A    
Cu4   O33   S    
C41   O3    A    
Cu8   O9    S    
C13   C34   S    
C34   O53   A    
C2    C56   A    
C41   C76   S    
C71   C75   A    
H14   O46   S    
Cu5   O34   S    
Cu12  O36   S    
Cu2   O40   S    
C24   O24   A    
Cu4   O42   S    
C11   C23   S    
Cu11  O16   S    
Cu10  O14   S    
C81   O48   S    
C2    H10   S    
C33   O42   A    
C51   C55   A    
C1    O34   A    
Cu8   O24   S    
Cu2   O37   S    
C1    O1    A    
C52   C57   A    
C61   H4    S    
C52   H23   S    
C61   C65   A    
C49   H20   S    
C42   C77   S    
C27   O27   A    
C49   C71   A    
Cu10  O17   S    
C56   H12   S    
C18   O9    A    
C45   H1    S    
H15   O48   S    
C52   C74   A    
C65   H8    S    
C20   O14   A    
Cu9   O11   S    
C18   C36   S    
C21   O15   A    
C54   C81   S    
Cu9   O22   S    
