data_mof_unit_39829.cif
_audit_creation_date              2012-12-11T16:56:20-0500
_audit_creation_method            fapswitch 2.2
_symmetry_space_group_name_H-M    P1
_symmetry_Int_Tables_number       1
_space_group_crystal_system       triclinic
_cell_length_a                    6.990615
_cell_length_b                    14.58763
_cell_length_c                    16.157154
_cell_angle_alpha                 90.402222
_cell_angle_beta                  89.931851
_cell_angle_gamma                 89.984352
_cell_volume                      1647.60826704

loop_
_atom_site_label
_atom_site_type_symbol
_atom_type_description
_atom_site_fract_x
_atom_site_fract_y
_atom_site_fract_z
_atom_type_partial_charge
O1    O     O_R   0.505830 0.583360 0.413880 -0.533798
O2    O     O_R   0.175830 0.595460 0.585520 -0.548355
O3    O     O_R   0.005520 0.416640 0.586120 -0.541914
C1    C     C_R   0.344531 0.616655 0.614952 0.706629
O4    O     O_R   0.176120 0.594390 0.414490 -0.530998
O5    O     O_R   0.005810 0.415570 0.413870 -0.539838
C2    C     C_R   0.345539 0.616563 0.386209 0.732719
O6    O     O_R   0.505540 0.584430 0.586130 -0.528890
O7    O     O_3   0.339200 0.441330 0.500000 -0.376013
V1    V     V_3+5 0.064350 0.510880 0.500000 1.450235
O8    O     O_R   0.676100 0.404540 0.414480 -0.532051
C3    C     C_R   0.844745 0.382197 0.386086 0.739304
O9    O     O_R   0.675810 0.405610 0.585510 -0.538569
C4    C     C_R   0.845005 0.383583 0.613390 0.763022
V2    V     V_3+5 0.564340 0.489120 0.500000 1.466800
O10   O     O_3   0.839360 0.558670 0.500000 -0.370838
C5    C     C_2   0.721755 0.209487 0.786550 -0.122262
C6    C     C_2   0.885723 0.181930 0.822786 -0.298027
H1    H     H_    0.586781 0.181146 0.807716 0.137305
C7    C     C_2   0.709360 0.278016 0.718595 -0.109186
C8    C     C_2   0.861492 0.315328 0.680246 -0.283310
H2    H     H_    0.566424 0.297681 0.699319 0.139336
C9    C     C_R   0.720096 0.184588 0.239769 0.051360
C10   C     C_R   0.881811 0.178777 0.188636 -0.087892
C11   C     C_R   0.035708 0.237504 0.207021 -0.157403
H3    H     H_    0.161225 0.237082 0.168156 0.156926
C12   C     C_R   0.023275 0.301982 0.272070 -0.130391
H4    H     H_    0.139511 0.348321 0.283229 0.171377
C13   C     C_R   0.856169 0.312035 0.319167 -0.081869
C14   C     C_R   0.704897 0.252597 0.300794 0.042740
C15   C     C_3   0.505038 0.274780 0.275512 0.005901
C16   C     C_3   0.517580 0.195839 0.214092 -0.414607
H5    H     H_    0.402100 0.262547 0.326641 0.101018
H6    H     H_    0.503178 0.216098 0.148187 0.205048
H7    H     H_    0.429210 0.135768 0.231983 0.137840
C17   C     C_R   0.519411 0.736677 0.698576 0.051024
C18   C     C_R   0.354115 0.685450 0.683345 -0.086514
C19   C     C_R   0.199687 0.699592 0.737456 -0.153714
H8    H     H_    0.075783 0.656986 0.731410 0.166038
C20   C     C_R   0.211117 0.762497 0.803977 -0.156560
H9    H     H_    0.092873 0.767598 0.846859 0.143167
C21   C     C_R   0.378590 0.813741 0.818457 -0.083944
C22   C     C_R   0.529742 0.801822 0.762409 0.054336
C23   C     C_3   0.731173 0.777305 0.781427 -0.428839
C24   C     C_3   0.716184 0.702737 0.715753 0.002253
H10   H     H_    0.830478 0.833512 0.764112 0.145331
H11   H     H_    0.812331 0.713401 0.661856 0.109669
C25   C     C_R   0.511019 0.683764 0.261113 0.159552
C26   C     C_R   0.356172 0.683000 0.316883 -0.133260
C27   C     C_R   0.206232 0.745497 0.302447 -0.148824
H12   H     H_    0.084653 0.747861 0.343782 0.130894
C28   C     C_R   0.215194 0.808525 0.236839 -0.172184
C29   C     C_R   0.377000 0.812843 0.184922 -0.110715
C30   C     C_R   0.521658 0.748438 0.197903 0.099824
C31   C     C_3   0.729092 0.765044 0.211104 -0.448256
C32   C     C_3   0.720372 0.693216 0.278513 0.002783
H13   H     H_    0.815548 0.745086 0.156105 0.213872
H14   H     H_    0.748951 0.721022 0.341529 0.095028
O11   O     O_R   0.229930 0.912420 0.917160 -0.542894
O12   O     O_R   0.559420 0.902500 0.088780 -0.539404
O13   O     O_R   0.729660 0.081330 0.089380 -0.537356
C33   C     C_R   0.390363 0.881574 0.117902 0.705215
O14   O     O_R   0.559650 0.901420 0.917750 -0.538297
O15   O     O_R   0.729880 0.080250 0.917130 -0.537201
C34   C     C_R   0.390758 0.879400 0.889053 0.698988
O16   O     O_R   0.229700 0.913500 0.089410 -0.540134
O17   O     O_3   0.396250 0.055540 0.003280 -0.371631
V3    V     V_3+5 0.671130 0.986010 0.003260 1.418380
O18   O     O_R   0.059600 0.091310 0.917720 -0.542977
C35   C     C_R   0.890944 0.113211 0.889691 0.748235
O19   O     O_R   0.059370 0.092380 0.088750 -0.547254
C36   C     C_R   0.890560 0.113801 0.117739 0.697836
V4    V     V_3+5 0.171120 0.007820 0.003230 1.409065
O20   O     O_3   0.896130 0.938240 0.003240 -0.371894
H15   H     H_    0.748871 0.751509 0.845545 0.204911
I1    I     I_    0.718526 0.567636 0.770329 -0.398705
H16   H     H_    0.099626 0.857064 0.229365 0.124272
H17   H     H_    0.757703 0.835200 0.235411 0.138462
H18   H     H_    0.022294 0.209747 0.803800 0.132081
I2    I     I_    0.879824 0.573296 0.244767 -0.316379
H19   H     H_    0.005511 0.296389 0.697746 0.127479
I3    I     I_    0.484190 0.403798 0.211295 -0.353107

loop_
_geom_bond_atom_site_label_1
_geom_bond_atom_site_label_2
_ccdc_geom_bond_type
C6    C35   S    
C31   C32   S    
O14   C34   A    
C3    C13   S    
C12   C13   A    
V4    O20   S    
C1    O6    A    
C29   C30   A    
C28   C29   A    
C25   C30   A    
C13   C14   A    
C15   I3    S    
C24   I1    S    
O15   V3    S    
C4    C8    S    
C17   C18   A    
O5    C3    A    
C14   C15   S    
V3    O20   S    
V2    O10   S    
C5    C7    S    
O12   C33   A    
O14   V3    S    
O8    V2    S    
C6    H18   S    
C21   C34   S    
C27   C28   A    
C9    C10   A    
C15   H5    S    
O18   V4    S    
O17   V4    S    
O15   C35   A    
O7    V1    S    
O11   V4    S    
C20   C21   A    
O9    C4    A    
C23   H10   S    
C5    C6    D    
C24   H11   S    
C33   O16   A    
O17   V3    S    
C9    C14   A    
C10   C11   A    
C2    C26   S    
O19   V4    S    
C31   H17   S    
C11   H3    S    
O16   V4    S    
C16   H6    S    
C23   H15   S    
O2    C1    A    
C22   C23   S    
C16   H7    S    
C18   C19   A    
C29   C33   S    
C15   C16   S    
C27   H12   S    
C17   C24   S    
C7    C8    D    
O3    C4    A    
O1    V2    S    
O13   C36   A    
C25   C26   A    
C7    H2    S    
O6    V2    S    
O9    V2    S    
C21   C22   A    
C28   H16   S    
O2    V1    S    
C23   C24   S    
C10   C36   S    
O4    C2    A    
C25   C32   S    
C30   C31   S    
C20   H9    S    
O1    C2    A    
C8    H19   S    
O5    V1    S    
O8    C3    A    
C11   C12   A    
C32   I2    S    
C9    C16   S    
C31   H13   S    
O7    V2    S    
O4    V1    S    
O3    V1    S    
V1    O10   S    
O11   C34   A    
C19   C20   A    
O13   V3    S    
C19   H8    S    
C5    H1    S    
C32   H14   S    
O18   C35   A    
O19   C36   A    
C1    C18   S    
O12   V3    S    
C26   C27   A    
C12   H4    S    
C17   C22   A    
