data_mof_unit_49430.cif
_audit_creation_date              2012-12-10T18:53:03-0500
_audit_creation_method            fapswitch 2.2
_symmetry_space_group_name_H-M    P1
_symmetry_Int_Tables_number       1
_space_group_crystal_system       triclinic
_cell_length_a                    9.895226
_cell_length_b                    10.685983
_cell_length_c                    16.95967
_cell_angle_alpha                 92.664534
_cell_angle_beta                  84.493273
_cell_angle_gamma                 89.654446
_cell_volume                      1783.01371526

loop_
_atom_site_label
_atom_site_type_symbol
_atom_type_description
_atom_site_fract_x
_atom_site_fract_y
_atom_site_fract_z
_atom_type_partial_charge
Br1   Br    Br    0.644265 0.273248 0.712077 -0.556214
Br2   Br    Br    0.355141 0.263768 0.283950 -0.462574
Br3   Br    Br    0.397194 0.231155 0.087946 -0.437959
Br4   Br    Br    0.595769 0.253206 0.905712 -0.482769
Br5   Br    Br    0.861999 0.303197 0.377872 -0.477243
Br6   Br    Br    0.136519 0.704577 0.615408 -0.562384
C1    C     C_R   0.499053 0.740245 0.504373 0.887258
C2    C     C_R   0.061693 0.582064 0.548484 0.316057
C3    C     C_R   0.081109 0.418263 0.451263 -0.150196
C4    C     C_R   0.918880 0.580643 0.549055 -0.131696
C5    C     C_R   0.480383 0.499073 0.652551 0.964363
C6    C     C_R   0.519910 0.494408 0.347669 0.997864
C7    C     C_R   0.464145 0.491041 0.738049 -0.357971
C8    C     C_R   0.537014 0.476399 0.262422 -0.364857
C9    C     C_R   0.527683 0.394279 0.774417 0.172667
C10   C     C_R   0.464775 0.382028 0.224049 0.155351
C11   C     C_R   0.503591 0.384516 0.856588 0.263066
C12   C     C_R   0.498725 0.260478 0.504124 0.969994
C13   C     C_R   0.477019 0.372124 0.141040 0.273888
C14   C     C_R   0.411221 0.468764 0.901516 -0.193561
C15   C     C_R   0.559883 0.458533 0.098677 -0.255893
C16   C     C_R   0.333104 0.551557 0.861818 0.347892
C17   C     C_R   0.662412 0.517867 0.138259 0.373514
C18   C     C_R   0.371474 0.572417 0.782558 0.348310
C19   C     C_R   0.640318 0.541620 0.219401 0.346955
C20   C     C_2   0.413393 0.482948 0.988606 0.486254
C21   C     C_2   0.535599 0.496475 0.017738 0.440246
C22   C     C_3   0.665408 0.738147 0.276556 0.108750
C23   C     C_R   0.613934 0.939219 0.530889 0.485816
C24   C     C_3   0.729675 0.836367 0.222234 -0.374672
C25   C     C_3   0.668265 0.966323 0.243953 -0.836512
C26   C     C_3   0.390434 0.774689 0.742498 0.133196
C27   C     C_3   0.315310 0.885015 0.788385 -0.323134
C28   C     C_3   0.385494 0.009084 0.771438 -0.922998
C29   C     C_3   0.644080 0.681867 0.991380 0.107262
C30   C     C_3   0.575722 0.759678 0.933094 -0.495200
C31   C     C_3   0.587744 0.899324 0.954469 -0.828581
C32   C     C_3   0.250888 0.595243 0.070819 0.083259
C33   C     C_3   0.257463 0.603853 0.160709 -0.393811
C34   C     C_R   0.368672 0.064978 0.519501 0.500808
C35   C     C_3   0.171556 0.712867 0.199935 -0.884593
C36   C     C_3   0.104647 0.558589 0.898836 0.083387
C37   C     C_3   0.047972 0.559244 0.817443 -0.349096
C38   C     C_3   0.903432 0.509554 0.821148 -0.899613
C39   C     C_3   0.862722 0.442353 0.076069 0.118778
C40   C     C_3   0.925561 0.387604 0.146533 -0.373840
C41   C     C_3   0.019257 0.276852 0.119610 -0.813455
C42   C     C_3   0.702923 0.865262 0.638605 0.057155
C43   C     C_3   0.825759 0.911151 0.678725 -0.316398
C44   C     C_3   0.823372 0.867525 0.763062 -0.952305
C45   C     C_R   0.614204 0.066951 0.526181 -0.263832
C46   C     C_3   0.209209 0.183690 0.598686 0.142537
C47   C     C_3   0.101917 0.109267 0.646322 -0.401945
C48   C     C_3   0.053801 0.179643 0.724642 -0.909236
C49   C     C_R   0.372847 0.936684 0.512663 -0.286122
C50   C     C_R   0.493538 0.129409 0.516164 -0.236435
C51   C     C_R   0.496130 0.873517 0.515170 -0.265255
C52   C     C_R   0.937996 0.418603 0.450517 0.338400
H1    H     H_    0.707958 0.116699 0.532627 0.228631
H2    H     H_    0.717647 0.035509 0.203927 0.277061
H3    H     H_    0.684433 0.995265 0.306105 0.279180
H4    H     H_    0.407547 0.796406 0.678995 0.159432
H5    H     H_    0.492400 0.763231 0.764381 0.075464
H6    H     H_    0.209728 0.890422 0.771456 0.248745
H7    H     H_    0.310265 0.869786 0.852949 0.243787
H8    H     H_    0.491944 0.006372 0.786589 0.288629
H9    H     H_    0.331054 0.086267 0.807637 0.287404
H10   H     H_    0.385323 0.028753 0.707763 0.259422
H11   H     H_    0.752625 0.708912 0.988983 0.197548
H12   H     H_    0.278996 0.887363 0.506205 0.236030
H13   H     H_    0.597807 0.708040 0.052616 0.122854
H14   H     H_    0.623760 0.737836 0.872194 0.232890
H15   H     H_    0.466654 0.736647 0.935325 0.237928
H16   H     H_    0.540653 0.921635 0.015686 0.282997
H17   H     H_    0.534071 0.954553 0.913269 0.293187
H18   H     H_    0.696047 0.927253 0.950264 0.270368
H19   H     H_    0.143403 0.608082 0.059326 0.189172
H20   H     H_    0.308091 0.675012 0.044019 0.136258
H21   H     H_    0.220809 0.515427 0.186895 0.272037
H22   H     H_    0.364012 0.619087 0.173504 0.192018
H23   H     H_    0.142628 0.352776 0.412557 0.227738
H24   H     H_    0.206404 0.802615 0.174797 0.271751
H25   H     H_    0.181606 0.717997 0.264663 0.277729
H26   H     H_    0.062853 0.699131 0.190794 0.275887
H27   H     H_    0.029638 0.608506 0.942234 0.159873
H28   H     H_    0.113657 0.460647 0.917929 0.151895
H29   H     H_    0.047746 0.656488 0.796960 0.283029
H30   H     H_    0.112026 0.498797 0.773542 0.244670
H31   H     H_    0.898794 0.414442 0.845020 0.299019
H32   H     H_    0.868921 0.504366 0.760669 0.283078
H33   H     H_    0.834090 0.573727 0.859247 0.292917
H34   H     H_    0.857741 0.644748 0.588494 0.178469
H35   H     H_    0.946239 0.468833 0.032317 0.144637
H36   H     H_    0.803728 0.369762 0.045164 0.186006
H37   H     H_    0.983879 0.461355 0.176230 0.260981
H38   H     H_    0.844323 0.354796 0.190311 0.250219
H39   H     H_    0.960396 0.199211 0.094204 0.251626
H40   H     H_    0.067680 0.242803 0.171129 0.309244
H41   H     H_    0.099862 0.305317 0.074116 0.308764
H42   H     H_    0.685684 0.764466 0.648571 0.150371
H43   H     H_    0.612975 0.917589 0.668525 0.127009
H44   H     H_    0.919998 0.876953 0.643808 0.266687
H45   H     H_    0.683958 0.764945 0.338658 0.183099
H46   H     H_    0.824627 0.015022 0.680548 0.252095
H47   H     H_    0.733899 0.908922 0.799634 0.282747
H48   H     H_    0.916808 0.898540 0.789338 0.274172
H49   H     H_    0.818907 0.763748 0.763221 0.267082
H50   H     H_    0.165201 0.277332 0.589874 0.189083
H51   H     H_    0.297597 0.200475 0.634013 0.113843
H52   H     H_    0.014512 0.094692 0.610635 0.252524
H53   H     H_    0.144538 0.016482 0.658385 0.242900
H54   H     H_    0.141118 0.202310 0.759083 0.258611
H55   H     H_    0.982158 0.121194 0.760943 0.288453
H56   H     H_    0.552748 0.739309 0.274546 0.091089
H57   H     H_    0.001051 0.268055 0.713105 0.288872
H58   H     H_    0.840779 0.839320 0.227309 0.245769
H59   H     H_    0.713518 0.810142 0.159742 0.224709
H60   H     H_    0.557655 0.966329 0.237296 0.279812
N1    N     N_R   0.142790 0.500030 0.500020 -0.135010
N2    N     N_R   0.857210 0.499970 0.499980 -0.119156
O1    O     O_R   0.385380 0.683250 0.500010 -0.589168
O2    O     O_3   0.307760 0.667292 0.747341 -0.583429
O3    O     O_3   0.639543 0.551486 0.970699 -0.645105
O4    O     O_3   0.293524 0.474931 0.038019 -0.645805
O5    O     O_3   0.228902 0.623810 0.900901 -0.646900
O6    O     O_3   0.784959 0.552013 0.099461 -0.624577
O7    O     O_3   0.726251 0.881281 0.555824 -0.611684
O8    O     O_3   0.242989 0.124169 0.522602 -0.605464
O9    O     O_R   0.614620 0.316750 0.499990 -0.580891
O10   O     O_R   0.614710 0.683220 0.500000 -0.595139
O11   O     O_R   0.385290 0.316780 0.500000 -0.602876
O12   O     O_R   0.371780 0.500040 0.615800 -0.582528
O13   O     O_R   0.628220 0.499960 0.384200 -0.552216
O14   O     O_R   0.601110 0.500010 0.615800 -0.612618
O15   O     O_R   0.398890 0.499990 0.384200 -0.602692
O16   O     O_3   0.728286 0.619795 0.256653 -0.585440
Zn1   Zn    Zn3+2 0.346870 0.500020 0.500000 1.005305
Zn2   Zn    Zn3+2 0.653130 0.499980 0.500000 1.025216

loop_
_geom_bond_atom_site_label_1
_geom_bond_atom_site_label_2
_ccdc_geom_bond_type
C47   H52   S    
C31   H16   S    
C25   H3    S    
C29   C30   S    
C39   H35   S    
C5    O12   A    
C28   H8    S    
C43   H46   S    
C46   O8    S    
C27   H7    S    
C33   C35   S    
C24   H58   S    
C47   C48   S    
C20   C21   D    
C41   H40   S    
Br5   C52   S    
C37   H30   S    
C30   C31   S    
C13   C15   A    
C45   C50   A    
C10   C13   A    
C32   C33   S    
C40   H38   S    
C42   H43   S    
C34   O8    S    
C48   H55   S    
C11   C14   A    
C41   H41   S    
C9    C11   A    
C3    C52   A    
O1    Zn1   S    
C19   O16   S    
C1    O10   A    
C36   O5    S    
O9    Zn2   S    
C34   C50   A    
C6    O15   A    
C44   H47   S    
Br3   C13   S    
C36   H28   S    
Br2   C10   S    
C12   C50   S    
C47   H53   S    
C31   H17   S    
C29   H13   S    
O13   Zn2   S    
C12   O11   A    
C20   O4    S    
C1    O1    A    
C39   H36   S    
C52   N2    A    
C15   C17   A    
C42   H42   S    
C40   H37   S    
N1    Zn1   S    
C26   O2    S    
C5    O14   A    
C28   H10   S    
C43   H44   S    
C21   O3    S    
C16   O5    S    
Br6   C2    S    
C32   H20   S    
O12   Zn1   S    
C39   C40   S    
C35   H26   S    
C7    C18   A    
C33   H21   S    
C25   H2    S    
C37   C38   S    
C25   H60   S    
O11   Zn1   S    
C7    C9    A    
C39   O6    S    
C34   C49   A    
C48   H57   S    
C18   O2    S    
C27   C28   S    
C48   H54   S    
C36   H27   S    
C46   H50   S    
C38   H33   S    
C22   H56   S    
C17   O6    S    
Br1   C9    S    
Br4   C11   S    
C42   C43   S    
C24   H59   S    
C31   H18   S    
C23   C51   A    
C6    O13   A    
C49   C51   A    
C44   H49   S    
C3    N1    A    
C16   C18   A    
C45   H1    S    
C36   C37   S    
O10   Zn2   S    
C38   H32   S    
C46   C47   S    
C23   C45   A    
O15   Zn1   S    
C40   C41   S    
C22   O16   S    
C26   H5    S    
C14   C16   A    
C28   H9    S    
O14   Zn2   S    
C32   H19   S    
C41   H39   S    
C37   H29   S    
C26   C27   S    
C23   O7    S    
C6    C8    S    
C26   H4    S    
C22   C24   S    
C33   H22   S    
C42   O7    S    
C5    C7    S    
C22   H45   S    
C24   C25   S    
C14   C20   S    
C46   H51   S    
C27   H6    S    
C35   H24   S    
C29   O3    S    
C8    C10   A    
C17   C19   A    
C8    C19   A    
C15   C21   S    
C49   H12   S    
C4    N2    A    
C30   H15   S    
C4    H34   S    
N2    Zn2   S    
C29   H11   S    
C2    C4    A    
C43   C44   S    
C44   H48   S    
C12   O9    A    
C1    C51   S    
C32   O4    S    
C38   H31   S    
C30   H14   S    
C2    N1    A    
C3    H23   S    
C35   H25   S    
