data_mof_unit_11697.cif
_audit_creation_date              2012-12-10T20:27:59-0500
_audit_creation_method            fapswitch 2.2
_symmetry_space_group_name_H-M    P1
_symmetry_Int_Tables_number       1
_space_group_crystal_system       triclinic
_cell_length_a                    12.872359
_cell_length_b                    10.735526
_cell_length_c                    9.848107
_cell_angle_alpha                 90.264194
_cell_angle_beta                  97.217357
_cell_angle_gamma                 90.132722
_cell_volume                      1350.12197954

loop_
_atom_site_label
_atom_site_type_symbol
_atom_type_description
_atom_site_fract_x
_atom_site_fract_y
_atom_site_fract_z
_atom_type_partial_charge
C1    C     C_R   0.500682 0.259886 0.499327 0.905291
C2    C     C_R   0.496416 0.933183 0.373060 -0.337004
C3    C     C_R   0.488261 0.871109 0.495899 -0.174559
C4    C     C_R   0.298088 0.500268 0.473193 0.884339
C5    C     C_R   0.468071 0.937207 0.611317 0.137872
C6    C     C_3   0.520054 0.930550 0.755521 -0.469561
C7    C     C_3   0.521726 0.071680 0.754794 -0.458952
C8    C     C_R   0.453747 0.404820 0.063203 0.278684
C9    C     C_R   0.553974 0.587616 0.081370 -0.149095
C10   C     C_R   0.553958 0.587648 0.937255 -0.140509
C11   C     C_R   0.453894 0.404664 0.920617 0.205847
C12   C     C_R   0.028836 0.518175 0.562448 0.189915
C13   C     C_3   0.341425 0.367361 0.896388 -0.514506
C14   C     C_3   0.341445 0.367654 0.050522 -0.508200
C15   C     C_R   0.498354 0.739800 0.499747 0.913677
C16   C     C_R   0.701853 0.499101 0.526854 0.872512
C17   C     C_R   0.813968 0.499426 0.543284 -0.047741
C18   C     C_R   0.185889 0.498092 0.457174 -0.047537
C19   C     C_R   0.021057 0.448932 0.324454 -0.224766
C20   C     C_R   0.128879 0.459046 0.333852 -0.204298
C21   C     C_R   0.135826 0.529475 0.570180 -0.284755
C22   C     C_3   0.630496 0.107111 0.238946 0.121265
C23   C     C_R   0.971050 0.477597 0.438585 0.187199
C24   C     C_3   0.659818 0.197819 0.131769 -0.826889
C25   C     C_R   0.863954 0.467483 0.430395 -0.289352
C26   C     C_R   0.871016 0.536867 0.667251 -0.209445
C27   C     C_R   0.978890 0.546359 0.676801 -0.225226
C28   C     C_R   0.469574 0.064511 0.610293 0.077584
C29   C     C_R   0.493050 0.127722 0.494556 -0.233656
C30   C     C_R   0.503179 0.061615 0.372338 0.457118
H1    H     H_    0.819473 0.436475 0.335231 0.157807
H2    H     H_    0.330703 0.273502 0.093236 0.224540
H3    H     H_    0.832231 0.561658 0.754999 0.158288
H4    H     H_    0.977111 0.417855 0.229137 0.138642
H5    H     H_    0.022913 0.576839 0.772307 0.138629
H6    H     H_    0.167533 0.433699 0.246414 0.153557
H7    H     H_    0.180109 0.561658 0.664890 0.151722
H8    H     H_    0.505929 0.882967 0.279725 0.183044
H9    H     H_    0.467454 0.891192 0.825853 0.207100
H10   H     H_    0.645678 0.010833 0.204187 0.130919
H11   H     H_    0.682089 0.127219 0.336433 0.121829
H12   H     H_    0.599463 0.888462 0.763728 0.194609
H13   H     H_    0.652200 0.295029 0.168080 0.257580
H14   H     H_    0.742229 0.182202 0.113729 0.198381
H15   H     H_    0.607915 0.183974 0.033992 0.248856
H16   H     H_    0.470157 0.113692 0.824908 0.206221
H17   H     H_    0.602092 0.111641 0.762981 0.200710
H18   H     H_    0.595838 0.659717 0.143057 0.148042
H19   H     H_    0.595830 0.659722 0.890034 0.142855
H20   H     H_    0.290718 0.440810 0.844186 0.218076
H21   H     H_    0.330469 0.273037 0.849808 0.203153
H22   H     H_    0.291272 0.441776 0.086526 0.203574
N1    N     N_R   0.499290 0.499140 0.142710 -0.117564
N2    N     N_R   0.499290 0.499180 0.857070 -0.106831
O1    O     O_R   0.500010 0.316790 0.614690 -0.621936
O2    O     O_R   0.500000 0.316760 0.385350 -0.563572
O3    O     O_R   0.346360 0.499990 0.595720 -0.624758
O4    O     O_R   0.346350 0.499960 0.366370 -0.626535
O5    O     O_R   0.500000 0.683240 0.614650 -0.622610
O6    O     O_R   0.499990 0.683210 0.385310 -0.628650
O7    O     O_R   0.653650 0.500040 0.633630 -0.627946
O8    O     O_R   0.653640 0.500010 0.404280 -0.630654
O9    O     O_3   0.523298 0.121329 0.253905 -0.593612
Zn1   Zn    Zn3+2 0.500010 0.500020 0.653130 0.938184
Zn2   Zn    Zn3+2 0.499990 0.499980 0.346870 0.953094

loop_
_geom_bond_atom_site_label_1
_geom_bond_atom_site_label_2
_ccdc_geom_bond_type
C8    N1    A    
C25   H1    S    
O7    Zn1   S    
C19   C23   A    
C6    C7    S    
C5    C28   A    
N1    Zn2   S    
C15   O6    A    
C2    H8    S    
O4    Zn2   S    
C19   C20   A    
C2    C30   A    
C4    C18   S    
O1    Zn1   S    
C1    C29   S    
C2    C3    A    
C26   C27   A    
C22   H10   S    
C13   H21   S    
C13   C14   S    
C11   C13   S    
C12   C23   A    
O5    Zn1   S    
C29   C30   A    
C11   N2    A    
C16   O8    A    
O3    Zn1   S    
C8    C11   A    
C10   N2    A    
C24   H15   S    
C9    C10   A    
C28   C29   A    
C1    O2    A    
O6    Zn2   S    
C18   C20   A    
C23   C25   A    
C1    O1    A    
C5    C6    S    
C24   H14   S    
C22   C24   S    
C22   H11   S    
C9    N1    A    
C16   O7    A    
C17   C26   A    
C12   C27   A    
C7    H17   S    
C13   H20   S    
C18   C21   A    
C7    H16   S    
C21   H7    S    
N2    Zn1   S    
C9    H18   S    
C6    H12   S    
C4    O4    A    
C24   H13   S    
C6    H9    S    
C16   C17   S    
C3    C15   S    
C8    C14   S    
C26   H3    S    
O8    Zn2   S    
C27   H5    S    
C22   O9    S    
C30   O9    S    
C10   H19   S    
C15   O5    A    
C12   C21   A    
C14   H22   S    
C7    C28   S    
O2    Zn2   S    
C4    O3    A    
C14   H2    S    
C17   C25   A    
C3    C5    A    
C19   H4    S    
C20   H6    S    
