data_mof_unit_12474.cif
_audit_creation_date              2012-12-10T17:01:14-0500
_audit_creation_method            fapswitch 2.2
_symmetry_space_group_name_H-M    P1
_symmetry_Int_Tables_number       1
_space_group_crystal_system       triclinic
_cell_length_a                    15.562778
_cell_length_b                    15.437446
_cell_length_c                    9.842224
_cell_angle_alpha                 88.945909
_cell_angle_beta                  62.158473
_cell_angle_gamma                 89.354451
_cell_volume                      2090.50793396

loop_
_atom_site_label
_atom_site_type_symbol
_atom_type_description
_atom_site_fract_x
_atom_site_fract_y
_atom_site_fract_z
_atom_type_partial_charge
C1    C     C_R   0.368864 0.114912 0.559309 0.835288
C2    C     C_2   0.494578 0.978222 0.075783 0.268517
C3    C     C_2   0.014598 0.496940 0.911504 0.300205
C4    C     C_2   0.994388 0.481239 0.073799 0.271064
C5    C     C_2   0.286569 0.832785 0.599088 -0.364405
C6    C     C_2   0.694973 0.188086 0.415784 -0.391415
C7    C     C_2   0.685429 0.803277 0.428883 -0.419627
C8    C     C_2   0.290494 0.176141 0.585248 -0.403047
C9    C     C_2   0.781464 0.339583 0.596697 -0.346580
C10   C     C_2   0.196997 0.685388 0.413688 -0.361783
C11   C     C_2   0.189821 0.307391 0.425237 -0.413151
C12   C     C_R   0.623141 0.878080 0.444545 0.839674
C13   C     C_2   0.789590 0.677010 0.587399 -0.397821
C14   C     C_2   0.286839 0.763124 0.519854 0.109444
C15   C     C_2   0.687473 0.238424 0.531880 0.108488
C16   C     C_2   0.662478 0.742328 0.542013 0.108179
C17   C     C_2   0.240862 0.176752 0.502786 0.118235
C18   C     C_2   0.778627 0.263349 0.535720 0.087094
C19   C     C_2   0.193222 0.734870 0.527789 0.115968
C20   C     C_2   0.168607 0.245750 0.535940 0.094929
C21   C     C_2   0.734594 0.673403 0.513802 0.112485
C22   C     C_3   0.588544 0.270941 0.655395 -0.384595
C23   C     C_R   0.622858 0.121935 0.442101 0.855946
C24   C     C_3   0.551842 0.346334 0.592173 -0.356897
C25   C     C_3   0.455986 0.382857 0.715352 -0.872993
C26   C     C_3   0.379534 0.708555 0.436038 -0.350843
C27   C     C_3   0.369914 0.619138 0.514925 -0.346704
C28   C     C_3   0.378001 0.544070 0.410405 -0.835934
C29   C     C_3   0.251321 0.107534 0.386464 -0.368006
C30   C     C_3   0.180084 0.118584 0.317843 -0.369256
C31   C     C_3   0.164052 0.035221 0.252349 -0.888645
C32   C     C_3   0.561698 0.735423 0.682197 -0.352508
C33   C     C_3   0.546921 0.654548 0.785488 -0.377652
C34   C     C_R   0.371996 0.883151 0.560950 0.819328
C35   C     C_3   0.439680 0.639215 0.896455 -0.877772
C36   C     C_3   0.095686 0.765796 0.658496 -0.385838
C37   C     C_3   0.064725 0.853535 0.618542 -0.368358
C38   C     C_3   0.979183 0.891802 0.759441 -0.876994
C39   C     C_3   0.864548 0.200247 0.478653 -0.377885
C40   C     C_3   0.832655 0.112692 0.564193 -0.346692
C41   C     C_3   0.914550 0.046441 0.506212 -0.884158
C42   C     C_3   0.742539 0.600345 0.407079 -0.373122
C43   C     C_3   0.656406 0.593270 0.371200 -0.369777
C44   C     C_3   0.673500 0.522783 0.254862 -0.863444
C45   C     C_R   0.868977 0.615562 0.559588 0.827118
C46   C     C_3   0.069737 0.238668 0.679862 -0.346700
C47   C     C_3   0.050244 0.149442 0.761580 -0.377954
C48   C     C_3   0.946415 0.142445 0.891651 -0.871440
C49   C     C_3   0.403159 0.845910 0.125856 -0.724381
C50   C     C_3   0.678159 0.934615 0.782342 -0.690338
C51   C     C_3   0.894021 0.352227 0.153114 -0.698516
C52   C     C_3   0.181715 0.440885 0.779397 -0.698383
C53   C     C_R   0.124946 0.379766 0.443486 0.843239
C54   C     C_R   0.123423 0.621188 0.441773 0.850547
C55   C     C_R   0.870932 0.383844 0.560810 0.810339
C56   C     C_2   0.513827 0.995325 0.912976 0.273525
Cu1   Cu    Cu3+1 0.522650 0.000000 0.349410 0.942557
Cu2   Cu    Cu3+1 0.477350 0.000000 0.650590 0.931910
Cu3   Cu    Cu3+1 0.022650 0.500000 0.349410 0.922818
Cu4   Cu    Cu3+1 0.977350 0.500000 0.650590 0.933964
H1    H     H_    0.615551 0.036302 0.048618 0.174626
H2    H     H_    0.717948 0.380928 0.649262 0.120313
H3    H     H_    0.774572 0.726666 0.672633 0.139236
H4    H     H_    0.256852 0.303522 0.317595 0.143076
H5    H     H_    0.432830 0.438366 0.666667 0.243877
H6    H     H_    0.398532 0.332454 0.756036 0.255464
H7    H     H_    0.464856 0.406208 0.814182 0.256329
H8    H     H_    0.606427 0.399177 0.549321 0.221389
H9    H     H_    0.541042 0.323697 0.494617 0.222121
H10   H     H_    0.532301 0.220077 0.700725 0.224462
H11   H     H_    0.594025 0.292071 0.758292 0.183656
H12   H     H_    0.373221 0.992851 0.961681 0.167714
H13   H     H_    0.313103 0.541682 0.391807 0.253991
H14   H     H_    0.443997 0.550953 0.297638 0.244476
H15   H     H_    0.382976 0.481881 0.464710 0.235985
H16   H     H_    0.428385 0.611758 0.548717 0.194683
H17   H     H_    0.300318 0.613473 0.622729 0.221790
H18   H     H_    0.398910 0.701827 0.313352 0.194254
H19   H     H_    0.443661 0.740857 0.433482 0.158466
H20   H     H_    0.110479 0.047237 0.209478 0.248567
H21   H     H_    0.231598 0.013941 0.153769 0.243112
H22   H     H_    0.136372 0.983154 0.341599 0.256786
H23   H     H_    0.119007 0.531796 0.047392 0.182618
H24   H     H_    0.107829 0.140372 0.406042 0.233027
H25   H     H_    0.208336 0.168838 0.225084 0.221749
H26   H     H_    0.325904 0.110259 0.288861 0.203496
H27   H     H_    0.239537 0.043247 0.445202 0.189608
H28   H     H_    0.398935 0.626006 0.831754 0.249473
H29   H     H_    0.432333 0.582304 0.971766 0.245068
H30   H     H_    0.407354 0.696278 0.969775 0.258273
H31   H     H_    0.574879 0.595238 0.716348 0.228509
H32   H     H_    0.587172 0.663029 0.852527 0.219580
H33   H     H_    0.547731 0.792616 0.756050 0.222689
H34   H     H_    0.873272 0.490311 0.961291 0.197741
H35   H     H_    0.506772 0.734928 0.639916 0.185623
H36   H     H_    0.959455 0.955919 0.729602 0.251403
H37   H     H_    0.915050 0.848466 0.800908 0.256645
H38   H     H_    0.999005 0.900839 0.853047 0.255242
H39   H     H_    0.125451 0.900671 0.573872 0.217070
H40   H     H_    0.042951 0.844368 0.527038 0.218842
H41   H     H_    0.034415 0.721358 0.687055 0.222561
H42   H     H_    0.101186 0.769107 0.766838 0.183100
H43   H     H_    0.945467 0.039557 0.380095 0.260735
H44   H     H_    0.971216 0.066067 0.537005 0.263412
H45   H     H_    0.764004 0.180157 0.313238 0.131906
H46   H     H_    0.886138 0.982425 0.560873 0.246957
H47   H     H_    0.805945 0.122035 0.689225 0.211842
H48   H     H_    0.773220 0.084963 0.546954 0.243387
H49   H     H_    0.894288 0.190701 0.353297 0.184557
H50   H     H_    0.924987 0.225454 0.496539 0.178643
H51   H     H_    0.606455 0.512875 0.244236 0.246462
H52   H     H_    0.732023 0.543220 0.141027 0.252742
H53   H     H_    0.693364 0.460471 0.291023 0.257284
H54   H     H_    0.589423 0.577120 0.477969 0.221592
H55   H     H_    0.644702 0.655242 0.323097 0.232165
H56   H     H_    0.220363 0.863464 0.681744 0.135064
H57   H     H_    0.810370 0.610013 0.297521 0.211409
H58   H     H_    0.745188 0.538579 0.464773 0.171297
H59   H     H_    0.893347 0.155267 0.847823 0.258325
H60   H     H_    0.933876 0.076089 0.942574 0.247140
H61   H     H_    0.934512 0.189090 0.983098 0.250829
H62   H     H_    0.061818 0.097418 0.678267 0.227797
H63   H     H_    0.100990 0.138435 0.810542 0.226632
H64   H     H_    0.064171 0.288870 0.762765 0.215389
H65   H     H_    0.011780 0.250768 0.645949 0.192569
H66   H     H_    0.346905 0.966846 0.210318 0.232032
H67   H     H_    0.272123 0.222997 0.676025 0.139404
H68   H     H_    0.336024 0.814696 0.213461 0.229482
H69   H     H_    0.467286 0.806601 0.110205 0.234479
H70   H     H_    0.398823 0.848317 0.016569 0.213146
H71   H     H_    0.638753 0.065274 0.789609 0.219046
H72   H     H_    0.722462 0.918173 0.659550 0.242900
H73   H     H_    0.639389 0.875174 0.845759 0.220085
H74   H     H_    0.727959 0.955421 0.827498 0.200278
H75   H     H_    0.861549 0.470133 0.276565 0.288067
H76   H     H_    0.945299 0.314584 0.180475 0.242920
H77   H     H_    0.909756 0.339203 0.033183 0.221215
H78   H     H_    0.752989 0.797989 0.322400 0.146794
H79   H     H_    0.818533 0.331396 0.230568 0.227115
H80   H     H_    0.137539 0.570093 0.785832 0.224859
H81   H     H_    0.221527 0.420567 0.657963 0.250500
H82   H     H_    0.146064 0.382922 0.851810 0.216517
H83   H     H_    0.235489 0.466205 0.813062 0.196671
H84   H     H_    0.263089 0.678775 0.306274 0.128194
N1    N     N_2   0.443290 0.000000 0.876860 -0.311136
N2    N     N_2   0.556710 0.000000 0.123140 -0.295327
N3    N     N_2   0.943290 0.500000 0.876860 -0.312902
N4    N     N_2   0.056710 0.500000 0.123140 -0.307333
N5    N     N_2   0.409750 0.931858 0.175740 -0.363907
N6    N     N_2   0.611308 0.004156 0.795298 -0.362539
N7    N     N_2   0.903192 0.443642 0.171865 -0.434593
N8    N     N_2   0.111964 0.507944 0.793646 -0.363275
O1    O     O_R   0.422430 0.089640 0.419570 -0.580862
O2    O     O_R   0.615830 0.910350 0.326090 -0.564584
O3    O     O_R   0.615830 0.089650 0.326090 -0.578520
O4    O     O_R   0.384170 0.910350 0.673910 -0.585586
O5    O     O_R   0.884170 0.589650 0.673910 -0.577885
O6    O     O_R   0.115830 0.410350 0.326090 -0.565569
O7    O     O_R   0.115830 0.589650 0.326090 -0.580097
O8    O     O_R   0.884170 0.410350 0.673910 -0.576227
O9    O     O_R   0.577570 0.910360 0.580430 -0.544378
O10   O     O_R   0.577570 0.089640 0.580430 -0.565447
O11   O     O_R   0.422430 0.910360 0.419570 -0.528446
O12   O     O_R   0.922430 0.589640 0.419570 -0.586188
O13   O     O_R   0.077570 0.410360 0.580430 -0.543527
O14   O     O_R   0.077570 0.589640 0.580430 -0.561744
O15   O     O_R   0.922430 0.410360 0.419570 -0.568404
O16   O     O_R   0.384170 0.089650 0.673910 -0.577300

loop_
_geom_bond_atom_site_label_1
_geom_bond_atom_site_label_2
_ccdc_geom_bond_type
C15   C18   S    
C3    N3    D    
C16   C21   S    
C26   H19   S    
C23   O3    A    
C1    C8    S    
C17   C29   S    
C46   H65   S    
C25   H7    S    
C55   O15   A    
C38   H38   S    
C28   H14   S    
C12   O9    A    
Cu2   N1    S    
C31   H20   S    
C48   H60   S    
Cu1   O3    S    
C53   O6    A    
C37   C38   S    
C31   H22   S    
C36   C37   S    
C45   O12   A    
C19   C36   S    
C33   H31   S    
C43   H54   S    
C30   C31   S    
C33   C35   S    
H66   N5    S    
H12   N1    S    
C4    N4    D    
C17   C20   S    
C36   H42   S    
C35   H28   S    
C56   N1    D    
C4    N7    S    
C18   C39   S    
Cu3   O12   S    
C43   H55   S    
C54   O7    A    
Cu3   O7    S    
C39   H50   S    
Cu1   O11   S    
C45   O5    A    
C9    C55   S    
Cu4   N3    S    
Cu2   O16   S    
H80   N8    S    
C11   C53   S    
C40   H48   S    
C23   O10   A    
Cu3   N4    S    
C51   H77   S    
C2    N5    S    
C32   H33   S    
C6    C15   D    
C51   N7    S    
Cu3   Cu4   S    
C50   H72   S    
Cu1   N2    S    
C46   H64   S    
C54   O14   A    
C38   H37   S    
C28   H13   S    
C52   H81   S    
C24   H9    S    
C48   H59   S    
C15   C22   S    
C7    C12   S    
C11   C20   D    
C52   H83   S    
C41   H46   S    
C9    H2    S    
C25   H5    S    
Cu4   O5    S    
C11   H4    S    
C50   H74   S    
C33   H32   S    
C48   H61   S    
C42   H58   S    
C47   H62   S    
C1    O16   A    
Cu1   O1    S    
C52   H82   S    
H23   N4    S    
C36   H41   S    
H1    N2    S    
C35   H30   S    
C29   C30   S    
C51   H76   S    
C50   N6    S    
C8    H67   S    
C47   H63   S    
C47   C48   S    
C13   H3    S    
C10   C19   D    
C52   N8    S    
C5    C34   S    
C14   C26   S    
C3    N8    S    
C13   C21   D    
C10   H84   S    
C24   C25   S    
C30   H25   S    
C1    O1    A    
C5    C14   D    
Cu2   O4    S    
C40   H47   S    
C44   H52   S    
C53   O13   A    
C55   O8    A    
C44   H53   S    
C34   O11   A    
C43   C44   S    
C26   C27   S    
C22   C24   S    
C16   C32   S    
C42   C43   S    
C56   N6    S    
C3    C4    S    
Cu2   O10   S    
C35   H29   S    
C22   H11   S    
C39   C40   S    
Cu3   O15   S    
Cu1   O2    S    
H34   N3    S    
C49   H68   S    
C46   C47   S    
C40   C41   S    
C14   C19   S    
C7    C16   D    
C25   H6    S    
Cu4   O8    S    
C12   O2    A    
C27   H17   S    
C50   H73   S    
C7    H78   S    
C42   H57   S    
C34   O4    A    
C2    N2    D    
C49   H70   S    
Cu4   O13   S    
C31   H21   S    
C41   H44   S    
C49   N5    S    
C32   C33   S    
C29   H26   S    
C5    H56   S    
C2    C56   S    
C8    C17   D    
C13   C45   S    
Cu2   O9    S    
C37   H39   S    
Cu1   Cu2   S    
C49   H69   S    
H75   N7    S    
C6    C23   S    
Cu3   O6    S    
C6    H45   S    
C30   H24   S    
C10   C54   S    
Cu4   O14   S    
C29   H27   S    
C26   H18   S    
C24   H8    S    
C21   C42   S    
C44   H51   S    
C41   H43   S    
C9    C18   D    
C39   H49   S    
C32   H35   S    
C38   H36   S    
C27   C28   S    
H71   N6    S    
C28   H15   S    
C22   H10   S    
C37   H40   S    
C20   C46   S    
C27   H16   S    
C51   H79   S    
