data_mof_unit_43460.cif
_audit_creation_date              2012-12-11T15:20:37-0500
_audit_creation_method            fapswitch 2.2
_symmetry_space_group_name_H-M    P1
_symmetry_Int_Tables_number       1
_space_group_crystal_system       triclinic
_cell_length_a                    13.076848
_cell_length_b                    13.220903
_cell_length_c                    15.443889
_cell_angle_alpha                 117.365734
_cell_angle_beta                  63.518835
_cell_angle_gamma                 97.623772
_cell_volume                      2113.66697092

loop_
_atom_site_label
_atom_site_type_symbol
_atom_type_description
_atom_site_fract_x
_atom_site_fract_y
_atom_site_fract_z
_atom_type_partial_charge
C1    C     C_R   0.031863 0.832088 0.020327 -0.004696
C2    C     C_R   0.319675 0.539400 0.777290 0.503907
C3    C     C_R   0.246721 0.486309 0.107029 0.552386
C4    C     C_R   0.693881 0.416414 0.209901 0.004051
C5    C     C_R   0.977783 0.303074 0.700569 0.403585
C6    C     C_R   0.338110 0.544864 0.071738 -0.148720
C7    C     C_R   0.915922 0.211291 0.702533 -0.226623
C8    C     C_R   0.325650 0.461029 0.676362 -0.177043
C9    C     C_R   0.102645 0.150538 0.942218 -0.163477
C10   C     C_R   0.034886 0.981004 0.423991 -0.092279
C11   C     C_R   0.025994 0.071854 0.518870 -0.136736
C12   C     C_R   0.690846 0.452800 0.308295 -0.044998
C13   C     C_R   0.918035 0.116792 0.605677 0.163863
C14   C     C_R   0.817957 0.070820 0.598051 0.014688
C15   C     C_R   0.827143 0.976731 0.502455 -0.174119
C16   C     C_R   0.739520 0.582049 0.953986 -0.015600
C17   C     C_R   0.935901 0.933226 0.415801 0.121003
C18   C     C_R   0.599346 0.368778 0.431221 0.004524
C19   C     C_R   0.509845 0.371239 0.523977 -0.112433
C20   C     C_R   0.414618 0.448367 0.576037 0.111172
C21   C     C_R   0.404295 0.519652 0.535765 -0.151883
C22   C     C_R   0.495713 0.523332 0.447387 0.481747
C23   C     C_R   0.639352 0.565543 0.029360 -0.044460
C24   C     C_R   0.593690 0.447665 0.396422 -0.087787
C25   C     C_2   0.452940 0.518316 0.046443 0.422713
C26   C     C_2   0.523950 0.601594 0.062375 0.286067
C27   C     C_2   0.921081 0.951958 0.990013 0.240249
C28   C     C_R   0.934061 0.724618 0.312236 0.006105
C29   C     C_2   0.925456 0.950771 0.901032 0.482751
C30   C     C_R   0.663495 0.487209 0.053511 0.079192
C31   C     C_R   0.028613 0.820373 0.217492 -0.058336
C32   C     C_R   0.791272 0.499736 0.309071 0.448937
C33   C     C_R   0.933411 0.742822 0.923314 -0.015154
C34   C     C_R   0.951734 0.832224 0.318176 -0.010674
C35   C     C_R   0.963145 0.847735 0.978790 0.004735
C36   C     C_3   0.272814 0.172663 0.005914 -0.050935
C37   C     C_3   0.504668 0.362106 0.880434 -0.113221
C38   C     C_3   0.966805 0.871029 0.722871 -0.046384
C39   C     C_R   0.321463 0.580363 0.010234 -0.175399
C40   C     C_R   0.896472 0.205115 0.795062 0.391741
C41   C     C_R   0.216923 0.439291 0.685715 -0.138334
C42   C     C_R   0.108641 0.250733 0.026734 0.655135
C43   C     C_R   0.012546 0.174262 0.930008 -0.099691
H1    H     H_    0.079621 0.896033 0.057156 0.119634
H2    H     H_    0.515059 0.315175 0.555815 0.142973
H3    H     H_    0.327750 0.577695 0.578342 0.191797
H4    H     H_    0.745907 0.631420 0.912825 0.144260
H5    H     H_    0.872260 0.707773 0.377322 0.155777
H6    H     H_    0.603060 0.451130 0.104181 0.163306
H7    H     H_    0.069435 0.887746 0.197020 0.127659
H8    H     H_    0.891493 0.723089 0.871806 0.140264
H9    H     H_    0.371034 0.638417 0.981302 0.260439
H10   H     H_    0.592288 0.193850 0.944379 0.388133
H11   H     H_    0.321124 0.154172 0.919187 0.097920
H12   H     H_    0.192810 0.390253 0.620620 0.202011
H13   H     H_    0.231753 0.096225 0.014089 0.139576
H14   H     H_    0.335732 0.193490 0.040321 0.199735
H15   H     H_    0.406526 0.817137 0.919877 0.399767
H16   H     H_    0.264140 0.643119 0.315161 0.386142
H17   H     H_    0.991191 0.548057 0.647319 0.386560
H18   H     H_    0.622165 0.722407 0.443611 0.346402
H19   H     H_    0.555195 0.417201 0.841924 0.165264
H20   H     H_    0.419021 0.353656 0.880359 0.102698
H21   H     H_    0.550224 0.275285 0.828892 0.191393
H22   H     H_    0.549286 0.790079 0.245725 0.382480
H23   H     H_    0.993667 0.119975 0.862972 0.130641
H24   H     H_    0.673305 0.002221 0.100269 0.379540
H25   H     H_    0.981567 0.954939 0.721115 0.128920
H26   H     H_    0.877284 0.849307 0.737861 0.181991
H27   H     H_    0.023912 0.805085 0.641176 0.176021
H28   H     H_    0.954924 0.599544 0.473934 0.397652
H29   H     H_    0.119526 0.945571 0.358019 0.167919
H30   H     H_    0.103723 0.106527 0.525142 0.135927
H31   H     H_    0.734345 0.106843 0.665363 0.160199
H32   H     H_    0.636089 0.361683 0.179859 0.164239
H33   H     H_    0.750871 0.938207 0.495777 0.149487
H34   H     H_    0.674329 0.308999 0.389040 0.211619
N1    N     N_R   0.037310 0.720000 0.995790 -0.058906
N2    N     N_R   0.824890 0.517960 0.936420 -0.055315
N3    N     N_R   0.003210 0.648190 0.211380 -0.048013
N4    N     N_R   0.774330 0.457010 0.995840 -0.056873
N5    N     N_R   0.053760 0.709140 0.151960 -0.055550
N6    N     N_R   0.853860 0.498840 0.211410 -0.118224
N7    N     N_R   0.974240 0.667310 0.936390 -0.047443
N8    N     N_R   0.225670 0.542990 0.004160 -0.107014
N9    N     N_R   0.946240 0.290860 0.848040 -0.143180
N10   N     N_R   0.146140 0.501160 0.788590 -0.049781
N11   N     N_R   0.025760 0.332690 0.063610 -0.094899
N12   N     N_R   0.962690 0.280000 0.004210 -0.050645
N13   N     N_R   0.209210 0.553840 0.847990 -0.102599
N14   N     N_R   0.175110 0.482040 0.063580 -0.137196
N15   N     N_R   0.996790 0.351810 0.788620 -0.136350
N16   N     N_R   0.790790 0.446160 0.152010 -0.088018
Ni1   Ni    Ni4+2 0.130310 0.630310 0.999970 0.274339
Ni2   Ni    Ni4+2 0.869690 0.369690 0.000030 0.316341
Ni3   Ni    Ni4+2 0.985640 0.509470 0.863740 0.297965
Ni4   Ni    Ni4+2 0.014360 0.490530 0.136260 0.351104
O1    O     O_2   0.768236 0.027010 0.787637 -0.340530
O2    O     O_3   0.186713 0.615802 0.329245 -0.487663
O3    O     O_2   0.064636 0.320290 0.515759 -0.254151
O4    O     O_2   0.858132 0.368696 0.630352 -0.237495
O5    O     O_3   0.995765 0.514211 0.691056 -0.565371
O6    O     O_2   0.464342 0.569388 0.309149 -0.284974
O7    O     O_2   0.390181 0.717885 0.496707 -0.249670
O8    O     O_3   0.610034 0.689716 0.377265 -0.548322
O9    O     O_3   0.494500 0.403258 0.986614 -0.609345
O10   O     O_2   0.504993 0.789868 0.045436 -0.252585
O11   O     O_2   0.359156 0.779028 0.208965 -0.294983
O12   O     O_2   0.775535 0.152216 0.960902 -0.292473
O13   O     O_3   0.564755 0.820897 0.193880 -0.468780
O14   O     O_2   0.803608 0.011494 0.202585 -0.253322
O15   O     O_2   0.882175 0.164581 0.151772 -0.258493
O16   O     O_3   0.703708 0.078082 0.122796 -0.457258
O17   O     O_3   0.994749 0.866995 0.798994 -0.662071
O18   O     O_2   0.739610 0.562767 0.515677 -0.266896
O19   O     O_2   0.872142 0.392117 0.378436 -0.188929
O20   O     O_3   0.949237 0.589935 0.408749 -0.495534
O21   O     O_3   0.657027 0.226581 0.903380 -0.528794
O22   O     O_3   0.190856 0.267711 0.064337 -0.615009
O23   O     O_2   0.514932 0.598117 0.797213 -0.292561
O24   O     O_2   0.463649 0.679934 0.707295 -0.250659
O25   O     O_3   0.347796 0.761900 0.914964 -0.561867
O26   O     O_2   0.102706 0.421118 0.259668 -0.138644
O27   O     O_2   0.305632 0.419167 0.218601 -0.240274
S1    S     S_3+6 0.774479 0.147941 0.862608 -0.080026
S2    S     S_3+6 0.416627 0.645226 0.796959 -0.030646
S3    S     S_3+6 0.208736 0.481409 0.229954 0.068198
S4    S     S_3+6 0.973634 0.376047 0.630776 -0.015323
S5    S     S_3+6 0.486771 0.627240 0.407621 -0.021950
S6    S     S_3+6 0.483611 0.750766 0.128824 -0.018797
S7    S     S_3+6 0.827954 0.054077 0.120816 0.000813
S8    S     S_3+6 0.838574 0.510777 0.404657 -0.003277

loop_
_geom_bond_atom_site_label_1
_geom_bond_atom_site_label_2
_ccdc_geom_bond_type
C29   O17   S    
C38   H27   S    
O25   S2    S    
N5    Ni1   S    
N3    Ni4   S    
C27   C29   D    
C27   S7    S    
C19   C20   A    
C3    C6    A    
C37   H19   S    
N8    N14   A    
C9    C42   A    
C43   N12   A    
C31   N5    A    
C18   C24   A    
C14   H31   S    
O5    S4    S    
C43   H23   S    
N4    Ni2   S    
O23   S2    D    
C42   O22   S    
C6    C25   S    
C10   C17   A    
N6    N16   A    
N15   Ni3   S    
O4    S4    D    
H16   O2    S    
C3    N14   A    
C18   C19   A    
N7    Ni3   S    
C23   C26   S    
C40   N9    A    
C36   O22   S    
O20   S8    S    
C41   H12   S    
C4    H32   S    
O1    S1    D    
C7    C40   A    
O21   S1    S    
C4    C12   A    
H18   O8    S    
O11   S6    D    
N11   Ni4   S    
C26   S6    S    
N11   N12   A    
C15   H33   S    
C38   H26   S    
C28   C34   A    
N16   Ni2   S    
C13   C14   A    
C12   C32   A    
C1    N1    A    
O10   S6    D    
H17   O5    S    
C16   H4    S    
C37   H20   S    
C25   O9    S    
N13   Ni1   S    
O18   S8    D    
C41   N10   A    
C9    C43   A    
H15   O25   S    
H28   O20   S    
C23   C30   A    
C8    C41   A    
N3    N5    A    
C36   H14   S    
C11   H30   S    
C5    C7    A    
H10   O21   S    
O8    S5    S    
C27   C35   S    
C25   C26   D    
C39   H9    S    
N12   Ni2   S    
C36   H13   S    
N8    Ni1   S    
C1    H1    S    
O26   S3    D    
O19   S8    D    
C7    C13   S    
C6    C39   A    
N10   Ni3   S    
C31   C34   A    
C8    C20   S    
N14   Ni4   S    
O6    S5    D    
O27   S3    D    
C2    S2    S    
O14   S7    D    
C30   H6    S    
C38   H25   S    
C16   C23   A    
O7    S5    D    
C22   S5    S    
C22   C24   A    
C42   N11   A    
C17   C34   S    
C39   N8    A    
C31   H7    S    
C32   S8    S    
C37   H21   S    
C1    C35   A    
N2    N4    A    
C21   H3    S    
O12   S1    D    
C15   C17   A    
C32   N6    A    
C28   H5    S    
O16   S7    S    
O3    S4    D    
C2    C8    A    
C37   O9    S    
O2    S3    S    
C19   H2    S    
C33   H8    S    
C12   C24   S    
C16   N2    A    
C30   N4    A    
H24   O16   S    
O24   S2    D    
N9    N15   A    
C11   C13   A    
N9    Ni2   S    
N1    Ni1   S    
C18   H34   S    
C38   O17   S    
C40   S1    S    
C5    S4    S    
C33   C35   A    
O13   S6    S    
C3    S3    S    
O15   S7    D    
C28   N3    A    
C33   N7    A    
H22   O13   S    
C5    N15   A    
C36   H11   S    
C10   C11   A    
C4    N16   A    
N1    N7    A    
N2    Ni3   S    
C20   C21   A    
C2    N13   A    
N6    Ni4   S    
N10   N13   A    
C14   C15   A    
C21   C22   A    
C10   H29   S    
