data_mof_unit_22002.cif
_audit_creation_date              2012-12-10T17:23:09-0500
_audit_creation_method            fapswitch 2.2
_symmetry_space_group_name_H-M    P1
_symmetry_Int_Tables_number       1
_space_group_crystal_system       triclinic
_cell_length_a                    15.854824
_cell_length_b                    10.77196
_cell_length_c                    9.615612
_cell_angle_alpha                 90.220746
_cell_angle_beta                  90.004508
_cell_angle_gamma                 92.659871
_cell_volume                      1640.44509467

loop_
_atom_site_label
_atom_site_type_symbol
_atom_type_description
_atom_site_fract_x
_atom_site_fract_y
_atom_site_fract_z
_atom_type_partial_charge
C1    C     C_R   0.500150 0.262835 0.499696 0.794108
C2    C     C_3   0.082859 0.500512 0.501826 0.180067
C3    C     C_3   0.974627 0.558489 0.615746 0.061514
C4    C     C_3   0.917091 0.501136 0.502446 0.175852
C5    C     C_3   0.032337 0.618882 0.503413 -0.229644
C6    C     C_3   0.973817 0.560607 0.388789 -0.174564
C7    C     C_1   0.174575 0.499996 0.500898 -0.066779
C8    C     C_1   0.825313 0.500565 0.500944 -0.006830
C9    C     C_R   0.352488 0.121202 0.596018 -0.164008
C10   C     C_R   0.281772 0.052470 0.644087 -0.141767
C11   C     C_R   0.281444 0.923318 0.645891 -0.140872
C12   C     C_R   0.339957 0.499392 0.499996 0.802262
C13   C     C_R   0.351812 0.862186 0.599521 -0.150461
C14   C     C_R   0.424362 0.930055 0.551057 0.096346
C15   C     C_R   0.424935 0.061186 0.549434 0.056996
C16   C     C_R   0.497304 0.128601 0.498800 -0.164087
C17   C     C_R   0.567852 0.066810 0.449034 0.253374
C18   C     C_R   0.565844 0.938113 0.449779 -0.220207
C19   C     C_R   0.495712 0.870406 0.500983 -0.141492
C20   C     C_R   0.612163 0.665662 0.144437 -0.137301
C21   C     C_R   0.666776 0.746860 0.072626 -0.205719
C22   C     C_R   0.666711 0.746920 0.929304 -0.155094
C23   C     C_R   0.499039 0.737027 0.500255 0.778900
C24   C     C_R   0.611988 0.665841 0.856844 -0.116169
C25   C     C_R   0.554991 0.581547 0.925581 0.198800
C26   C     C_R   0.555026 0.581467 0.075058 0.210052
C27   C     C_R   0.447721 0.422350 0.073477 -0.055224
C28   C     C_R   0.447743 0.422375 0.925703 -0.052309
C29   C     C_R   0.660001 0.500168 0.500037 0.797766
C30   C     C_3   0.968059 0.383084 0.501022 -0.179350
C31   C     C_3   0.026011 0.442460 0.387177 -0.134264
C32   C     C_1   0.250180 0.499643 0.500252 -0.188859
C33   C     C_1   0.749723 0.500313 0.500214 -0.149801
C34   C     C_3   0.026576 0.440982 0.615875 -0.224226
Cu1   Cu    Cu3+1 0.499990 0.499990 0.640660 0.936179
Cu2   Cu    Cu3+1 0.500010 0.500010 0.359340 0.934014
H1    H     H_    0.048563 0.394525 0.292757 0.131081
H2    H     H_    0.226241 0.870214 0.682478 0.129674
H3    H     H_    0.348430 0.761748 0.600903 0.139075
H4    H     H_    0.620073 0.890388 0.411678 0.142445
H5    H     H_    0.404836 0.358611 0.128204 0.138574
H6    H     H_    0.617791 0.673139 0.254088 0.192961
H7    H     H_    0.709593 0.810153 0.128956 0.154815
H8    H     H_    0.709506 0.810219 0.873498 0.165044
H9    H     H_    0.617354 0.673454 0.747218 0.196510
H10   H     H_    0.404879 0.358631 0.870339 0.136612
H11   H     H_    0.940568 0.286401 0.499819 0.134381
H12   H     H_    0.951096 0.609457 0.295505 0.142643
H13   H     H_    0.059784 0.715603 0.505065 0.132609
H14   H     H_    0.049278 0.392383 0.709359 0.131700
H15   H     H_    0.349304 0.221260 0.594588 0.129450
H16   H     H_    0.226810 0.099645 0.679289 0.130654
N1    N     N_R   0.500800 0.501210 0.147910 -0.197959
N2    N     N_R   0.500830 0.501290 0.852040 -0.198158
O1    O     O_R   0.499990 0.319640 0.618810 -0.573443
O2    O     O_R   0.500000 0.319660 0.381240 -0.585950
O3    O     O_R   0.379070 0.499980 0.618770 -0.583826
O4    O     O_R   0.379080 0.500000 0.381190 -0.566880
O5    O     O_R   0.500000 0.680340 0.618760 -0.599391
O6    O     O_R   0.500010 0.680360 0.381190 -0.589020
O7    O     O_R   0.620920 0.500000 0.618810 -0.579890
O8    O     O_R   0.620930 0.500020 0.381230 -0.598967
C35   C     C_2   0.948272 0.624139 0.745117 0.321542
H17   H     H_    0.995990 0.660596 0.817111 0.058918
O9    O     O_2   0.873756 0.636999 0.770307 -0.545964
N3    N     N_2   0.642289 0.132144 0.400396 -0.432136
H18   H     H_    0.632761 0.212434 0.345999 0.271594
C36   C     C_3   0.708562 0.147501 0.503182 -0.697338
H19   H     H_    0.765460 0.193249 0.454819 0.224411
H20   H     H_    0.725916 0.055683 0.543821 0.236206
H21   H     H_    0.687613 0.206603 0.590478 0.230819

loop_
_geom_bond_atom_site_label_1
_geom_bond_atom_site_label_2
_ccdc_geom_bond_type
N3    C36   S    
C35   O9    D    
Cu1   Cu2   S    
C9    H15   S    
C4    C8    S    
C10   H16   S    
C23   O5    A    
C28   H10   S    
C17   N3    S    
C6    H12   S    
C24   H9    S    
C1    O2    A    
Cu2   O4    S    
C30   C31   S    
C15   C16   A    
C29   C33   S    
Cu1   O5    S    
C18   C19   A    
C18   H4    S    
Cu2   N1    S    
C21   H7    S    
C22   H8    S    
C2    C7    S    
C36   H19   S    
C9    C10   A    
C12   O4    A    
C2    C34   S    
C6    C31   S    
C21   C22   A    
C12   C32   S    
Cu1   N2    S    
C5    H13   S    
Cu2   O8    S    
C23   O6    A    
C29   O7    A    
C34   H14   S    
C30   C34   S    
Cu1   O1    S    
C30   H11   S    
C25   N2    A    
C4    C6    S    
C28   N2    A    
C16   C17   A    
C3    C34   S    
C3    C5    S    
C25   C26   A    
C31   H1    S    
C2    C31   S    
C11   H2    S    
C19   C23   S    
Cu2   O2    S    
C27   H5    S    
C17   C18   A    
Cu1   O7    S    
C1    C16   S    
C24   C25   A    
C12   O3    A    
C22   C24   A    
C2    C5    S    
C3    C4    S    
C26   N1    A    
C29   O8    A    
C7    C32   T    
C14   C19   A    
Cu2   O6    S    
C20   H6    S    
C27   N1    A    
C3    C35   S    
Cu1   O3    S    
C1    O1    A    
C11   C13   A    
C5    C6    S    
C20   C26   A    
C36   H21   S    
N3    H18   S    
C8    C33   T    
C9    C15   A    
C13   H3    S    
C10   C11   A    
C35   H17   S    
C20   C21   A    
C36   H20   S    
C27   C28   A    
C14   C15   A    
C13   C14   A    
C4    C30   S    
