data_mof_unit_38091.cif
_audit_creation_date              2012-12-11T15:33:42-0500
_audit_creation_method            fapswitch 2.2
_symmetry_space_group_name_H-M    P1
_symmetry_Int_Tables_number       1
_space_group_crystal_system       monoclinic
_cell_length_a                    27.115226
_cell_length_b                    7.195992
_cell_length_c                    22.774082
_cell_angle_alpha                 90.0
_cell_angle_beta                  101.052964
_cell_angle_gamma                 90.0
_cell_volume                      4361.27154955

loop_
_atom_site_label
_atom_site_type_symbol
_atom_type_description
_atom_site_fract_x
_atom_site_fract_y
_atom_site_fract_z
_atom_type_partial_charge
O1    O     O_R   0.207310 0.594030 0.676830 -0.516721
O2    O     O_R   0.792690 0.405970 0.323170 -0.524073
O3    O     O_R   0.292690 0.094030 0.823170 -0.516721
O4    O     O_R   0.707310 0.905970 0.176830 -0.524072
O5    O     O_R   0.197320 0.262370 0.795700 -0.543597
O6    O     O_R   0.802680 0.737630 0.204300 -0.522865
O7    O     O_R   0.302680 0.762370 0.704300 -0.543597
O8    O     O_R   0.697320 0.237630 0.295700 -0.522866
C1    C     C_R   0.184718 0.432501 0.812024 0.727162
C2    C     C_R   0.815136 0.567523 0.187774 0.754321
C3    C     C_R   0.315282 0.932501 0.687976 0.727161
C4    C     C_R   0.684863 0.067523 0.312226 0.754322
O9    O     O_R   0.201410 0.264250 0.675590 -0.548561
O10   O     O_R   0.798590 0.735750 0.324410 -0.537571
O11   O     O_R   0.298590 0.764250 0.824410 -0.548562
O12   O     O_R   0.701410 0.235750 0.175590 -0.537572
O13   O     O_R   0.296810 0.094940 0.702210 -0.527725
O14   O     O_R   0.703190 0.905060 0.297790 -0.549326
O15   O     O_R   0.203190 0.594940 0.797790 -0.527725
O16   O     O_R   0.796810 0.405060 0.202210 -0.549326
C5    C     C_R   0.189590 0.432521 0.653568 0.813582
C6    C     C_R   0.810131 0.567110 0.346547 0.811033
C7    C     C_R   0.310410 0.932521 0.846432 0.813582
C8    C     C_R   0.689870 0.067110 0.153453 0.811033
O17   O     O_3   0.281300 0.427390 0.758870 -0.376155
O18   O     O_3   0.718700 0.572610 0.241130 -0.382622
O19   O     O_3   0.218700 0.927390 0.741130 -0.376155
O20   O     O_3   0.781300 0.072610 0.258870 -0.382621
V1    V     V_3+5 0.244190 0.152150 0.748350 1.539769
V2    V     V_3+5 0.755810 0.847850 0.251650 1.528710
V3    V     V_3+5 0.255810 0.652150 0.751650 1.539770
V4    V     V_3+5 0.744190 0.347850 0.248350 1.528708
C9    C     C_R   0.655279 0.056272 0.094522 -0.131086
C10   C     C_R   0.345029 0.935073 0.905609 -0.132203
C11   C     C_R   0.844721 0.556272 0.405478 -0.131085
C12   C     C_R   0.154971 0.435073 0.594391 -0.132204
C13   C     C_R   0.643964 0.033603 0.985642 -0.071449
C14   C     C_R   0.361973 0.835004 0.010317 -0.068636
C15   C     C_R   0.856036 0.533601 0.514358 -0.071450
C16   C     C_R   0.138027 0.335005 0.489683 -0.068635
C17   C     C_R   0.675941 0.039192 0.042414 -0.099962
C18   C     C_R   0.328514 0.853517 0.954912 -0.098658
C19   C     C_R   0.824058 0.539192 0.457586 -0.099962
C20   C     C_R   0.171486 0.353519 0.545088 -0.098657
C21   C     C_R   0.602335 0.068614 0.089725 -0.076138
C22   C     C_R   0.395386 0.999120 0.911797 -0.084623
C23   C     C_R   0.897665 0.568614 0.410275 -0.076138
C24   C     C_R   0.104614 0.499118 0.588203 -0.084624
C25   C     C_R   0.569793 0.026864 0.033905 -0.009250
C26   C     C_R   0.431073 0.959847 0.965513 -0.004670
C27   C     C_R   0.930207 0.526863 0.466095 -0.009251
C28   C     C_R   0.068926 0.459846 0.534487 -0.004670
C29   C     C_R   0.591066 0.019699 0.981457 0.095654
C30   C     C_R   0.412904 0.891390 0.015948 0.100735
C31   C     C_R   0.908934 0.519697 0.518543 0.095655
C32   C     C_R   0.087096 0.391390 0.484052 0.100734
C33   C     C_R   0.516886 0.987174 0.028310 0.068060
C34   C     C_R   0.484611 0.983090 0.970897 0.065123
C35   C     C_R   0.983114 0.487173 0.471690 0.068060
C36   C     C_R   0.015389 0.483088 0.529103 0.065122
C37   C     C_R   0.507526 0.974551 0.920657 -0.216480
C38   C     C_R   0.496505 0.927807 0.077402 -0.216170
C39   C     C_R   0.992474 0.474547 0.579343 -0.216481
C40   C     C_R   0.003494 0.427807 0.422598 -0.216169
C41   C     C_R   0.559178 0.988733 0.925876 -0.121937
C42   C     C_R   0.446207 0.880825 0.071404 -0.124047
C43   C     C_R   0.940822 0.488729 0.574124 -0.121935
C44   C     C_R   0.053793 0.380825 0.428596 -0.124048
H1    H     H_    0.573685 0.969471 0.885314 0.173533
H2    H     H_    0.434009 0.836475 0.111615 0.172034
H3    H     H_    0.926314 0.469466 0.614686 0.173534
H4    H     H_    0.065991 0.336475 0.388385 0.172033
H5    H     H_    0.486402 0.939614 0.876893 0.153829
H6    H     H_    0.519769 0.901026 0.120561 0.151416
H7    H     H_    0.013598 0.439610 0.623106 0.153829
H8    H     H_    0.980231 0.401026 0.379438 0.151415
C45   C     C_R   0.631396 0.881931 0.370120 -0.152020
C46   C     C_R   0.370791 0.118350 0.632826 -0.118607
C47   C     C_R   0.868604 0.381931 0.129880 -0.152020
C48   C     C_R   0.129209 0.618350 0.867174 -0.118605
H9    H     H_    0.647607 0.754413 0.357129 0.133220
H10   H     H_    0.355946 0.246020 0.647658 0.154287
H11   H     H_    0.852393 0.254413 0.142871 0.133220
H12   H     H_    0.144054 0.746020 0.852342 0.154287
C49   C     C_R   0.595577 0.868984 0.406758 -0.133510
C50   C     C_R   0.406662 0.131354 0.596257 -0.131772
C51   C     C_R   0.904423 0.368984 0.093242 -0.133509
C52   C     C_R   0.093338 0.631354 0.903743 -0.131772
H13   H     H_    0.585465 0.732406 0.420543 0.137070
H14   H     H_    0.418142 0.268147 0.584294 0.140886
H15   H     H_    0.914535 0.232406 0.079457 0.137070
H16   H     H_    0.081858 0.768147 0.915706 0.140886
C53   C     C_R   0.573303 0.029447 0.425427 0.020748
C54   C     C_R   0.427335 0.970689 0.575450 0.012422
C55   C     C_R   0.926697 0.529447 0.074573 0.020747
C56   C     C_R   0.072665 0.470688 0.924550 0.012422
C57   C     C_R   0.587946 0.203646 0.406271 -0.132203
C58   C     C_R   0.411071 0.796234 0.592441 -0.120461
C59   C     C_R   0.912054 0.703646 0.093729 -0.132203
C60   C     C_R   0.088929 0.296234 0.907559 -0.120461
H17   H     H_    0.571689 0.330456 0.419712 0.141175
H18   H     H_    0.426065 0.669266 0.577315 0.144336
H19   H     H_    0.928311 0.830456 0.080288 0.141175
H20   H     H_    0.073935 0.169266 0.922685 0.144336
C61   C     C_R   0.623838 0.216724 0.369456 -0.090822
C62   C     C_R   0.375025 0.783093 0.629052 -0.134567
C63   C     C_R   0.876162 0.716724 0.130544 -0.090821
C64   C     C_R   0.124975 0.283093 0.870948 -0.134568
H21   H     H_    0.634139 0.353182 0.355780 0.135207
H22   H     H_    0.363316 0.646445 0.640852 0.141012
H23   H     H_    0.865861 0.853182 0.144220 0.135208
H24   H     H_    0.136684 0.146444 0.859148 0.141012
C65   C     C_R   0.646134 0.055901 0.350819 -0.016073
C66   C     C_R   0.354277 0.944124 0.649751 -0.050723
C67   C     C_R   0.853866 0.555901 0.149181 -0.016074
C68   C     C_R   0.145723 0.444124 0.850249 -0.050724
N1    N     N_R   0.514229 0.168694 0.484010 -0.270894
N2    N     N_R   0.486404 0.831475 0.516860 -0.271059
N3    N     N_R   0.985771 0.668694 0.015990 -0.270894
N4    N     N_R   0.013596 0.331475 0.983140 -0.271059
N5    N     N_R   0.480195 0.154708 0.519035 -0.276086
N6    N     N_R   0.520457 0.845464 0.481861 -0.276898
N7    N     N_R   0.019805 0.654708 0.980965 -0.276086
N8    N     N_R   0.979543 0.345464 0.018139 -0.276898
C69   C     C_R   0.465471 0.985820 0.536290 0.526253
C70   C     C_R   0.535174 0.014348 0.464597 0.525646
C71   C     C_R   0.034529 0.485820 0.963710 0.526254
C72   C     C_R   0.964826 0.514348 0.035403 0.525645
C73   C     C_2   0.409006 0.127010 0.865961 0.334884
H25   H     H_    0.435142 0.239952 0.880021 0.080487
O21   O     O_2   0.393097 0.104347 0.812573 -0.541232
C74   C     C_2   0.581413 0.152576 0.139604 0.315380
H26   H     H_    0.547348 0.235200 0.129410 0.085949
O22   O     O_2   0.600664 0.127106 0.191965 -0.547841
C75   C     C_2   0.090994 0.627008 0.634039 0.334885
H27   H     H_    0.064857 0.739948 0.619980 0.080487
O23   O     O_2   0.106903 0.604344 0.687427 -0.541233
C76   C     C_2   0.918587 0.652578 0.360396 0.315380
H28   H     H_    0.952652 0.735199 0.370591 0.085949
O24   O     O_2   0.899336 0.627111 0.308035 -0.547841
C77   C     C_2   0.275529 0.787691 0.948482 0.716557
O25   O     O_2   0.240778 0.889467 0.926336 -0.575101
O26   O     O_R   0.265620 0.609072 0.967470 -0.651646
H29   H     H_    0.228340 0.580563 0.960652 0.300109
C78   C     C_2   0.731505 0.042712 0.047118 0.694697
O27   O     O_2   0.757786 0.925962 0.077155 -0.567837
O28   O     O_R   0.753545 0.179961 0.017144 -0.648957
H30   H     H_    0.791483 0.168278 0.023949 0.301740
C79   C     C_2   0.224471 0.287694 0.551518 0.716557
O29   O     O_2   0.259222 0.389471 0.573664 -0.575101
O30   O     O_R   0.234381 0.109076 0.532530 -0.651645
H31   H     H_    0.271660 0.080568 0.539347 0.300109
C80   C     C_2   0.768495 0.542711 0.452882 0.694697
O31   O     O_2   0.742214 0.425960 0.422845 -0.567836
O32   O     O_R   0.746455 0.679962 0.482855 -0.648958
H32   H     H_    0.708517 0.668279 0.476050 0.301740
C81   C     C_2   0.666971 0.035016 0.931292 0.440128
H33   H     H_    0.699766 0.950089 0.929706 0.076682
O33   O     O_2   0.651182 0.138363 0.889377 -0.508209
C82   C     C_2   0.342674 0.754261 0.061711 0.431629
H34   H     H_    0.307450 0.803693 0.071920 0.070450
O34   O     O_2   0.364240 0.624910 0.090489 -0.514868
C83   C     C_2   0.833029 0.535014 0.568708 0.440125
H35   H     H_    0.800232 0.450092 0.570293 0.076684
O35   O     O_2   0.848818 0.638358 0.610624 -0.508210
C84   C     C_2   0.157326 0.254264 0.438289 0.431629
H36   H     H_    0.192550 0.303698 0.428080 0.070450
O36   O     O_2   0.135761 0.124910 0.409511 -0.514866

loop_
_geom_bond_atom_site_label_1
_geom_bond_atom_site_label_2
_ccdc_geom_bond_type
O17   V3    S    
C59   H19   S    
C52   C56   A    
O1    C5    A    
C81   H33   S    
C47   C67   A    
O19   V1    S    
C9    C21   A    
C24   C75   S    
O3    C7    A    
O28   H30   S    
C10   C18   A    
C60   H20   S    
C48   H12   S    
C11   C23   A    
C22   C73   S    
C47   C51   A    
C78   O27   D    
N4    C71   A    
C25   C33   A    
C33   C38   A    
C5    C12   S    
O7    C3    A    
C6    C11   S    
C35   C40   A    
C26   C30   A    
C62   C66   A    
C36   C39   A    
C40   C44   A    
C61   C65   A    
C83   O35   D    
C14   C18   A    
C51   H15   S    
C79   O30   S    
C62   H22   S    
O4    C8    A    
C55   C59   A    
C43   H3    S    
C54   C58   A    
O26   H29   S    
O1    V3    S    
O13   V1    S    
C31   C43   A    
O2    V4    S    
N2    N6    A    
C13   C81   S    
O3    V1    S    
C3    C66   S    
N1    N5    A    
C53   C70   S    
C50   C54   A    
N5    C69   A    
C49   C53   A    
C55   C72   S    
C1    O15   A    
C15   C31   A    
C83   H35   S    
C2    O16   A    
C74   H26   S    
C16   C32   A    
C51   C55   A    
O2    C6    A    
O30   H31   S    
C10   C22   A    
N2    C69   A    
C45   H9    S    
C80   O32   S    
C11   C19   A    
N1    C70   A    
C16   C20   A    
C16   C84   S    
C44   H4    S    
N8    C72   A    
C13   C29   A    
N3    C72   A    
C46   C50   A    
C34   C37   A    
O11   C7    A    
C45   C49   A    
C35   C36   A    
O12   C8    A    
C84   O36   D    
C46   C66   A    
O10   V2    S    
C45   C65   A    
C4    C65   S    
C78   O28   S    
O5    V1    S    
C39   C43   A    
C60   C64   A    
O7    V3    S    
C38   C42   A    
C26   C34   A    
C48   C68   A    
C75   H27   S    
C50   H14   S    
C49   H13   S    
O18   V4    S    
C15   C19   A    
C37   H5    S    
C58   H18   S    
C64   H24   S    
C56   C71   S    
N4    N8    A    
O8    V4    S    
N6    C70   A    
O5    C1    A    
O15   V3    S    
C46   H10   S    
N7    C71   A    
C14   C30   A    
C21   C25   A    
O8    C4    A    
C7    C10   S    
C18   C77   S    
C40   H8    S    
O9    C5    A    
C52   H16   S    
C63   C67   A    
C76   O24   D    
O14   V2    S    
C74   O22   D    
O6    V2    S    
C84   H36   S    
C12   C20   A    
C81   O33   D    
C27   C35   A    
C15   C83   S    
C53   C57   A    
C29   C41   A    
C73   H25   S    
O16   V4    S    
C54   C69   S    
O9    V1    S    
C75   O23   D    
C61   H21   S    
C3    O13   A    
C1    C68   S    
C63   H23   S    
C8    C9    S    
O6    C2    A    
C23   C27   A    
O11   V3    S    
C30   C42   A    
N3    N7    A    
O12   V4    S    
C59   C63   A    
C22   C26   A    
C20   C79   S    
C58   C62   A    
C9    C17   A    
C82   H34   S    
O10   C6    A    
C77   O26   S    
C57   C61   A    
C48   C52   A    
C32   C44   A    
C79   O29   D    
C47   H11   S    
C64   C68   A    
C33   C34   A    
C42   H2    S    
C39   H7    S    
C41   H1    S    
C56   C60   A    
C23   C76   S    
O20   V2    S    
C12   C24   A    
C27   C31   A    
C13   C17   A    
C57   H17   S    
C25   C29   A    
C76   H28   S    
C14   C82   S    
C37   C41   A    
C24   C28   A    
C17   C78   S    
C21   C74   S    
C28   C36   A    
C4    O14   A    
O32   H32   S    
C38   H6    S    
C80   O31   D    
C77   O25   D    
C19   C80   S    
O4    V2    S    
C2    C67   S    
C28   C32   A    
C82   O34   D    
C73   O21   D    
