data_mof_unit_60136.cif
_audit_creation_date              2012-12-10T20:24:00-0500
_audit_creation_method            fapswitch 2.2
_symmetry_space_group_name_H-M    P1
_symmetry_Int_Tables_number       1
_space_group_crystal_system       triclinic
_cell_length_a                    16.747005
_cell_length_b                    18.5739
_cell_length_c                    19.312548
_cell_angle_alpha                 89.886236
_cell_angle_beta                  87.234827
_cell_angle_gamma                 94.556545
_cell_volume                      5981.24579936

loop_
_atom_site_label
_atom_site_type_symbol
_atom_type_description
_atom_site_fract_x
_atom_site_fract_y
_atom_site_fract_z
_atom_type_partial_charge
C1    C     C_R   0.500844 0.500092 0.366024 0.944451
C2    C     C_R   0.429577 0.486028 0.257536 -0.091130
C3    C     C_R   0.498014 0.499624 0.708995 -0.169519
C4    C     C_R   0.502315 0.500318 0.290800 -0.153107
C5    C     C_R   0.500663 0.581793 0.963501 0.020117
C6    C     C_R   0.502304 0.449743 0.035895 -0.065519
C7    C     C_R   0.499214 0.581632 0.035901 0.039990
C8    C     C_R   0.500403 0.449636 0.963739 -0.059025
C9    C     C_R   0.501155 0.515687 0.071602 0.020777
C10   C     C_R   0.500094 0.515694 0.927923 0.014977
C11   C     C_R   0.442281 0.720510 0.541206 0.015119
C12   C     C_R   0.499251 0.499814 0.633903 0.959480
C13   C     C_R   0.528185 0.273568 0.442743 0.026185
C14   C     C_R   0.439157 0.797073 0.545088 -0.140263
C15   C     C_R   0.531061 0.196889 0.443731 -0.140037
C16   C     C_R   0.653925 0.509365 0.503157 0.961494
C17   C     C_R   0.346566 0.490601 0.495775 0.905765
C18   C     C_R   0.497544 0.842507 0.507865 -0.006878
C19   C     C_R   0.505350 0.157679 0.504201 0.004349
C20   C     C_R   0.556526 0.810379 0.468470 -0.261578
C21   C     C_R   0.477487 0.195525 0.561285 -0.284941
C22   C     C_R   0.557643 0.734719 0.464082 0.075179
C23   C     C_R   0.572506 0.506660 0.813921 -0.064993
C24   C     C_R   0.473701 0.270860 0.558510 0.079436
C25   C     C_R   0.565679 0.966000 0.530971 -0.122525
C26   C     C_R   0.435281 0.034682 0.484766 -0.148442
C27   C     C_R   0.567299 0.041828 0.530910 -0.077200
C28   C     C_R   0.433271 0.958837 0.485513 -0.122835
C29   C     C_R   0.502351 0.076931 0.507340 0.119582
C30   C     C_R   0.498513 0.923514 0.508554 0.139309
C31   C     C_R   0.742425 0.514807 0.505659 -0.188639
C32   C     C_R   0.262111 0.485425 0.476150 -0.202826
C33   C     C_R   0.784556 0.452441 0.493180 -0.077788
C34   C     C_R   0.574472 0.524996 0.179979 -0.078619
C35   C     C_R   0.232533 0.543956 0.440014 -0.009640
C36   C     C_R   0.866147 0.459570 0.479076 -0.183315
C37   C     C_R   0.152945 0.540601 0.422984 -0.144063
C38   C     C_R   0.909192 0.527351 0.478984 0.256740
C39   C     C_R   0.102078 0.479436 0.439254 0.266226
C40   C     C_R   0.870561 0.588418 0.499986 -0.103683
C41   C     C_R   0.131146 0.418652 0.468933 -0.087088
C42   C     C_R   0.786807 0.582604 0.515471 -0.098211
C43   C     C_R   0.210972 0.421231 0.488483 -0.151434
C44   C     C_R   0.571090 0.496596 0.741961 -0.108106
C45   C     C_R   0.499966 0.515248 0.852108 -0.082891
C46   C     C_R   0.574905 0.520344 0.252618 -0.122115
C47   C     C_1   0.282122 0.607649 0.416817 0.336369
C48   C     C_1   0.748039 0.379144 0.497486 0.319468
C49   C     C_1   0.495867 0.648781 0.073846 0.293689
C50   C     C_1   0.498859 0.381949 0.926139 0.218259
C51   C     C_2   0.387716 0.675628 0.588645 1.015722
C52   C     C_2   0.558099 0.312168 0.379030 1.009635
C53   C     C_2   0.377670 0.829346 0.590998 0.917247
C54   C     C_2   0.561618 0.157739 0.381964 0.915081
C55   C     C_2   0.624235 0.708568 0.420059 0.947881
C56   C     C_R   0.500896 0.515133 0.147427 -0.077834
C57   C     C_2   0.437434 0.303652 0.620167 0.972926
C58   C     C_1   0.918782 0.655884 0.508332 0.293530
C59   C     C_1   0.076853 0.354826 0.482517 0.236654
C60   C     C_2   0.748033 0.644997 0.547571 0.959858
C61   C     C_2   0.238154 0.356668 0.522510 1.016260
C62   C     C_2   0.646288 0.484558 0.700929 0.969639
C63   C     C_2   0.651128 0.537880 0.288110 1.003673
C64   C     C_2   0.648737 0.503595 0.850258 0.962864
C65   C     C_2   0.651447 0.534055 0.137553 0.969990
C66   C     C_2   0.349108 0.511756 0.862113 0.971868
C67   C     C_R   0.426134 0.514046 0.819758 -0.072647
C68   C     C_2   0.352686 0.480525 0.148474 0.962747
C69   C     C_2   0.349068 0.515528 0.711604 0.986361
C70   C     C_2   0.354457 0.462542 0.298253 0.905724
C71   C     C_1   0.502410 0.649397 0.925437 0.282866
C72   C     C_1   0.505193 0.382360 0.073611 0.225968
C73   C     C_R   0.428414 0.495414 0.185402 -0.064320
C74   C     C_R   0.425410 0.508993 0.747196 -0.093996
H1    H     H_    0.601301 0.845214 0.439459 0.206164
H2    H     H_    0.653165 0.358901 0.323701 0.371521
H3    H     H_    0.261138 0.830223 0.622461 0.365310
H4    H     H_    0.556037 0.138614 0.279467 0.364755
H5    H     H_    0.736092 0.729559 0.377007 0.373544
H6    H     H_    0.438111 0.317934 0.723638 0.361184
H7    H     H_    0.668598 0.679529 0.619608 0.355334
H8    H     H_    0.296281 0.265921 0.512226 0.347247
H9    H     H_    0.704455 0.420362 0.635271 0.338591
H10   H     H_    0.725983 0.511541 0.360700 0.345801
H11   H     H_    0.746737 0.450183 0.865539 0.366320
H12   H     H_    0.455874 0.165745 0.607752 0.188332
H13   H     H_    0.717771 0.588095 0.061304 0.376137
H14   H     H_    0.238883 0.461788 0.881577 0.366957
H15   H     H_    0.278432 0.513743 0.077824 0.370582
H16   H     H_    0.275895 0.480572 0.636901 0.343121
H17   H     H_    0.295883 0.387744 0.361666 0.365544
H18   H     H_    0.616827 0.940336 0.548844 0.162430
H19   H     H_    0.384669 0.060540 0.466075 0.161492
H20   H     H_    0.619761 0.073241 0.548289 0.164201
H21   H     H_    0.381104 0.927616 0.467331 0.152914
H22   H     H_    0.129343 0.586392 0.398261 0.163322
H23   H     H_    0.896917 0.410997 0.469752 0.171277
H24   H     H_    0.277000 0.626451 0.607610 0.360615
N1    N     N_2   0.993649 0.532559 0.469073 -0.170099
N2    N     N_1   0.033504 0.303949 0.493349 -0.148552
N3    N     N_1   0.503796 0.703241 0.894991 -0.119652
N4    N     N_1   0.507491 0.328736 0.103795 -0.103182
N5    N     N_2   0.018988 0.481383 0.435205 -0.172952
N6    N     N_R   0.499990 0.689440 0.499980 -0.169704
N7    N     N_R   0.500010 0.310560 0.500020 -0.158482
N8    N     N_1   0.321638 0.658572 0.398043 -0.155618
N9    N     N_1   0.719552 0.320337 0.501559 -0.135832
N10   N     N_1   0.493203 0.702263 0.104195 -0.135335
N11   N     N_1   0.497632 0.328090 0.896041 -0.121182
N12   N     N_1   0.957457 0.709669 0.514958 -0.122610
O1    O     O_R   0.500000 0.560840 0.398180 -0.591304
O2    O     O_R   0.309862 0.654600 0.569680 -0.763141
O3    O     O_2   0.514122 0.315671 0.330570 -0.527606
O4    O     O_R   0.638081 0.339550 0.372069 -0.782217
O5    O     O_2   0.397650 0.878332 0.630342 -0.582178
O6    O     O_R   0.296985 0.803997 0.588908 -0.757050
O7    O     O_2   0.613478 0.115684 0.388005 -0.594381
O8    O     O_R   0.530502 0.168348 0.317195 -0.745062
O9    O     O_2   0.616611 0.651094 0.390455 -0.587376
O10   O     O_R   0.695477 0.752606 0.408744 -0.765320
O11   O     O_2   0.378668 0.337657 0.615139 -0.543879
O12   O     O_R   0.500000 0.439160 0.601820 -0.577992
O13   O     O_R   0.468121 0.292752 0.685081 -0.767332
O14   O     O_2   0.767486 0.706648 0.527538 -0.593182
O15   O     O_R   0.690782 0.633238 0.602378 -0.762987
O16   O     O_2   0.216353 0.342663 0.582686 -0.558999
O17   O     O_R   0.284077 0.309631 0.484277 -0.762912
O18   O     O_2   0.706117 0.525992 0.706421 -0.564782
O19   O     O_R   0.649157 0.424412 0.657861 -0.769271
O20   O     O_2   0.696669 0.589450 0.268489 -0.574605
O21   O     O_R   0.671251 0.495550 0.343394 -0.804140
O22   O     O_2   0.668860 0.550665 0.891547 -0.595634
O23   O     O_R   0.500030 0.439210 0.398180 -0.570903
O24   O     O_R   0.696849 0.446402 0.837630 -0.763330
O25   O     O_2   0.704391 0.494007 0.147384 -0.586293
O26   O     O_R   0.663396 0.588030 0.086766 -0.777789
O27   O     O_2   0.338656 0.556740 0.907074 -0.592965
O28   O     O_R   0.288352 0.457878 0.849850 -0.765430
O29   O     O_2   0.310767 0.424362 0.159687 -0.567876
O30   O     O_R   0.330229 0.530352 0.100153 -0.776089
O31   O     O_2   0.302756 0.559589 0.731837 -0.575637
O32   O     O_R   0.329729 0.471331 0.655550 -0.762175
O33   O     O_2   0.294629 0.495460 0.292993 -0.621611
O34   O     O_R   0.499970 0.560790 0.601820 -0.606334
O35   O     O_R   0.351521 0.401021 0.340284 -0.719453
O36   O     O_R   0.616110 0.567600 0.499360 -0.591462
O37   O     O_R   0.383890 0.432400 0.500640 -0.548291
O38   O     O_R   0.616150 0.445970 0.499350 -0.595038
O39   O     O_R   0.383850 0.554030 0.500650 -0.630156
O40   O     O_2   0.408029 0.663726 0.647197 -0.604494
Zn1   Zn    Zn3+2 0.499980 0.581210 0.500000 1.028469
Zn2   Zn    Zn3+2 0.500020 0.418790 0.500000 1.080469

loop_
_geom_bond_atom_site_label_1
_geom_bond_atom_site_label_2
_ccdc_geom_bond_type
N1    N5    D    
C34   C56   A    
C51   O2    S    
C23   C45   A    
C31   C42   A    
C27   C29   A    
C14   C18   A    
C35   C47   S    
C6    C9    A    
C7    C49   S    
C39   C41   A    
C55   O9    D    
C52   O3    D    
C16   C31   S    
C6    C72   S    
C70   O33   D    
C28   H21   S    
N6    Zn1   S    
C60   O15   S    
C35   C37   A    
H9    O19   S    
O34   Zn1   S    
O39   Zn1   S    
C4    C46   A    
C11   C14   A    
C48   N9    T    
C69   O31   D    
C33   C36   A    
C22   N6    A    
C16   O36   A    
C63   O20   D    
C60   O14   D    
C3    C74   A    
C3    C12   S    
C15   C19   A    
C64   O22   D    
C51   O40   D    
C24   C57   S    
C45   C67   A    
H2    O4    S    
C31   C33   A    
C11   N6    A    
C18   C30   S    
C63   O21   S    
H3    O6    S    
C53   O6    S    
H11   O24   S    
H7    O15   S    
H15   O30   S    
C26   H19   S    
C40   C42   A    
C66   C67   S    
C71   N3    T    
C38   C40   A    
C33   C48   S    
C59   N2    T    
C41   C43   A    
C62   O19   S    
O23   Zn2   S    
C1    O23   A    
C34   C65   S    
C49   N10   T    
C55   O10   S    
C64   O24   S    
C3    C44   A    
C40   C58   S    
C15   C54   S    
H24   O2    S    
C41   C59   S    
C13   N7    A    
C42   C60   S    
C5    C7    A    
C6    C8    A    
C44   C62   S    
C69   O32   S    
C50   N11   T    
C23   C44   A    
C12   O34   A    
C20   H1    S    
O12   Zn2   S    
C2    C4    A    
C32   C35   A    
C57   O13   S    
C13   C52   S    
C66   O28   S    
C13   C15   A    
C47   N8    T    
H5    O10   S    
C10   C45   S    
C69   C74   S    
C61   O17   S    
C9    C56   S    
C65   O25   D    
H16   O32   S    
H14   O28   S    
C61   O16   D    
C2    C73   A    
C70   O35   S    
C34   C46   A    
C36   H23   S    
C23   C64   S    
H4    O8    S    
C20   C22   A    
C54   O8    S    
C68   O30   S    
C21   C24   A    
C19   C29   S    
C8    C50   S    
H17   O35   S    
C43   C61   S    
C25   C30   A    
C7    C9    A    
N7    Zn2   S    
C21   H12   S    
C25   H18   S    
C56   C73   A    
C17   O37   A    
C58   N12   T    
H13   O26   S    
C8    C10   A    
C17   O39   A    
O38   Zn2   S    
C38   N1    S    
C27   H20   S    
O1    Zn1   S    
C39   N5    S    
C22   C55   S    
C52   O4    S    
C25   C27   A    
H10   O21   S    
C26   C28   A    
C46   C63   S    
C16   O38   A    
C1    C4    S    
C36   C38   A    
O37   Zn2   S    
C68   C73   S    
C5    C10   A    
C5    C71   S    
C1    O1    A    
C67   C74   A    
C62   O18   D    
C66   O27   D    
C72   N4    T    
C28   C30   A    
C32   C43   A    
C18   C20   A    
H8    O17   S    
C65   O26   S    
C11   C51   S    
C57   O11   D    
O36   Zn1   S    
C14   C53   S    
C12   O12   A    
C37   H22   S    
C26   C29   A    
C37   C39   A    
C54   O7    D    
C17   C32   S    
C68   O29   D    
C24   N7    A    
C2    C70   S    
C53   O5    D    
C19   C21   A    
H6    O13   S    
