data_mof_unit_21018.cif
_audit_creation_date              2012-12-10T17:22:43-0500
_audit_creation_method            fapswitch 2.2
_symmetry_space_group_name_H-M    P1
_symmetry_Int_Tables_number       1
_space_group_crystal_system       triclinic
_cell_length_a                    10.679438
_cell_length_b                    10.830478
_cell_length_c                    9.726499
_cell_angle_alpha                 90.18785
_cell_angle_beta                  91.189102
_cell_angle_gamma                 95.20881
_cell_volume                      1120.09805202

loop_
_atom_site_label
_atom_site_type_symbol
_atom_type_description
_atom_site_fract_x
_atom_site_fract_y
_atom_site_fract_z
_atom_type_partial_charge
C1    C     C_R   0.506604 0.263034 0.501470 0.815581
C2    C     C_R   0.513832 0.059692 0.631678 0.013772
C3    C     C_R   0.511659 0.128181 0.506397 -0.094760
C4    C     C_R   0.260104 0.499400 0.499226 0.831038
C5    C     C_R   0.492089 0.063513 0.382338 -0.146198
C6    C     C_R   0.485810 0.935658 0.379761 -0.102399
C7    C     C_R   0.473124 0.869174 0.501460 -0.069235
C8    C     C_R   0.674341 0.686310 0.136860 0.189183
C9    C     C_R   0.749196 0.766318 0.051288 -0.084896
C10   C     C_R   0.743382 0.756428 0.912311 -0.247081
C11   C     C_R   0.662767 0.667317 0.851735 -0.121477
C12   C     C_3   0.958934 0.503500 0.369421 0.003903
C13   C     C_R   0.580420 0.585121 0.925770 0.184951
C14   C     C_R   0.582440 0.589120 0.076068 0.140962
C15   C     C_R   0.429131 0.412586 0.068928 0.077191
C16   C     C_R   0.486654 0.735470 0.500192 0.811805
C17   C     C_R   0.427783 0.416204 0.922611 -0.047163
C18   C     C_R   0.739935 0.494955 0.500521 0.837894
C19   C     C_3   0.043977 0.488596 0.628783 -0.131295
C20   C     C_3   0.952819 0.389663 0.554686 -0.142776
C21   C     C_3   0.877602 0.493531 0.498538 -0.068967
C22   C     C_3   0.967594 0.592793 0.572133 -0.195239
C23   C     C_3   0.034733 0.399804 0.425399 -0.220106
C24   C     C_3   0.049629 0.602633 0.442350 0.163588
C25   C     C_2   0.357939 0.302021 0.128009 0.870296
C26   C     C_2   0.916888 0.502192 0.221158 0.893669
C27   C     C_3   0.123600 0.498797 0.498873 -0.070125
C28   C     C_R   0.564948 0.103638 0.761286 0.114867
C29   C     C_R   0.534188 0.034443 0.881218 0.186729
C30   C     C_R   0.445197 0.930716 0.871337 0.156281
C31   C     C_R   0.415239 0.878737 0.743595 -0.217609
C32   C     C_R   0.465686 0.934601 0.625398 0.018852
Cu1   Cu    Cu3+1 0.499990 0.499990 0.640660 0.965210
Cu2   Cu    Cu3+1 0.500010 0.500010 0.359340 1.034225
H1    H     H_    0.918674 0.297924 0.594887 0.188440
H2    H     H_    0.061743 0.319516 0.365580 0.187981
H3    H     H_    0.483973 0.112162 0.286927 0.222619
H4    H     H_    0.234603 0.228114 0.264880 0.322333
H5    H     H_    0.812133 0.413663 0.069879 0.347427
H6    H     H_    0.354151 0.793367 0.737106 0.195369
H7    H     H_    0.491444 0.888877 0.283056 0.213737
H8    H     H_    0.817782 0.839686 0.088177 0.214523
H9    H     H_    0.803912 0.818410 0.850000 0.182623
H10   H     H_    0.670653 0.666765 0.744125 0.218871
H11   H     H_    0.368866 0.347319 0.864080 0.160817
H12   H     H_    0.080599 0.482492 0.735986 0.181012
H13   H     H_    0.938076 0.671814 0.632773 0.168536
I1    I     I_    0.357976 0.837043 0.038260 -0.289619
I2    I     I_    0.753171 0.759275 0.331810 -0.341891
I3    I     I_    0.132443 0.775574 0.366235 -0.274263
I4    I     I_    0.720416 0.241553 0.775676 -0.336833
I5    I     I_    0.639506 0.068808 0.067514 -0.307392
N1    N     N_R   0.501210 0.501210 0.147910 -0.213747
N2    N     N_R   0.501250 0.501290 0.852040 -0.202491
O1    O     O_R   0.499990 0.319640 0.618810 -0.566227
O2    O     O_R   0.275796 0.311703 0.235643 -0.736330
O3    O     O_2   0.957394 0.584654 0.144218 -0.561668
O4    O     O_R   0.833960 0.404395 0.171030 -0.723379
O5    O     O_R   0.500000 0.319660 0.381240 -0.566374
O6    O     O_R   0.316850 0.499960 0.618770 -0.600810
O7    O     O_R   0.316860 0.499980 0.381190 -0.512494
O8    O     O_R   0.500000 0.680340 0.618760 -0.616619
O9    O     O_R   0.500010 0.680360 0.381190 -0.559025
O10   O     O_R   0.683140 0.500020 0.618810 -0.586730
O11   O     O_R   0.683150 0.500040 0.381230 -0.553029
O12   O     O_2   0.365258 0.200598 0.074588 -0.606043

loop_
_geom_bond_atom_site_label_1
_geom_bond_atom_site_label_2
_ccdc_geom_bond_type
Cu1   O1    S    
C8    C14   A    
C20   C23   S    
C6    C7    A    
C13   N2    A    
C23   C27   S    
C8    C9    A    
C18   C21   S    
C19   C27   S    
C9    C10   A    
C12   C24   S    
C31   C32   A    
C25   O2    S    
C30   C31   A    
C24   C27   S    
C4    O6    A    
C22   H13   S    
C1    O1    A    
C19   H12   S    
C11   H10   S    
C4    O7    A    
C21   C22   S    
C20   C21   S    
C18   O11   A    
C11   C13   A    
C12   C23   S    
C18   O10   A    
C9    H8    S    
C29   C30   A    
C16   O8    A    
Cu1   O10   S    
C5    C6    A    
C12   C21   S    
Cu2   O11   S    
C30   I1    S    
Cu2   O9    S    
C26   O3    D    
C19   C22   S    
C17   H11   S    
C20   H1    S    
Cu1   Cu2   S    
Cu1   O6    S    
C2    C3    A    
C1    O5    A    
C24   I3    S    
Cu2   O5    S    
C29   I5    S    
C28   I4    S    
C22   C24   S    
C15   C25   S    
C5    H3    S    
C15   N1    A    
C4    C27   S    
H4    O2    S    
C31   H6    S    
Cu2   N1    S    
C2    C32   A    
C23   H2    S    
C10   C11   A    
Cu1   N2    S    
C15   C17   A    
C17   N2    A    
C28   C29   A    
C16   O9    A    
C2    C28   A    
C7    C32   A    
C3    C5    A    
C10   H9    S    
C13   C14   A    
H5    O4    S    
C14   N1    A    
C8    I2    S    
C26   O4    S    
Cu2   O7    S    
C7    C16   S    
C25   O12   D    
C19   C20   S    
C12   C26   S    
Cu1   O8    S    
C1    C3    S    
C6    H7    S    
