data_mof_unit_32741.cif
_audit_creation_date              2012-12-10T17:11:06-0500
_audit_creation_method            fapswitch 2.2
_symmetry_space_group_name_H-M    P1
_symmetry_Int_Tables_number       1
_space_group_crystal_system       triclinic
_cell_length_a                    18.385575
_cell_length_b                    18.738851
_cell_length_c                    18.223814
_cell_angle_alpha                 89.902188
_cell_angle_beta                  120.080545
_cell_angle_gamma                 120.71347
_cell_volume                      4389.56594585

loop_
_atom_site_label
_atom_site_type_symbol
_atom_type_description
_atom_site_fract_x
_atom_site_fract_y
_atom_site_fract_z
_atom_type_partial_charge
Br1   Br    Br    0.824481 0.021140 0.684768 -0.379720
Br2   Br    Br    0.964950 0.562717 0.681430 -0.348359
Br3   Br    Br    0.368547 0.890415 0.582564 -0.321089
Br4   Br    Br    0.023129 0.543974 0.305015 -0.362902
Br5   Br    Br    0.775215 0.615187 0.035415 -0.315487
Br6   Br    Br    0.245045 0.141588 0.777442 -0.373072
Br7   Br    Br    0.379598 0.213999 0.993856 -0.111204
Br8   Br    Br    0.631335 0.344284 0.119437 -0.190558
Br9   Br    Br    0.763325 0.404237 0.038435 -0.333489
Br10  Br    Br    0.632241 0.306188 0.664700 -0.340472
Br11  Br    Br    0.077130 0.138613 0.837942 -0.375329
Br12  Br    Br    0.224277 0.430785 0.902890 -0.452165
Br13  Br    Br    0.259919 0.276142 0.483393 -0.352326
Br14  Br    Br    0.394254 0.433497 0.307333 -0.304721
Br15  Br    Br    0.262262 0.502017 0.313290 -0.299779
Br16  Br    Br    0.792019 0.240452 0.113802 -0.358380
Br17  Br    Br    0.243893 0.468380 0.109794 -0.433530
Br18  Br    Br    0.136192 0.996865 0.852545 -0.322075
Br19  Br    Br    0.758919 0.189133 0.705470 -0.189584
C1    C     C_R   0.000413 0.861053 0.641654 0.588038
C2    C     C_R   0.197705 0.377014 0.273970 0.178101
C3    C     C_R   0.101018 0.314875 0.260929 -0.050441
C4    C     C_R   0.003559 0.139639 0.359886 0.586444
C5    C     C_R   0.097616 0.254925 0.308877 -0.022118
C6    C     C_R   0.005902 0.196700 0.304703 0.034085
C7    C     C_R   0.915487 0.192842 0.246978 0.002087
C8    C     C_R   0.916490 0.246853 0.193491 0.122591
C9    C     C_R   0.008591 0.308685 0.201119 0.046657
C10   C     C_R   0.606183 0.666925 0.267818 -0.010521
C11   C     C_R   0.548118 0.578715 0.212828 -0.004700
C12   C     C_3   0.003497 0.281904 0.655438 -0.104015
C13   C     C_R   0.440177 0.527845 0.159831 0.007891
C14   C     C_R   0.388003 0.560571 0.161151 0.187259
C15   C     C_R   0.443158 0.652416 0.205555 0.025809
C16   C     C_R   0.279684 0.139760 0.640594 0.607965
C17   C     C_R   0.553988 0.706839 0.259679 -0.028348
C18   C     C_R   0.607787 0.798655 0.304018 -0.005297
C19   C     C_R   0.554893 0.835386 0.296920 0.001558
C20   C     C_R   0.446205 0.782232 0.240663 -0.011083
C21   C     C_R   0.391699 0.691693 0.197462 0.016290
C22   C     C_R   0.003346 0.891420 0.803916 0.146577
C23   C     C_3   0.992780 0.199229 0.691280 -0.092580
C24   C     C_R   0.973328 0.888212 0.861945 0.006327
C25   C     C_R   0.999177 0.848819 0.927523 0.007683
C26   C     C_R   0.035158 0.800601 0.919478 0.047914
C27   C     C_R   0.013470 0.771488 0.833711 -0.008832
C28   C     C_R   0.720146 0.858823 0.359905 0.464586
C29   C     C_R   0.999585 0.819762 0.774873 -0.010952
C30   C     C_R   0.996286 0.802092 0.696457 0.021123
C31   C     C_R   0.989587 0.726614 0.670446 -0.007562
C32   C     C_R   0.991641 0.673121 0.724409 0.106884
C33   C     C_R   0.004284 0.695943 0.805604 0.060767
C34   C     C_3   0.993271 0.302406 0.793304 -0.099704
C35   C     C_R   0.179192 0.847166 0.417575 0.017544
C36   C     C_R   0.235776 0.813786 0.466503 0.132882
C37   C     C_R   0.192202 0.723640 0.432208 0.022927
C38   C     C_R   0.098819 0.671414 0.344713 0.127919
C39   C     C_R   0.051366 0.710045 0.292424 -0.031922
C40   C     C_R   0.001773 0.861204 0.357540 0.593952
C41   C     C_R   0.077554 0.789015 0.336659 -0.034113
C42   C     C_R   0.000542 0.805363 0.298353 0.033847
C43   C     C_R   0.911998 0.754260 0.207141 0.002221
C44   C     C_R   0.901133 0.688458 0.157132 0.158387
C45   C     C_3   0.097740 0.307683 0.853852 0.044878
C46   C     C_R   0.977674 0.672812 0.197868 0.058842
C47   C     C_R   0.393815 0.212211 0.840947 0.130028
C48   C     C_R   0.450023 0.244861 0.935399 0.225883
C49   C     C_R   0.558194 0.299965 0.989555 0.209064
C50   C     C_R   0.613090 0.322975 0.950887 0.151496
C51   C     C_R   0.557993 0.287508 0.854420 -0.055408
C52   C     C_R   0.996983 0.140787 0.638421 0.567524
C53   C     C_R   0.446561 0.231652 0.798316 -0.060991
C54   C     C_R   0.392818 0.196051 0.702284 0.042626
C55   C     C_R   0.447470 0.212521 0.663335 0.007608
C56   C     C_3   0.986667 0.335658 0.708108 -0.099576
C57   C     C_R   0.555530 0.269920 0.718172 0.101521
C58   C     C_R   0.609525 0.305360 0.811522 0.059869
C59   C     C_R   0.279813 0.640424 0.140153 0.527122
C60   C     C_R   0.721086 0.360660 0.861643 0.584256
C61   C     C_R   0.004002 0.361354 0.141283 0.582063
C62   C     C_R   0.997494 0.636249 0.856948 0.577376
C63   C     C_R   0.992344 0.632636 0.141301 0.571774
C64   C     C_3   0.881896 0.142967 0.679731 0.059721
C65   C     C_R   0.995884 0.359484 0.854325 0.558640
C66   C     C_3   0.890790 0.200387 0.753221 0.121684
C67   C     C_R   0.185354 0.252624 0.355566 0.081006
C68   C     C_3   0.090432 0.237847 0.795602 0.079082
C69   C     C_2   0.061801 0.435523 0.729068 0.298510
C70   C     C_2   0.196110 0.277743 0.812246 0.363583
C71   C     C_2   0.818457 0.132355 0.241234 0.310258
C72   C     C_2   0.316411 0.250810 0.349408 0.335493
C73   C     C_2   0.614796 0.929952 0.350220 0.326500
C74   C     C_2   0.794102 0.111256 0.579715 0.348993
C75   C     C_2   0.718880 0.712271 0.337749 0.238329
C76   C     C_2   0.597661 0.534960 0.214992 0.316473
C77   C     C_2   0.387882 0.821432 0.221487 0.334460
C78   C     C_R   0.252265 0.283670 0.328871 0.014363
C79   C     C_2   0.974057 0.699063 0.584234 0.306283
C80   C     C_2   0.924078 0.932166 0.856495 0.299313
C81   C     C_2   0.997351 0.864511 0.006288 0.305028
C82   C     C_2   0.109490 0.795464 0.002641 0.272008
C83   C     C_2   0.830977 0.769640 0.160321 0.362607
C84   C     C_2   0.232535 0.944014 0.443266 0.318041
C85   C     C_2   0.243745 0.683327 0.485018 0.343921
C86   C     C_2   0.394222 0.168849 0.565480 0.262832
C87   C     C_2   0.898985 0.161027 0.829509 0.315224
C88   C     C_2   0.120391 0.294721 0.943923 0.341065
C89   C     C_R   0.266766 0.354472 0.296657 0.236975
C90   C     C_2   0.111507 0.343534 0.672788 0.281172
C91   C     C_2   0.929313 0.255585 0.552267 0.289619
C92   C     C_2   0.882393 0.323017 0.649473 0.321931
H1    H     H_    0.395260 0.458626 0.122336 0.254969
H2    H     H_    0.315407 0.786030 0.215390 0.113901
H3    H     H_    0.011685 0.670830 0.580999 0.168082
H4    H     H_    0.926021 0.976040 0.818698 0.201644
H5    H     H_    0.017534 0.927633 0.035572 0.180272
H6    H     H_    0.106957 0.795804 0.060709 0.142780
H7    H     H_    0.751258 0.717867 0.135452 0.152499
H8    H     H_    0.294407 0.986710 0.512887 0.156148
H9    H     H_    0.197579 0.615492 0.480783 0.165683
H10   H     H_    0.435941 0.163023 0.542848 0.184980
H11   H     H_    0.948357 0.139877 0.858682 0.145162
H12   H     H_    0.116280 0.484797 0.794937 0.212304
H13   H     H_    0.074801 0.290706 0.966890 0.116938
H14   H     H_    0.179203 0.391709 0.738393 0.145833
H15   H     H_    0.911075 0.300133 0.524680 0.171775
H16   H     H_    0.822369 0.278274 0.580889 0.169962
H17   H     H_    0.206200 0.279458 0.758819 0.140270
H18   H     H_    0.742915 0.100325 0.177303 0.167952
H19   H     H_    0.317236 0.209347 0.390801 0.180096
H20   H     H_    0.688340 0.979772 0.361310 0.131013
H21   H     H_    0.788333 0.071740 0.530984 0.173230
H22   H     H_    0.750688 0.735314 0.408446 0.146768
H23   H     H_    0.679046 0.564908 0.266555 0.179308
O1    O     O_3   0.000000 0.000000 0.500000 -0.491020
O2    O     O_R   0.939290 0.616110 0.884440 -0.537041
O3    O     O_R   0.060700 0.616880 0.177520 -0.524050
O4    O     O_R   0.939250 0.884470 0.616070 -0.517611
O5    O     O_R   0.060740 0.443890 0.883140 -0.517895
O6    O     O_R   0.939270 0.616890 0.056080 -0.480451
O7    O     O_R   0.939290 0.322450 0.883140 -0.490111
O8    O     O_R   0.939260 0.323230 0.054780 -0.489536
O9    O     O_R   0.060750 0.615550 0.883900 -0.485244
O10   O     O_R   0.231610 0.616100 0.176760 -0.510059
O11   O     O_R   0.768390 0.445230 0.884440 -0.487163
O12   O     O_R   0.231620 0.176800 0.616070 -0.471209
O13   O     O_R   0.060740 0.176800 0.445190 -0.443434
O14   O     O_R   0.231610 0.054800 0.615530 -0.519468
O15   O     O_R   0.768390 0.883920 0.323210 -0.506897
O16   O     O_R   0.060730 0.883140 0.443890 -0.532814
O17   O     O_R   0.939260 0.056140 0.616830 -0.491823
O18   O     O_R   0.939300 0.883140 0.322450 -0.482385
O19   O     O_R   0.060710 0.177580 0.616830 -0.495818
O20   O     O_2   0.059893 0.463191 0.667713 -0.447562
O21   O     O_2   0.274070 0.306824 0.888647 -0.331646
O22   O     O_2   0.821536 0.119383 0.308082 -0.453533
O23   O     O_R   0.768380 0.884480 0.445190 -0.547372
O24   O     O_2   0.364232 0.265027 0.316592 -0.380916
O25   O     O_2   0.584338 0.952326 0.385102 -0.394065
O26   O     O_2   0.726938 0.123169 0.550190 -0.408468
O27   O     O_2   0.776965 0.725479 0.316713 -0.525444
O28   O     O_2   0.547200 0.463479 0.158508 -0.393803
O29   O     O_2   0.418082 0.891895 0.208394 -0.392502
O30   O     O_2   0.916191 0.704533 0.515314 -0.484905
O31   O     O_2   0.876704 0.916756 0.889988 -0.435663
O32   O     O_2   0.970397 0.806237 0.037512 -0.471155
O33   O     O_2   0.178571 0.795242 0.008634 -0.475438
O34   O     O_R   0.060710 0.883920 0.615530 -0.497919
O35   O     O_2   0.852152 0.838768 0.145528 -0.415103
O36   O     O_2   0.209217 0.977288 0.385741 -0.460695
O37   O     O_2   0.338161 0.723943 0.531306 -0.370511
O38   O     O_2   0.303246 0.138041 0.508354 -0.493947
O39   O     O_2   0.848300 0.149570 0.858887 -0.379571
O40   O     O_2   0.195604 0.294733 0.995812 -0.341409
O41   O     O_2   0.124603 0.342571 0.613284 -0.390602
O42   O     O_2   0.901027 0.192203 0.499003 -0.461771
O43   O     O_2   0.864148 0.365393 0.679346 -0.397724
O44   O     O_R   0.939300 0.054810 0.323210 -0.523185
O45   O     O_3   0.000000 0.500030 0.999970 -0.497119
O46   O     O_R   0.231620 0.615550 0.054780 -0.494097
O47   O     O_R   0.768380 0.323230 0.883900 -0.473365
O48   O     O_R   0.060700 0.445220 0.176760 -0.463570
Zn1   Zn    Zn3+2 0.086760 0.130530 0.543760 1.108437
Zn2   Zn    Zn3+2 0.086760 0.956230 0.542990 1.047872
Zn3   Zn    Zn3+2 0.913250 0.956230 0.369490 1.062735
Zn4   Zn    Zn3+2 0.913230 0.957020 0.543760 1.036252
Zn5   Zn    Zn3+2 0.913240 0.369500 0.956210 1.105226
Zn6   Zn    Zn3+2 0.086750 0.543800 0.130490 1.056185
Zn7   Zn    Zn3+2 0.913240 0.543800 0.956980 1.064526
Zn8   Zn    Zn3+2 0.086770 0.543010 0.956210 1.055327

loop_
_geom_bond_atom_site_label_1
_geom_bond_atom_site_label_2
_ccdc_geom_bond_type
O17   Zn4   S    
C11   C13   A    
C36   C37   A    
C44   C46   A    
O15   Zn3   S    
C86   O38   D    
C19   C73   S    
C54   C55   A    
C81   H5    S    
O1    Zn1   S    
O5    Zn8   S    
C85   H9    S    
O47   Zn5   S    
C60   O11   A    
C72   H19   S    
C35   C41   A    
C40   O18   A    
O8    Zn5   S    
O45   Zn8   S    
C10   C17   A    
C7    C8    A    
C18   C19   A    
C62   O9    A    
C55   C57   A    
O12   Zn1   S    
C62   O2    A    
C73   O25   D    
C15   C21   A    
C88   H13   S    
C3    C5    A    
C17   C18   A    
O4    Zn4   S    
Br9   C50   S    
C63   O3    A    
C50   C51   A    
C80   H4    S    
C10   C75   S    
Br12  C45   S    
C34   C45   S    
C70   O21   D    
O45   Zn5   S    
C39   C41   A    
C52   O19   A    
C27   C33   A    
C75   H22   S    
C37   C38   A    
Br5   C44   S    
C11   C76   S    
C81   O32   D    
C1    O4    A    
C82   O33   D    
C67   C78   A    
C4    O44   A    
C63   O6    A    
C78   C89   A    
Br3   C36   S    
C12   C91   S    
C47   C53   A    
C28   O15   A    
C65   O5    A    
Br11  C68   S    
C49   C50   A    
C72   O24   D    
Br4   C38   S    
C84   O36   D    
O7    Zn5   S    
C61   O48   A    
C18   C28   S    
C74   H21   S    
C13   H1    S    
C45   C68   S    
C42   C43   A    
C83   H7    S    
C87   O39   D    
O3    Zn6   S    
Br16  C8    S    
Br14  C89   S    
C47   C48   A    
C3    C9    A    
C2    C3    A    
C51   C58   A    
O6    Zn7   S    
C22   C24   A    
C34   C56   S    
Br10  C57   S    
O1    Zn2   S    
C69   H12   S    
C14   C15   A    
C38   C39   A    
C58   C60   S    
C1    O34   A    
C27   C29   A    
C40   C42   S    
C31   C79   S    
C48   C49   A    
O19   Zn1   S    
C35   C84   S    
C73   H20   S    
C57   C58   A    
C37   C85   S    
C76   O28   D    
C20   C21   A    
C53   C54   A    
O16   Zn2   S    
O45   Zn6   S    
O34   Zn2   S    
C6    C7    A    
C26   C27   A    
C4    O13   A    
C76   H23   S    
C72   C78   S    
C60   O47   A    
C41   C42   A    
C16   O12   A    
C69   O20   D    
Br13  C67   S    
C74   O26   D    
C24   C25   A    
C10   C11   A    
C59   O10   A    
C1    C30   S    
C39   C46   A    
C12   C56   S    
O45   Zn7   S    
Br6   C47   S    
O14   Zn2   S    
C87   H11   S    
C43   C44   A    
O10   Zn6   S    
C31   C32   A    
C12   C90   S    
C86   H10   S    
Br17  C14   S    
O48   Zn6   S    
C5    C6    A    
C75   O27   D    
C26   C82   S    
C71   H18   S    
C85   O37   D    
C90   H14   S    
C29   C30   A    
C64   C66   S    
C91   H15   S    
Br8   C49   S    
C61   O8    A    
O23   Zn4   S    
C34   C65   S    
C22   C29   A    
C21   C59   S    
C77   H2    S    
Br18  C22   S    
Br1   C64   S    
C71   O22   D    
C66   C87   S    
C52   O17   A    
C25   C26   A    
C45   C88   S    
C28   O23   A    
C40   O16   A    
O13   Zn1   S    
C35   C36   A    
C16   C54   S    
O1    Zn4   S    
O11   Zn7   S    
C84   H8    S    
C23   C64   S    
C24   C80   S    
O18   Zn3   S    
Br19  C66   S    
C79   O30   D    
C90   O41   D    
C88   O40   D    
C91   O42   D    
C7    C71   S    
C56   C92   S    
O44   Zn3   S    
C77   O29   D    
O2    Zn7   S    
C59   O46   A    
C82   H6    S    
C13   C14   A    
C68   C70   S    
C32   C33   A    
O46   Zn8   S    
C55   C86   S    
C92   H16   S    
C25   C81   S    
C46   C63   S    
C19   C20   A    
C12   C23   S    
C65   O7    A    
C83   O35   D    
C23   C52   S    
O9    Zn8   S    
C15   C17   A    
C16   O14   A    
C4    C6    S    
C33   C62   S    
C9    C61   S    
C20   C77   S    
C2    C89   A    
C79   H3    S    
Br2   C32   S    
C34   C66   S    
Br7   C48   S    
C56   C69   S    
Br15  C2    S    
C30   C31   A    
C8    C9    A    
C92   O43   D    
C51   C53   A    
C23   C68   S    
C43   C83   S    
C5    C67   A    
O1    Zn3   S    
C80   O31   D    
C70   H17   S    
C64   C74   S    
