data_mof_unit_25967.cif
_audit_creation_date              2012-12-11T16:37:20-0500
_audit_creation_method            fapswitch 2.2
_symmetry_space_group_name_H-M    P1
_symmetry_Int_Tables_number       1
_space_group_crystal_system       triclinic
_cell_length_a                    19.590035
_cell_length_b                    6.994981
_cell_length_c                    17.633402
_cell_angle_alpha                 90.000193
_cell_angle_beta                  108.670667
_cell_angle_gamma                 89.999859
_cell_volume                      2289.17743315

loop_
_atom_site_label
_atom_site_type_symbol
_atom_type_description
_atom_site_fract_x
_atom_site_fract_y
_atom_site_fract_z
_atom_type_partial_charge
O1    O     O_R   0.561710 0.369960 0.440200 -0.525903
O2    O     O_R   0.061710 0.630040 0.940200 -0.525904
O3    O     O_R   0.412630 0.033330 0.406330 -0.522858
O4    O     O_R   0.912630 0.966670 0.906330 -0.522859
O5    O     O_R   0.438290 0.869790 0.559800 -0.534928
O6    O     O_R   0.938290 0.130210 0.059800 -0.534929
C1    C     C_R   0.384228 0.203326 0.383760 0.753167
C2    C     C_R   0.884229 0.796674 0.883759 0.753155
O7    O     O_R   0.559570 0.039810 0.430640 -0.534300
O8    O     O_R   0.059570 0.960190 0.930640 -0.534299
O9    O     O_R   0.586280 0.876320 0.584290 -0.549694
O10   O     O_R   0.086280 0.123680 0.084290 -0.549698
C3    C     C_R   0.581309 0.209401 0.415693 0.729823
C4    C     C_R   0.081309 0.790598 0.915694 0.729825
O11   O     O_R   0.413720 0.363440 0.415710 -0.522074
O12   O     O_R   0.913720 0.636560 0.915710 -0.522075
O13   O     O_3   0.508590 0.205630 0.550380 -0.372197
O14   O     O_3   0.008590 0.794370 0.050380 -0.372212
V1    V     V_3+5 0.498410 0.928130 0.490650 1.537775
V2    V     V_3+5 0.998410 0.071870 0.990650 1.537765
O15   O     O_R   0.587370 0.546990 0.593670 -0.542260
O16   O     O_R   0.087370 0.453010 0.093670 -0.542252
C5    C     C_R   0.614984 0.717187 0.616444 0.694519
C6    C     C_R   0.114984 0.282813 0.116445 0.694547
O17   O     O_R   0.440430 0.540520 0.569360 -0.524393
O18   O     O_R   0.940430 0.459480 0.069360 -0.524398
C7    C     C_R   0.422296 0.709944 0.588113 0.757801
C8    C     C_R   0.922294 0.290055 0.088110 0.757802
V3    V     V_3+5 0.501590 0.428960 0.509350 1.542156
V4    V     V_3+5 0.001590 0.571040 0.009350 1.542162
O19   O     O_3   0.491410 0.701330 0.449620 -0.336124
O20   O     O_3   0.991410 0.298670 0.949620 -0.336123
C9    C     C_R   0.284460 0.898083 0.679997 -0.076576
C10   C     C_R   0.784353 0.102125 0.179879 -0.076643
C11   C     C_R   0.328235 0.878364 0.631320 -0.130349
C12   C     C_R   0.828134 0.121834 0.131209 -0.130455
C13   C     C_R   0.376962 0.724445 0.641626 -0.099100
C14   C     C_R   0.876956 0.275552 0.141616 -0.099093
C15   C     C_R   0.382508 0.593426 0.704553 0.142761
C16   C     C_R   0.882596 0.406356 0.204636 0.142742
C17   C     C_R   0.338773 0.615966 0.753308 -0.113469
C18   C     C_R   0.838858 0.383816 0.253390 -0.113286
C19   C     C_R   0.288957 0.766027 0.741121 0.072235
C20   C     C_R   0.788944 0.233971 0.241100 0.072175
C21   C     C_R   0.190409 0.620696 0.781893 -0.158120
C22   C     C_R   0.690418 0.379336 0.281902 -0.158067
C23   C     C_R   0.139890 0.620801 0.822934 0.175383
C24   C     C_R   0.639897 0.379219 0.322941 0.175378
C25   C     C_R   0.134030 0.780690 0.870150 -0.126215
C26   C     C_R   0.634029 0.219311 0.370145 -0.126235
C27   C     C_R   0.182996 0.932302 0.877315 -0.179397
C28   C     C_R   0.682980 0.067671 0.377284 -0.179404
C29   C     C_R   0.234813 0.928784 0.837691 0.204293
C30   C     C_R   0.734787 0.071179 0.337646 0.204346
C31   C     C_R   0.237659 0.773984 0.787738 0.008913
C32   C     C_R   0.737652 0.226023 0.287722 0.008867
C33   C     C_R   0.768662 0.619377 0.808566 0.094337
C34   C     C_R   0.268660 0.380623 0.308569 0.094338
C35   C     C_R   0.813327 0.781061 0.817587 -0.101992
C36   C     C_R   0.313326 0.218939 0.317589 -0.102000
C37   C     C_R   0.789151 0.923367 0.759375 -0.117012
C38   C     C_R   0.289149 0.076632 0.259377 -0.117009
H1    H     H_    0.822692 0.043438 0.761057 0.179729
H2    H     H_    0.322690 0.956562 0.261059 0.179725
C39   C     C_R   0.724371 0.904958 0.695280 -0.147897
C40   C     C_R   0.224370 0.095042 0.195281 -0.147902
C41   C     C_R   0.681647 0.738628 0.685905 -0.084412
C42   C     C_R   0.181646 0.261373 0.185907 -0.084415
C43   C     C_R   0.703825 0.600128 0.745394 0.078583
C44   C     C_R   0.203823 0.399872 0.245397 0.078647
C45   C     C_3   0.715329 0.394362 0.733916 -0.450515
C46   C     C_3   0.215327 0.605639 0.233921 -0.450513
C47   C     C_3   0.786764 0.415660 0.800019 0.224452
C48   C     C_3   0.286763 0.584341 0.300025 0.224431
H3    H     H_    0.246011 0.014409 0.668919 0.144002
H4    H     H_    0.745828 0.985976 0.168723 0.144021
H5    H     H_    0.709786 0.017041 0.650677 0.131937
H6    H     H_    0.209785 0.982960 0.150678 0.131938
H7    H     H_    0.720267 0.363557 0.674052 0.173486
H8    H     H_    0.220265 0.636449 0.174058 0.173480
H9    H     H_    0.675319 0.303785 0.749807 0.204653
H10   H     H_    0.175317 0.696214 0.249813 0.204677
I1    I     I_    0.877037 0.393347 0.754961 -0.330998
I2    I     I_    0.377035 0.606654 0.254966 -0.330978
I3    I     I_    0.788880 0.263655 0.905671 -0.397443
I4    I     I_    0.288879 0.736347 0.405679 -0.397315
H11   H     H_    0.322896 0.982422 0.584276 0.153514
H12   H     H_    0.822727 0.017938 0.084092 0.153485
I5    I     I_    0.457855 0.364424 0.734656 -0.335979
I6    I     I_    0.958101 0.634972 0.234871 -0.335834
H13   H     H_    0.343987 0.516600 0.801576 0.180620
H14   H     H_    0.844149 0.482999 0.301737 0.180641
H15   H     H_    0.192853 0.499154 0.744725 0.162844
H16   H     H_    0.692872 0.500896 0.244747 0.162920
I7    I     I_    0.076709 0.369925 0.806923 -0.310644
I8    I     I_    0.576712 0.630086 0.306931 -0.310634
H17   H     H_    0.182704 0.051914 0.916202 0.162492
H18   H     H_    0.682679 0.948030 0.416153 0.162516
I9    I     I_    0.312141 0.150111 0.863408 -0.384766
I10   I     I_    0.812056 0.849712 0.363257 -0.384911

loop_
_geom_bond_atom_site_label_1
_geom_bond_atom_site_label_2
_ccdc_geom_bond_type
C27   H17   S    
C40   C42   A    
C21   C31   A    
O13   V3    S    
O4    C2    A    
V1    O19   S    
C45   H7    S    
C23   C25   A    
C12   H12   S    
O9    V1    S    
C28   H18   S    
C11   C13   A    
O7    V1    S    
O3    C1    A    
C2    C35   S    
C33   C35   A    
C4    C25   S    
O12   V4    S    
C36   C38   A    
C21   C23   A    
C33   C47   S    
C43   C45   S    
O7    C3    A    
C38   H2    S    
O13   V1    S    
O5    C7    A    
C11   H11   S    
C9    H3    S    
O6    C8    A    
O8    V2    S    
C25   C27   A    
C26   C28   A    
O3    V1    S    
O14   V4    S    
V4    O20   S    
O16   V4    S    
C10   C12   A    
C24   C26   A    
C21   H15   S    
C2    O12   A    
C17   C19   A    
C30   I10   S    
C18   C20   A    
C16   I6    S    
C28   C30   A    
O11   V3    S    
C22   C24   A    
C29   C31   A    
O17   V3    S    
C40   H6    S    
C30   C32   A    
C35   C37   A    
C39   H5    S    
C38   C40   A    
C9    C19   A    
C10   C20   A    
C46   C48   S    
O8    C4    A    
C45   C47   S    
C34   C44   A    
C1    O11   A    
C39   C41   A    
O15   V3    S    
C29   I9    S    
C27   C29   A    
C20   C32   S    
C22   H16   S    
C8    C14   S    
V3    O19   S    
O10   V2    S    
O1    V3    S    
C48   I4    S    
C47   I3    S    
C19   C31   S    
C17   H13   S    
O18   V4    S    
O15   C5    A    
O16   C6    A    
O1    C3    A    
C1    C36   S    
C34   C48   S    
V2    O20   S    
C24   I8    S    
C18   H14   S    
C37   H1    S    
C48   I2    S    
C16   C18   A    
O5    V1    S    
O17   C7    A    
O6    V2    S    
O10   C6    A    
O18   C8    A    
O2    V4    S    
C33   C43   A    
C12   C14   A    
C46   H8    S    
C14   C16   A    
C5    C41   S    
C7    C13   S    
O9    C5    A    
C9    C11   A    
C47   I1    S    
O14   V2    S    
O2    C4    A    
C6    C42   S    
C3    C26   S    
O4    V2    S    
C37   C39   A    
C13   C15   A    
C15   C17   A    
C42   C44   A    
C22   C32   A    
C23   I7    S    
C44   C46   S    
C41   C43   A    
C34   C36   A    
C15   I5    S    
C46   H10   S    
C10   H4    S    
C45   H9    S    
