data_mof_unit_7893.cif
_audit_creation_date              2012-12-10T19:00:12-0500
_audit_creation_method            fapswitch 2.2
_symmetry_space_group_name_H-M    P1
_symmetry_Int_Tables_number       1
_space_group_crystal_system       triclinic
_cell_length_a                    9.532869
_cell_length_b                    10.813439
_cell_length_c                    13.432639
_cell_angle_alpha                 90.268889
_cell_angle_beta                  72.215871
_cell_angle_gamma                 90.001627
_cell_volume                      1318.49390266

loop_
_atom_site_label
_atom_site_type_symbol
_atom_type_description
_atom_site_fract_x
_atom_site_fract_y
_atom_site_fract_z
_atom_type_partial_charge
C1    C     C_R   0.501093 0.737726 0.497570 0.802688
C2    C     C_R   0.431734 0.482811 0.980192 0.089324
C3    C     C_R   0.468778 0.453487 0.872227 0.077279
C4    C     C_R   0.541133 0.468919 0.031833 -0.026856
C5    C     C_R   0.673107 0.403598 0.980379 0.110891
C6    C     C_R   0.698254 0.360068 0.878722 -0.224604
C7    C     C_R   0.598400 0.385145 0.825132 -0.201091
C8    C     C_R   0.526654 0.519916 0.131656 0.353218
C9    C     C_R   0.751164 0.415928 0.135273 -0.283251
C10   C     C_R   0.372136 0.489584 0.815427 -0.109283
C11   C     C_R   0.383610 0.936338 0.479657 0.123330
C12   C     C_R   0.420976 0.494294 0.700275 0.783475
C13   C     C_R   0.506691 0.870691 0.485865 -0.096878
C14   C     C_R   0.638215 0.935435 0.475885 -0.223016
C15   C     C_R   0.638256 0.064342 0.475828 -0.224937
C16   C     C_R   0.506755 0.129208 0.485758 -0.093748
C17   C     C_R   0.383650 0.063546 0.479529 0.125516
C18   C     C_3   0.226436 0.070647 0.546040 -0.464114
C19   C     C_3   0.226398 0.930153 0.546144 -0.483824
C20   C     C_R   0.945360 0.404228 0.455634 0.255060
C21   C     C_R   0.902682 0.587665 0.553093 -0.072719
C22   C     C_R   0.051646 0.587656 0.553121 -0.084493
C23   C     C_R   0.501152 0.262267 0.497499 0.788524
C24   C     C_R   0.092686 0.404029 0.455863 0.257119
C25   C     C_3   0.146587 0.362233 0.344707 -0.495976
C26   C     C_3   0.987601 0.363525 0.344250 -0.524428
C27   C     C_R   0.578905 0.498702 0.299912 0.833961
C28   C     C_R   0.777939 0.380033 0.031756 -0.204314
C29   C     C_R   0.623788 0.482671 0.186372 -0.147445
C30   C     C_R   0.229627 0.530932 0.869782 -0.191673
C31   C     C_R   0.184853 0.540465 0.977985 -0.189945
C32   C     C_R   0.284493 0.517950 0.032857 -0.132102
Cu1   Cu    Cu3+1 0.359330 0.500020 0.500010 0.950099
Cu2   Cu    Cu3+1 0.640670 0.499980 0.499990 0.930428
H1    H     H_    0.827303 0.387628 0.176258 0.168239
H2    H     H_    0.738817 0.112423 0.473691 0.160115
H3    H     H_    0.213416 0.112047 0.624308 0.197547
H4    H     H_    0.154246 0.110787 0.503265 0.191171
H5    H     H_    0.213314 0.889821 0.624476 0.194265
H6    H     H_    0.154273 0.889430 0.503352 0.193859
H7    H     H_    0.829061 0.659923 0.594459 0.140782
H8    H     H_    0.089664 0.659775 0.594597 0.133559
H9    H     H_    0.215478 0.432477 0.291939 0.246017
H10   H     H_    0.195091 0.267854 0.336794 0.187723
H11   H     H_    0.966044 0.435703 0.292151 0.214061
H12   H     H_    0.796487 0.307103 0.839920 0.140975
H13   H     H_    0.944370 0.270040 0.335273 0.189819
H14   H     H_    0.877743 0.328896 0.993247 0.149849
H15   H     H_    0.152431 0.556364 0.828589 0.155650
H16   H     H_    0.240965 0.522387 0.116791 0.185570
H17   H     H_    0.072937 0.567929 0.019564 0.150488
H18   H     H_    0.621526 0.344935 0.748040 0.169690
H19   H     H_    0.738745 0.887325 0.473795 0.163012
N1    N     N_R   0.852320 0.499070 0.499340 -0.183906
N2    N     N_R   0.148230 0.499110 0.499340 -0.178760
O1    O     O_R   0.381190 0.680360 0.500000 -0.579884
O2    O     O_R   0.618780 0.680320 0.499990 -0.588211
O3    O     O_R   0.323230 0.500000 0.650990 -0.583364
O4    O     O_R   0.560820 0.499960 0.650980 -0.581714
O5    O     O_R   0.381220 0.319680 0.500010 -0.582778
O6    O     O_R   0.618810 0.319640 0.500000 -0.591519
O7    O     O_R   0.439180 0.500040 0.349020 -0.537476
O8    O     O_R   0.676770 0.500000 0.349010 -0.592515
O9    O     O_3   0.417694 0.605393 0.177337 -0.601625
C33   C     C_3   0.478980 0.725196 0.161830 0.076204
H20   H     H_    0.518197 0.747680 0.076940 0.144125
H21   H     H_    0.572129 0.734340 0.195216 0.126674
C34   C     C_3   0.361106 0.818414 0.217053 -0.778959
H22   H     H_    0.319372 0.797228 0.301857 0.256243
H23   H     H_    0.408114 0.913170 0.207009 0.196437
H24   H     H_    0.268043 0.814541 0.183621 0.242421

loop_
_geom_bond_atom_site_label_1
_geom_bond_atom_site_label_2
_ccdc_geom_bond_type
C17   C18   S    
Cu1   N2    S    
Cu2   O2    S    
C2    C4    A    
C6    C7    A    
C27   O7    A    
C1    O2    A    
Cu1   O5    S    
C5    C28   A    
C27   C29   S    
C10   C30   A    
C31   C32   A    
C9    C29   A    
C30   C31   A    
C4    C8    A    
C33   C34   S    
C12   O3    A    
O9    C33   S    
C25   H9    S    
Cu1   O1    S    
C2    C3    A    
C18   H4    S    
C22   N2    A    
C33   H20   S    
C3    C10   A    
C22   H8    S    
C13   C14   A    
C24   N2    A    
C23   O5    A    
C11   C13   A    
C32   H16   S    
Cu1   O3    S    
C20   C26   S    
C26   H13   S    
C8    O9    S    
C34   H24   S    
C21   H7    S    
C5    C6    A    
C19   H5    S    
C25   H10   S    
C20   N1    A    
Cu2   O8    S    
C18   H3    S    
Cu1   Cu2   S    
C7    H18   S    
Cu2   N1    S    
C16   C23   S    
C3    C7    A    
C11   C19   S    
C21   N1    A    
C10   C12   S    
Cu2   O4    S    
C4    C5    A    
C1    C13   S    
C19   H6    S    
C8    C29   A    
C30   H15   S    
C15   C16   A    
C15   H2    S    
C23   O6    A    
C14   H19   S    
C24   C25   S    
C28   H14   S    
C2    C32   A    
C18   C19   S    
C34   H22   S    
C9    H1    S    
C34   H23   S    
C14   C15   A    
C27   O8    A    
C6    H12   S    
C26   H11   S    
C25   C26   S    
C21   C22   A    
C12   O4    A    
Cu1   O7    S    
C1    O1    A    
Cu2   O6    S    
C11   C17   A    
C20   C24   A    
C9    C28   A    
C31   H17   S    
C16   C17   A    
C33   H21   S    
