data_mof_unit_6530.cif
_audit_creation_date              2012-12-11T15:47:08-0500
_audit_creation_method            fapswitch 2.2
_symmetry_space_group_name_H-M    P1
_symmetry_Int_Tables_number       1
_space_group_crystal_system       triclinic
_cell_length_a                    20.148324
_cell_length_b                    7.255012
_cell_length_c                    13.576083
_cell_angle_alpha                 89.999943
_cell_angle_beta                  102.889727
_cell_angle_gamma                 89.999874
_cell_volume                      1934.49496515

loop_
_atom_site_label
_atom_site_type_symbol
_atom_type_description
_atom_site_fract_x
_atom_site_fract_y
_atom_site_fract_z
_atom_type_partial_charge
O1    O     O_R   0.449560 0.506810 0.599700 -0.546590
O2    O     O_R   0.550440 0.006810 0.400300 -0.546589
O3    O     O_R   0.587960 0.180060 0.595760 -0.553523
O4    O     O_R   0.412040 0.680060 0.404240 -0.553524
C1    C     C_R   0.614765 0.344403 0.617689 0.811146
C2    C     C_R   0.385235 0.844403 0.382311 0.811150
O5    O     O_R   0.452380 0.177430 0.611700 -0.528503
O6    O     O_R   0.547620 0.677430 0.388300 -0.528505
O7    O     O_R   0.413900 0.001890 0.416350 -0.499431
O8    O     O_R   0.586100 0.501890 0.583650 -0.499429
C3    C     C_R   0.436588 0.346086 0.637944 0.795967
C4    C     C_R   0.563412 0.846086 0.362056 0.795976
O9    O     O_3   0.487530 0.337490 0.435890 -0.378408
O10   O     O_3   0.512470 0.837490 0.564110 -0.378407
V1    V     V_3+5 0.502310 0.064660 0.511890 1.621462
V2    V     V_3+5 0.497690 0.564660 0.488110 1.621457
C5    C     C_R   0.605975 0.959231 0.114207 0.693343
C6    C     C_R   0.394023 0.459258 0.885789 0.693348
H1    H     H_    0.515756 0.966132 0.173009 0.181789
H2    H     H_    0.484241 0.466160 0.826986 0.181785
C7    C     C_R   0.601231 0.859723 0.282135 -0.272086
C8    C     C_R   0.398769 0.359724 0.717866 -0.272082
C9    C     C_R   0.927316 0.844752 0.313675 0.511686
C10   C     C_R   0.072684 0.344770 0.686324 0.511687
C11   C     C_R   0.891136 0.857670 0.389070 -0.214288
C12   C     C_R   0.108865 0.357688 0.610930 -0.214292
C13   C     C_R   0.820676 0.877409 0.364690 0.680590
C14   C     C_R   0.179326 0.377414 0.635311 0.680589
C15   C     C_R   0.783805 0.872687 0.262340 -0.083809
C16   C     C_R   0.216195 0.372683 0.737660 -0.083802
C17   C     C_R   0.821358 0.880387 0.185234 -0.236595
C18   C     C_R   0.178642 0.380373 0.814766 -0.236599
C19   C     C_R   0.711206 0.874282 0.234846 -0.107119
C20   C     C_R   0.288794 0.374282 0.765155 -0.107116
C21   C     C_R   0.677367 0.926828 0.134818 -0.173575
C22   C     C_R   0.322632 0.426840 0.865180 -0.173570
C23   C     C_R   0.715604 0.943129 0.059088 0.038069
C24   C     C_R   0.284394 0.443131 0.940910 0.038063
C25   C     C_R   0.786226 0.912475 0.084240 0.634713
C26   C     C_R   0.213774 0.412444 0.915760 0.634718
C27   C     C_R   0.670792 0.821235 0.303334 0.676656
C28   C     C_R   0.329209 0.321230 0.696668 0.676665
C29   C     C_R   0.569553 0.932919 0.188865 -0.287395
C30   C     C_R   0.430445 0.432939 0.811132 -0.287397
C31   C     C_R   0.893633 0.861512 0.212210 -0.220971
C32   C     C_R   0.106367 0.361511 0.787789 -0.220968
H3    H     H_    0.918247 0.859007 0.467501 0.209473
H4    H     H_    0.081754 0.359035 0.532499 0.209473
C33   C     C_R   0.226093 0.017536 0.198695 0.529796
C34   C     C_R   0.773908 0.517540 0.801301 0.529781
C35   C     C_R   0.291090 0.013669 0.262364 0.569154
C36   C     C_R   0.708911 0.513673 0.737631 0.569157
C37   C     C_R   0.316456 0.850967 0.313597 -0.348531
C38   C     C_R   0.683544 0.350967 0.686403 -0.348536
C39   C     C_R   0.275099 0.692595 0.299022 -0.276399
C40   C     C_R   0.724900 0.192592 0.700982 -0.276403
H5    H     H_    0.292819 0.565278 0.337744 0.247577
H6    H     H_    0.707179 0.065273 0.662262 0.247583
C41   C     C_R   0.209870 0.696139 0.235940 0.655869
C42   C     C_R   0.790129 0.196136 0.764063 0.655887
C43   C     C_R   0.184179 0.859039 0.184608 -0.405060
C44   C     C_R   0.815821 0.359040 0.815392 -0.405055
O11   O     O_R   0.913920 0.203370 0.916260 -0.496144
O12   O     O_R   0.086080 0.703370 0.083740 -0.496153
O13   O     O_R   0.047620 0.535540 0.888290 -0.546456
O14   O     O_R   0.952380 0.035540 0.111710 -0.546447
C45   C     C_R   0.064294 0.368365 0.862918 0.904306
C46   C     C_R   0.935705 0.868366 0.137080 0.904308
O15   O     O_R   0.912040 0.532780 0.904220 -0.504226
O16   O     O_R   0.087960 0.032780 0.095780 -0.504220
O17   O     O_R   0.949550 0.708160 0.099720 -0.541255
O18   O     O_R   0.050450 0.208160 0.900280 -0.541249
C47   C     C_R   0.885305 0.364878 0.883196 0.810710
C48   C     C_R   0.114695 0.864878 0.116804 0.810706
O19   O     O_3   0.012480 0.375300 0.064060 -0.373734
O20   O     O_3   0.987520 0.875300 0.935940 -0.373736
V3    V     V_3+5 0.997690 0.648180 0.988110 1.751847
V4    V     V_3+5 0.002310 0.148180 0.011890 1.751866
F1    F     F_    0.329485 0.169243 0.271886 -0.644076
F2    F     F_    0.670518 0.669254 0.728101 -0.644075
F3    F     F_    0.171734 0.540301 0.227198 -0.557696
F4    F     F_    0.828264 0.040295 0.772807 -0.557687
C49   C     C_3   0.682254 0.986852 0.950053 -0.489865
H7    H     H_    0.718254 0.984566 0.899144 0.263844
H8    H     H_    0.642412 0.882856 0.920194 0.247741
H9    H     H_    0.659905 0.127335 0.944677 0.204995
C50   C     C_3   0.317742 0.486876 0.049942 -0.489872
H10   H     H_    0.281740 0.484597 0.100849 0.263833
H11   H     H_    0.357586 0.382890 0.079809 0.247749
H12   H     H_    0.340087 0.627364 0.055310 0.204994
F5    F     F_    0.570399 0.022620 0.023816 -0.672451
F6    F     F_    0.429596 0.522665 0.976177 -0.672450
F7    F     F_    0.697001 0.720996 0.387559 -0.621212
F8    F     F_    0.303001 0.220978 0.612448 -0.621216
F9    F     F_    0.996165 0.827983 0.339966 -0.650980
F10   F     F_    0.003835 0.328017 0.660031 -0.650983
F11   F     F_    0.790825 0.924042 0.441410 -0.596842
F12   F     F_    0.209179 0.424046 0.558593 -0.596851
F13   F     F_    0.820810 0.923115 0.009267 -0.651298
F14   F     F_    0.179191 0.423045 0.990735 -0.651278
F15   F     F_    0.205064 0.177146 0.149587 -0.562242
F16   F     F_    0.794938 0.677154 0.850406 -0.562254

loop_
_geom_bond_atom_site_label_1
_geom_bond_atom_site_label_2
_ccdc_geom_bond_type
O14   C46   A    
C50   H10   S    
C9    C31   A    
C39   C41   A    
C13   C15   A    
O12   V3    S    
O15   V3    S    
O1    C3    A    
O2    C4    A    
C2    O7    A    
O5    C3    A    
C9    F9    S    
C21   C23   A    
C10   C12   A    
C10   F10   S    
C33   F15   S    
O16   V4    S    
C15   C19   A    
C42   C44   A    
C45   O18   A    
O18   V4    S    
C7    C29   A    
C42   F4    S    
C8    C30   A    
H1    C29   S    
C20   C28   A    
O13   C45   A    
C5    F5    S    
O16   C48   A    
C34   C36   A    
C44   C47   S    
O15   C47   A    
C40   H6    S    
C11   H3    S    
C12   H4    S    
O5    V1    S    
O6    V2    S    
C24   C26   A    
C27   F7    S    
H2    C30   S    
C36   C38   A    
C37   C39   A    
O14   V4    S    
C38   C40   A    
C41   C43   A    
O13   V3    S    
C16   C20   A    
C1    C38   S    
C33   C43   A    
O20   V3    S    
O4    C2    A    
O11   C47   A    
C33   C35   A    
C4    C7    S    
C40   C42   A    
C35   C37   A    
O4    V2    S    
C5    C29   A    
C6    C30   A    
C25   F13   S    
C49   H7    S    
O6    C4    A    
C49   H9    S    
C31   C46   S    
O1    V2    S    
O2    V1    S    
C7    C27   A    
C49   H8    S    
C34   F16   S    
C39   H5    S    
C34   C44   A    
O9    V2    S    
C2    C37   S    
O17   V3    S    
O3    V1    S    
C14   F12   S    
C13   F11   S    
C28   F8    S    
C18   C32   A    
C41   F3    S    
O3    C1    A    
C26   F14   S    
C14   C16   A    
C43   C48   S    
C11   C13   A    
C3    C8    S    
C12   C14   A    
C24   C50   S    
C6    F6    S    
C50   H11   S    
O7    V1    S    
C19   C27   A    
C1    O8    A    
C23   C25   A    
O8    V2    S    
C16   C18   A    
C8    C28   A    
C46   O17   A    
C22   C24   A    
C19   C21   A    
C17   C25   A    
C20   C22   A    
C18   C26   A    
O19   V4    S    
C35   F1    S    
C32   C45   S    
C9    C11   A    
C15   C17   A    
C17   C31   A    
C50   H12   S    
O12   C48   A    
O10   V1    S    
C23   C49   S    
C5    C21   A    
C36   F2    S    
C6    C22   A    
C10   C32   A    
O11   V4    S    
