data_mof_unit_7965.cif
_audit_creation_date              2012-12-11T15:54:03-0500
_audit_creation_method            fapswitch 2.2
_symmetry_space_group_name_H-M    P1
_symmetry_Int_Tables_number       1
_space_group_crystal_system       triclinic
_cell_length_a                    10.621672
_cell_length_b                    10.716343
_cell_length_c                    17.050075
_cell_angle_alpha                 80.59318
_cell_angle_beta                  99.392022
_cell_angle_gamma                 118.568085
_cell_volume                      1673.4107045

loop_
_atom_site_label
_atom_site_type_symbol
_atom_type_description
_atom_site_fract_x
_atom_site_fract_y
_atom_site_fract_z
_atom_type_partial_charge
C1    C     C_R   0.384253 0.283609 0.632126 0.532522
C2    C     C_1   0.333298 0.185466 0.781418 -0.058894
C3    C     C_1   0.335475 0.664253 0.277784 -0.054293
C4    C     C_R   0.369269 0.654970 0.586009 0.552217
C5    C     C_1   0.323169 0.673716 0.207050 -0.056640
C6    C     C_R   0.813761 0.661472 0.153243 0.010354
C7    C     C_R   0.781676 0.532760 0.201185 0.020527
C8    C     C_R   0.773536 0.525106 0.280917 0.034702
C9    C     C_R   0.803370 0.764829 0.266690 -0.149490
C10   C     C_R   0.811286 0.773536 0.184910 -0.147068
C11   C     C_3   0.851406 0.436130 0.215653 -0.265221
C12   C     C_R   0.387507 0.832117 0.673145 0.075162
C13   C     C_3   0.840856 0.428423 0.303728 -0.267439
C14   C     C_R   0.796970 0.643713 0.316230 0.012515
C15   C     C_R   0.312552 0.145765 0.165333 -0.004726
C16   C     C_R   0.721829 0.588225 0.633265 0.537214
C17   C     C_R   0.198715 0.146078 0.195809 0.089524
C18   C     C_R   0.203026 0.153862 0.275211 0.008462
C19   C     C_R   0.427308 0.140344 0.300093 -0.154778
C20   C     C_R   0.422807 0.132860 0.218699 -0.160526
C21   C     C_3   0.130632 0.242478 0.170738 -0.047572
C22   C     C_3   0.135104 0.251925 0.258707 -0.216187
C23   C     C_R   0.370056 0.852500 0.749328 -0.154032
C24   C     C_R   0.321913 0.161220 0.327644 0.005154
C25   C     C_R   0.885940 0.699312 0.857012 0.543771
C26   C     C_R   0.281574 0.750548 0.882874 0.567020
C27   C     C_R   0.286533 0.118284 0.858284 0.540433
C28   C     C_R   0.350569 0.225104 0.400439 0.562071
C29   C     C_R   0.884479 0.690209 0.082514 0.550908
C30   C     C_R   0.313046 0.700992 0.123913 0.552286
C31   C     C_R   0.285452 0.107460 0.085293 0.547321
C32   C     C_R   0.364998 0.654156 0.360816 0.550249
C33   C     C_R   0.768077 0.620201 0.398219 0.556130
C34   C     C_3   0.137959 0.457287 0.795334 -0.020288
C35   C     C_R   0.279500 0.736333 0.798881 -0.024474
C36   C     C_R   0.183710 0.610191 0.764255 0.057436
C37   C     C_R   0.201700 0.588400 0.689946 -0.032791
C38   C     C_3   0.157959 0.433717 0.713454 -0.245915
C39   C     C_R   0.314319 0.692996 0.647146 0.048388
C40   C     C_1   0.774669 0.631035 0.712080 -0.041089
C41   C     C_1   0.820618 0.669799 0.777787 -0.035139
C42   C     C_1   0.364535 0.231968 0.714287 -0.067261
Cr1   Cr    Cr6+3 0.608440 0.389080 0.519680 1.009116
Cr2   Cr    Cr6+3 0.288640 0.400090 0.490760 1.003453
Cr3   Cr    Cr6+3 0.602940 0.710800 0.489510 1.034329
Cr4   Cr    Cr6+3 0.052530 0.947560 0.964210 1.017184
Cr5   Cr    Cr6+3 0.059970 0.626800 0.992920 1.025005
Cr6   Cr    Cr6+3 0.373320 0.938440 0.995370 1.017281
H1    H     H_    0.764672 0.320732 0.329144 0.141594
H2    H     H_    0.987601 0.165802 0.073381 0.257236
H3    H     H_    0.932286 0.229522 0.135847 0.220343
H4    H     H_    0.198885 0.345003 0.136458 0.132738
H5    H     H_    0.209024 0.361361 0.275661 0.139511
H6    H     H_    0.027463 0.202045 0.281596 0.154698
H7    H     H_    0.434917 0.956269 0.771547 0.138373
H8    H     H_    0.956028 0.273462 0.821734 0.229609
H9    H     H_    0.921218 0.400083 0.765419 0.250886
H10   H     H_    0.213249 0.442018 0.844841 0.161879
H11   H     H_    0.248549 0.409125 0.715253 0.124737
H12   H     H_    0.517875 0.140681 0.339957 0.135364
H13   H     H_    0.056867 0.363410 0.678705 0.154423
H14   H     H_    0.829765 0.872473 0.148653 0.174661
H15   H     H_    0.505757 0.118985 0.197644 0.141151
H16   H     H_    0.807466 0.853914 0.291246 0.146491
H17   H     H_    0.965395 0.489338 0.201726 0.167411
H18   H     H_    0.586851 0.995919 0.659262 0.230239
H19   H     H_    0.449263 0.025717 0.612149 0.260360
H20   H     H_    0.781691 0.332428 0.190288 0.129100
H21   H     H_    0.947474 0.479489 0.339100 0.144010
N1    N     N_3   0.487036 0.950296 0.625362 -0.588849
N2    N     N_3   0.983158 0.167380 0.133929 -0.630941
N3    N     N_3   0.987753 0.382941 0.813735 -0.590116
O1    O     O_R   0.754020 0.497590 0.609930 -0.510191
O2    O     O_R   0.406180 0.826930 0.920660 -0.516162
O3    O     O_R   0.358620 0.062870 0.901950 -0.516739
O4    O     O_R   0.481420 0.271390 0.600630 -0.517743
O5    O     O_R   0.163910 0.085460 0.050210 -0.513954
O6    O     O_R   0.935200 0.815170 0.045770 -0.499088
O7    O     O_R   0.916120 0.596690 0.069430 -0.524636
O8    O     O_R   0.192310 0.631200 0.086170 -0.509445
O9    O     O_R   0.406770 0.819480 0.096420 -0.502773
O10   O     O_R   0.359170 0.055960 0.064880 -0.504578
O11   O     O_3   0.161940 0.837600 0.984160 -0.272909
O12   O     O_R   0.295080 0.533620 0.397890 -0.512432
O13   O     O_R   0.263810 0.254550 0.589590 -0.497057
O14   O     O_R   0.300820 0.531200 0.560890 -0.525514
O15   O     O_R   0.491480 0.744020 0.564270 -0.479061
O16   O     O_R   0.726290 0.693800 0.583010 -0.484000
O17   O     O_R   0.747830 0.500190 0.434090 -0.511026
O18   O     O_R   0.475680 0.273800 0.437630 -0.497154
O19   O     O_R   0.257620 0.257160 0.413750 -0.518774
O20   O     O_R   0.485280 0.746620 0.388440 -0.505452
O21   O     O_R   0.720550 0.696220 0.420010 -0.499299
O22   O     O_3   0.500010 0.499990 0.499980 -0.283437
O23   O     O_R   0.163320 0.092900 0.874450 -0.509614
O24   O     O_R   0.934650 0.822080 0.882840 -0.495547
O25   O     O_R   0.915520 0.604140 0.893670 -0.497012
O26   O     O_R   0.191760 0.638110 0.923230 -0.478222

loop_
_geom_bond_atom_site_label_1
_geom_bond_atom_site_label_2
_ccdc_geom_bond_type
Cr1   O1    S    
C8    C13   S    
C9    H16   S    
C27   O23   A    
C19   C20   A    
Cr5   O7    S    
H2    N2    S    
Cr3   O21   S    
C14   C33   S    
C7    C8    A    
C22   H6    S    
C4    O15   A    
H18   N1    S    
C7    C11   S    
C12   C23   A    
Cr1   O17   S    
Cr5   O26   S    
C21   N2    S    
C18   C24   A    
C36   C37   A    
Cr3   O15   S    
C27   O3    A    
C4    O14   A    
Cr1   O22   S    
Cr6   O9    S    
Cr3   O20   S    
C29   O6    A    
C35   C36   A    
H8    N3    S    
C2    C27   S    
Cr5   O11   S    
C9    C10   A    
C38   H13   S    
C30   O8    A    
C20   H15   S    
C34   C38   S    
C21   C22   S    
Cr6   O3    S    
C10   H14   S    
H3    N2    S    
Cr5   O8    S    
Cr2   O14   S    
Cr3   O22   S    
C31   O5    A    
C22   H5    S    
C1    O13   A    
C15   C20   A    
C32   O12   A    
Cr1   O18   S    
Cr4   O23   S    
C16   O1    A    
Cr6   O2    S    
Cr3   O16   S    
C25   C41   S    
Cr4   O6    S    
Cr2   O12   S    
C17   C21   S    
C38   H11   S    
C9    C14   A    
C37   C38   S    
C33   O17   A    
C26   C35   S    
C29   O7    A    
C4    C39   S    
C17   C18   A    
C15   C31   S    
C31   O10   A    
Cr2   O19   S    
C16   C40   S    
C13   H1    S    
C25   O25   A    
C40   C41   T    
C26   O26   A    
C23   C35   A    
Cr2   O13   S    
C34   N3    S    
C11   H20   S    
C16   O16   A    
C5    C30   S    
Cr1   O4    S    
C15   C17   A    
C12   N1    S    
C8    C14   A    
C18   C22   S    
C1    O4    A    
C24   C28   S    
C3    C5    T    
C33   O21   A    
C6    C10   A    
Cr4   O5    S    
C23   H7    S    
C6    C7    A    
C19   H12   S    
Cr5   O25   S    
Cr6   O11   S    
H19   N1    S    
C12   C39   A    
C19   C24   A    
C37   C39   A    
C11   C13   S    
C32   O20   A    
C13   H21   S    
C2    C42   T    
C26   O2    A    
Cr6   O10   S    
C28   O19   A    
C34   C36   S    
C21   H4    S    
H9    N3    S    
C3    C32   S    
Cr2   O22   S    
Cr4   O11   S    
C1    C42   S    
C6    C29   S    
Cr4   O24   S    
C25   O24   A    
C34   H10   S    
C28   O18   A    
C30   O9    A    
C11   H17   S    
