data_mof_unit_37375.cif
_audit_creation_date              2012-12-10T17:23:39-0500
_audit_creation_method            fapswitch 2.2
_symmetry_space_group_name_H-M    P1
_symmetry_Int_Tables_number       1
_space_group_crystal_system       triclinic
_cell_length_a                    9.706208
_cell_length_b                    10.926239
_cell_length_c                    17.323249
_cell_angle_alpha                 96.705971
_cell_angle_beta                  85.951891
_cell_angle_gamma                 89.790264
_cell_volume                      1819.91865268

loop_
_atom_site_label
_atom_site_type_symbol
_atom_type_description
_atom_site_fract_x
_atom_site_fract_y
_atom_site_fract_z
_atom_type_partial_charge
C1    C     C_R   0.498286 0.737929 0.508073 0.812985
C2    C     C_R   0.348694 0.499599 0.778521 -0.170261
C3    C     C_R   0.411278 0.526660 0.149080 -0.161517
C4    C     C_R   0.406871 0.532927 0.229615 -0.097352
C5    C     C_R   0.653681 0.497327 0.222808 -0.274123
C6    C     C_R   0.659360 0.490575 0.141606 0.187594
C7    C     C_R   0.536522 0.502297 0.104307 0.172837
C8    C     C_2   0.462410 0.563025 0.982588 -0.210432
C9    C     C_2   0.537385 0.485883 0.018894 0.159713
C10   C     C_R   0.526867 0.512435 0.266776 -0.051684
C11   C     C_R   0.242935 0.884905 0.558827 -0.104814
C12   C     C_R   0.481869 0.503033 0.649857 0.836885
C13   C     C_R   0.114923 0.935825 0.550696 -0.097824
C14   C     C_R   0.108800 0.047220 0.521134 -0.135346
C15   C     C_R   0.228294 0.113705 0.508965 -0.080727
C16   C     C_R   0.362077 0.063752 0.517305 0.067686
C17   C     C_R   0.366005 0.939458 0.532331 0.068118
C18   C     C_R   0.492886 0.873823 0.522454 -0.168408
C19   C     C_R   0.615155 0.939817 0.525434 -0.192279
C20   C     C_R   0.612496 0.067320 0.529066 0.347272
C21   C     C_R   0.490525 0.129914 0.514555 -0.193080
C22   C     C_R   0.874678 0.369985 0.371981 0.183591
C23   C     C_R   0.498102 0.262852 0.504036 0.882971
C24   C     C_R   0.948149 0.357380 0.299801 -0.385779
C25   C     C_R   0.088735 0.368240 0.295182 0.335712
C26   C     C_R   0.155802 0.382629 0.364574 0.353687
C27   C     C_R   0.082883 0.438675 0.435910 -0.081468
C28   C     C_R   0.933423 0.435098 0.437918 0.095865
C29   C     C_R   0.918132 0.567074 0.556087 0.412539
C30   C     C_R   0.063640 0.559521 0.559449 0.383229
C31   C     C_R   0.518111 0.504838 0.350804 0.838026
C32   C     C_R   0.473555 0.516586 0.735203 -0.109604
C33   C     C_R   0.591443 0.552328 0.774142 -0.122817
C34   C     C_R   0.584961 0.571967 0.854630 -0.202890
C35   C     C_R   0.461962 0.551834 0.897822 0.059965
C36   C     C_R   0.342410 0.517297 0.859880 0.420210
Cu1   Cu    Cu3+1 0.359340 0.500010 0.500010 1.024545
Cu2   Cu    Cu3+1 0.640660 0.499990 0.499990 1.054837
H1    H     H_    0.689123 0.566076 0.742733 0.233769
H2    H     H_    0.712853 0.892841 0.528321 0.210912
H3    H     H_    0.246086 0.804497 0.588030 0.217150
H4    H     H_    0.021164 0.888945 0.567091 0.199489
H5    H     H_    0.011093 0.085679 0.510345 0.211117
H6    H     H_    0.205241 0.202342 0.493403 0.214023
H7    H     H_    0.899300 0.316866 0.248647 0.199296
H8    H     H_    0.308460 0.550641 0.262561 0.166175
H9    H     H_    0.748160 0.489674 0.251097 0.165420
H10   H     H_    0.315527 0.536465 0.121722 0.185710
H11   H     H_    0.256900 0.471234 0.749497 0.223627
H12   H     H_    0.400440 0.636780 0.015696 0.168612
H13   H     H_    0.676888 0.601070 0.883461 0.187582
N1    N     N_R   0.852190 0.498790 0.499250 -0.218605
N2    N     N_R   0.148060 0.498710 0.499220 -0.230767
O1    O     O_R   0.381190 0.680360 0.500010 -0.590907
O2    O     O_R   0.618760 0.680340 0.500000 -0.551974
O3    O     O_R   0.367440 0.500030 0.613600 -0.542751
O4    O     O_R   0.605010 0.500010 0.613590 -0.536432
O5    O     O_R   0.381240 0.319660 0.500000 -0.569694
O6    O     O_R   0.618810 0.319640 0.499990 -0.496426
O7    O     O_R   0.394990 0.499990 0.386410 -0.556777
O8    O     O_R   0.632560 0.499970 0.386400 -0.584203
N3    N     N_3   0.789775 0.473126 0.097379 -0.538285
H14   H     H_    0.834067 0.390999 0.109942 0.256026
H15   H     H_    0.854222 0.545270 0.116400 0.238390
Cl1   Cl    Cl    0.760348 0.143515 0.562024 -0.633407
Cl2   Cl    Cl    0.822743 0.674765 0.622862 -0.579460
N4    N     N_3   0.762533 0.287593 0.379696 -0.471795
H16   H     H_    0.803899 0.198896 0.379032 0.230321
H17   H     H_    0.702790 0.285586 0.331586 0.217828
Cl3   Cl    Cl    0.175265 0.318248 0.203681 -0.546537
Cl4   Cl    Cl    0.290076 0.272039 0.358606 -0.579292
Cl5   Cl    Cl    0.128331 0.626742 0.646510 -0.582770
N5    N     N_3   0.613484 0.382748 0.976782 -0.515420
H18   H     H_    0.693884 0.414883 0.941544 0.253043
H19   H     H_    0.547171 0.330058 0.941584 0.251024
Cl6   Cl    Cl    0.185443 0.491788 0.912617 -0.561871

loop_
_geom_bond_atom_site_label_1
_geom_bond_atom_site_label_2
_ccdc_geom_bond_type
C23   O5    A    
C16   C21   A    
C11   C13   A    
N5    H18   S    
C31   O8    A    
C35   C36   A    
C4    H8    S    
C23   O6    A    
C5    H9    S    
C34   H13   S    
C29   C30   A    
C24   H7    S    
Cu1   Cu2   S    
C15   H6    S    
C18   C19   A    
C3    C7    A    
C5    C6    A    
Cu2   N1    S    
C15   C16   A    
C3    H10   S    
C2    C32   A    
C34   C35   A    
N3    H15   S    
C36   Cl6   S    
Cu1   O3    S    
C10   C31   S    
Cu2   O2    S    
C19   C20   A    
C16   C17   A    
Cu1   O5    S    
Cu2   O8    S    
Cu1   N2    S    
C22   C28   A    
C13   C14   A    
C12   C32   S    
C26   Cl4   S    
N5    H19   S    
C9    N5    S    
C13   H4    S    
C33   C34   A    
C30   N2    A    
N4    H16   S    
C20   Cl1   S    
C24   C25   A    
C8    C9    D    
C25   C26   A    
C29   Cl2   S    
N4    H17   S    
C8    C35   S    
C31   O7    A    
C1    O1    A    
N3    H14   S    
C2    H11   S    
Cu2   O4    S    
C17   C18   A    
C1    C18   S    
C33   H1    S    
C12   O3    A    
Cu1   O1    S    
C21   C23   S    
C26   C27   A    
C22   C24   A    
C12   O4    A    
C4    C10   A    
C3    C4    A    
C8    H12   S    
C2    C36   A    
C7    C9    S    
C11   C17   A    
C30   Cl5   S    
C27   N2    A    
C6    C7    A    
C32   C33   A    
C6    N3    S    
C1    O2    A    
C5    C10   A    
C28   N1    A    
C11   H3    S    
C22   N4    S    
Cu1   O7    S    
C19   H2    S    
Cu2   O6    S    
C20   C21   A    
C27   C28   A    
C14   C15   A    
C25   Cl3   S    
C14   H5    S    
C29   N1    A    
