data_mof_unit_27274.cif
_audit_creation_date              2013-03-05T16:02:50-0500
_audit_creation_method            fapswitch 2.2
_symmetry_space_group_name_H-M    P1
_symmetry_Int_Tables_number       1
_space_group_crystal_system       triclinic
_cell_length_a                    6.937276
_cell_length_b                    14.551728
_cell_length_c                    15.922948
_cell_angle_alpha                 90.001241
_cell_angle_beta                  89.812591
_cell_angle_gamma                 90.006643
_cell_volume                      1607.40269517

loop_
_atom_site_label
_atom_site_type_symbol
_atom_site_description
_atom_site_fract_x
_atom_site_fract_y
_atom_site_fract_z
_atom_type_partial_charge
O1    O     O_R   0.611670 0.415650 0.164070 -0.598020
O2    O     O_R   0.388330 0.915650 0.835930 -0.598033
O3    O     O_R   0.940950 0.405490 0.337780 -0.602021
O4    O     O_R   0.059050 0.905490 0.662220 -0.602090
O5    O     O_R   0.111350 0.584350 0.338470 -0.586868
O6    O     O_R   0.888650 0.084350 0.661530 -0.586635
C1    C     C_R   0.771415 0.382125 0.366254 0.940651
C2    C     C_R   0.228571 0.882106 0.633767 0.941032
O7    O     O_R   0.941380 0.404630 0.164680 -0.594966
O8    O     O_R   0.058620 0.904630 0.835320 -0.595007
O9    O     O_R   0.111780 0.583470 0.164130 -0.594560
O10   O     O_R   0.888220 0.083470 0.835870 -0.594569
C3    C     C_R   0.772670 0.382568 0.136092 0.936264
C4    C     C_R   0.227317 0.882566 0.863906 0.936232
O11   O     O_R   0.611240 0.416530 0.338400 -0.575841
O12   O     O_R   0.388760 0.916530 0.661600 -0.575819
O13   O     O_3   0.778020 0.558680 0.251290 -0.261600
O14   O     O_3   0.221980 0.058680 0.748710 -0.261291
V1    V     V_3+5 0.052840 0.489110 0.251260 1.166700
V2    V     V_3+5 0.947160 0.989110 0.748740 1.166720
O15   O     O_R   0.441500 0.594510 0.164760 -0.595386
O16   O     O_R   0.558500 0.094510 0.835240 -0.595383
C5    C     C_R   0.272830 0.616336 0.135948 0.942562
C6    C     C_R   0.727184 0.116345 0.864041 0.942595
O17   O     O_R   0.441080 0.595370 0.337860 -0.567539
O18   O     O_R   0.558920 0.095370 0.662140 -0.567091
C7    C     C_R   0.272224 0.616451 0.368140 0.897585
C8    C     C_R   0.727761 0.116388 0.631814 0.897027
V3    V     V_3+5 0.552850 0.510890 0.251270 1.188225
V4    V     V_3+5 0.447150 0.010890 0.748730 1.188386
O19   O     O_3   0.277800 0.441320 0.251250 -0.278718
O20   O     O_3   0.722200 0.941320 0.748750 -0.278842
C9    C     C_3   0.103776 0.660354 0.505064 -0.244632
C10   C     C_3   0.894527 0.159746 0.494340 -0.245337
H1    H     H_    0.961590 0.663220 0.473579 0.199102
H2    H     H_    0.037288 0.162267 0.525311 0.200092
H3    H     H_    0.121902 0.588845 0.528022 0.183231
H4    H     H_    0.875020 0.088260 0.471521 0.182200
C11   C     C_3   0.100700 0.729039 0.579761 -0.370609
C12   C     C_3   0.897046 0.228361 0.419569 -0.371122
H5    H     H_    0.141638 0.692734 0.638565 0.166887
H6    H     H_    0.853707 0.192221 0.361009 0.167514
H7    H     H_    0.951046 0.754963 0.588536 0.164112
H8    H     H_    0.047002 0.253558 0.409990 0.164203
H9    H     H_    0.066739 0.778585 0.371414 0.177424
H10   H     H_    0.935518 0.277677 0.628246 0.177771
H11   H     H_    0.042390 0.882881 0.479223 0.157144
H12   H     H_    0.961434 0.381427 0.520072 0.157448
C13   C     C_3   0.206841 0.782389 0.405087 -0.493212
C14   C     C_3   0.795253 0.282070 0.594762 -0.492415
C15   C     C_3   0.460290 0.696486 0.485804 0.311069
C16   C     C_3   0.539064 0.197107 0.514736 0.310309
C17   C     C_3   0.262071 0.686299 0.439817 -0.068472
C18   C     C_3   0.737849 0.186223 0.560128 -0.067893
H13   H     H_    0.567489 0.722018 0.438940 0.055979
H14   H     H_    0.432676 0.222534 0.561987 0.056033
C19   C     C_3   0.241230 0.810428 0.563705 0.031682
C20   C     C_3   0.758716 0.310426 0.436306 0.032690
C21   C     C_3   0.190824 0.853937 0.477335 -0.292432
C22   C     C_3   0.812136 0.353536 0.522497 -0.294217
C23   C     C_3   0.448140 0.769581 0.556928 -0.468440
C24   C     C_3   0.551009 0.270635 0.443969 -0.466994
H15   H     H_    0.490926 0.739741 0.618458 0.179519
H16   H     H_    0.505674 0.241466 0.382519 0.179724
H17   H     H_    0.553305 0.825452 0.543098 0.158402
H18   H     H_    0.447692 0.327008 0.458678 0.159253
H19   H     H_    0.316856 0.805528 0.358641 0.163280
H20   H     H_    0.686004 0.305681 0.641348 0.163247
H21   H     H_    0.291594 0.911146 0.463567 0.223457
H22   H     H_    0.713505 0.411419 0.536696 0.223783
H23   H     H_    0.481147 0.589634 0.757963 0.168841
H24   H     H_    0.518512 0.089643 0.241970 0.169456
C25   C     C_R   0.106982 0.928359 0.032923 -0.183754
C26   C     C_R   0.893026 0.428381 0.967081 -0.183757
C27   C     C_R   0.050470 0.952961 0.113915 -0.106931
C28   C     C_R   0.949578 0.452986 0.886093 -0.106963
C29   C     C_R   0.062856 0.889671 0.179022 -0.122933
C30   C     C_R   0.937253 0.389688 0.820987 -0.122912
C31   C     C_R   0.131938 0.801312 0.163622 -0.170429
C32   C     C_R   0.868175 0.301320 0.836381 -0.170471
C33   C     C_R   0.189901 0.774152 0.082019 0.124271
C34   C     C_R   0.810153 0.274160 0.917978 0.124280
C35   C     C_R   0.177091 0.838978 0.015265 0.108936
C36   C     C_R   0.822920 0.338991 0.984733 0.108993
C37   C     C_R   0.262913 0.684617 0.066664 -0.318366
C38   C     C_R   0.737124 0.184622 0.933327 -0.318391
C39   C     C_R   0.323097 0.659898 0.984481 0.108635
C40   C     C_R   0.676881 0.159900 0.015499 0.108683
C41   C     C_R   0.310027 0.724684 0.917669 0.122462
C42   C     C_R   0.689887 0.224692 0.082311 0.122393
C43   C     C_R   0.237150 0.814229 0.933080 -0.312972
C44   C     C_R   0.762809 0.314239 0.066911 -0.313009
C45   C     C_R   0.393573 0.570588 0.966891 -0.180377
C46   C     C_R   0.606404 0.070580 0.033078 -0.180194
C47   C     C_R   0.450295 0.546006 0.885931 -0.117288
C48   C     C_R   0.549586 0.045999 0.114024 -0.117575
C49   C     C_R   0.437556 0.609214 0.820773 -0.123343
C50   C     C_R   0.562212 0.109220 0.179177 -0.123522
C51   C     C_R   0.367749 0.697473 0.836006 -0.167385
C52   C     C_R   0.632041 0.197486 0.163959 -0.167325
H25   H     H_    0.096439 0.980471 0.984704 0.124919
H26   H     H_    0.903526 0.480498 0.015300 0.124910
H27   H     H_    0.998002 0.021726 0.126298 0.137971
H28   H     H_    0.002034 0.521758 0.873714 0.138007
H29   H     H_    0.019659 0.909254 0.241926 0.128548
H30   H     H_    0.980490 0.409270 0.758088 0.128828
H31   H     H_    0.140637 0.754876 0.216454 0.101488
H32   H     H_    0.859528 0.254878 0.783548 0.101547
H33   H     H_    0.404378 0.518539 0.015157 0.124472
H34   H     H_    0.595671 0.018522 0.984814 0.124448
H35   H     H_    0.503205 0.477308 0.873605 0.140390
H36   H     H_    0.496674 0.977295 0.126342 0.140412
H37   H     H_    0.358389 0.743694 0.782960 0.096759
H38   H     H_    0.641303 0.243715 0.217006 0.096993
N1    N     N_R   0.529814 0.608098 0.518195 0.218213
O21   O     O_R   0.451836 0.569842 0.583919 -0.477132
O22   O     O_R   0.673579 0.567410 0.481251 -0.477167
N2    N     N_R   0.468435 0.109024 0.482028 0.217993
O23   O     O_R   0.544259 0.071443 0.415516 -0.477657
O24   O     O_R   0.326271 0.067780 0.519644 -0.476479

loop_
_geom_bond_atom_site_label_1
_geom_bond_atom_site_label_2
_geom_bond_distance
_ccdc_geom_bond_type
C28   H28   1.082704 S    
C20   C24   1.557261 S    
O11   V3    1.994533 S    
O13   V3    1.709802 S    
C15   C23   1.555761 S    
O4    C2    1.304094 A    
V1    O19   1.708617 S    
C11   H5    1.112782 S    
H24   C50   1.082015 S    
H23   C49   1.082070 S    
O9    V1    1.993396 S    
C9    C11   1.553669 S    
C26   C28   1.393475 A    
C41   C51   1.415818 A    
C10   C12   1.553909 S    
C28   C30   1.389583 A    
O3    C1    1.304155 A    
C30   C32   1.393695 A    
C19   C21   1.554912 S    
C20   C22   1.554879 S    
N1    O21   1.301547 A    
C11   C19   1.554526 S    
O17   V3    2.001654 S    
O10   C6    1.294189 A    
C23   H15   1.112862 S    
O7    C3    1.297484 A    
N2    O23   1.301447 A    
C24   H16   1.112852 S    
C14   H20   1.113133 S    
C33   C35   1.424166 A    
O5    C7    1.300087 A    
O7    V1    2.004089 S    
O6    C8    1.300218 A    
O8    V2    2.004236 S    
N1    O22   1.299055 A    
C48   C50   1.389541 A    
O3    V1    1.993471 S    
O14   V4    1.709949 S    
H9    C13   1.112906 S    
C41   C43   1.418821 A    
C13   H19   1.113130 S    
C1    C20   1.529680 S    
O14   V2    2.158513 S    
C26   H26   1.081797 S    
C29   C31   1.393698 A    
C2    O12   1.298215 A    
C7    C17   1.529739 S    
C27   H27   1.082705 S    
C25   C27   1.393470 A    
C42   C52   1.415817 A    
C49   C51   1.393630 A    
C16   C18   1.567097 S    
H12   C22   1.112911 S    
N2    O24   1.299083 A    
C37   C39   1.418644 A    
C9    C17   1.555709 S    
C40   C46   1.416241 A    
C12   C20   1.554530 S    
C24   H18   1.113792 S    
C38   C40   1.418612 A    
C52   H38   1.081873 S    
C32   C34   1.415227 A    
O8    C4    1.297478 A    
C31   C33   1.415218 A    
C8    C18   1.529706 S    
O13   V1    2.158721 S    
C11   H7    1.113018 S    
C1    O11   1.298245 A    
C34   C38   1.418840 A    
O15   V3    1.995515 S    
C46   H34   1.081812 S    
C15   N1    1.467909 S    
C15   C17   1.567027 S    
C2    C19   1.529542 S    
C48   H36   1.082682 S    
C42   C44   1.418824 A    
C22   H22   1.108102 S    
O10   V2    1.993419 S    
O1    V3    2.002864 S    
C31   H31   1.080888 S    
C14   C18   1.552195 S    
C46   C48   1.393285 A    
C27   C29   1.389581 A    
C21   H21   1.108451 S    
C40   C42   1.424576 A    
C10   C18   1.555576 S    
C34   C36   1.424159 A    
O15   C5    1.297733 A    
C3    C44   1.485666 S    
O16   C6    1.297723 A    
O1    C3    1.294040 A    
O6    V2    2.004425 S    
V2    O20   1.708469 S    
C32   H32   1.080898 S    
C25   H25   1.081797 S    
O16   V4    1.995371 S    
C10   H4    1.110277 S    
C26   C36   1.416521 A    
C12   H6    1.112740 S    
C51   H37   1.081866 S    
C47   C49   1.389568 A    
C19   C23   1.557080 S    
O5    V1    2.004318 S    
O17   C7    1.301971 A    
C35   C43   1.418528 A    
H10   C14   1.112923 S    
O18   C8    1.301876 A    
C13   C21   1.555289 S    
O2    V4    2.002842 S    
C30   H30   1.082725 S    
C14   C22   1.555117 S    
C29   H29   1.082718 S    
V3    O19   2.159924 S    
C47   H35   1.082681 S    
V4    O20   2.160133 S    
C6    C38   1.486415 S    
C13   C17   1.552212 S    
C39   C45   1.416239 A    
O9    C5    1.294195 A    
C9    H1    1.108732 S    
C10   H2    1.108408 S    
C15   H13   1.115450 S    
O2    C4    1.294032 A    
C50   C52   1.393631 A    
C9    H3    1.110226 S    
C4    C43   1.485686 S    
H11   C21   1.112893 S    
O4    V2    1.993545 S    
C23   H17   1.113807 S    
C12   H8    1.112998 S    
C45   C47   1.393320 A    
C5    C37   1.486481 S    
C39   C41   1.424592 A    
C16   C24   1.555897 S    
C36   C44   1.418542 A    
O12   V4    1.994427 S    
C25   C35   1.416521 A    
C33   C37   1.418856 A    
C16   H14   1.115388 S    
C45   H33   1.081814 S    
O18   V4    2.001579 S    
C16   N2    1.468239 S    
