data_mof_unit_56120.cif
_audit_creation_date              2012-10-26T19:20:19-0400
_audit_creation_method            fapswitch 2.2
_symmetry_space_group_name_H-M    P1
_symmetry_Int_Tables_number       1
_space_group_crystal_system       triclinic
_cell_length_a                    15.872694
_cell_length_b                    10.893913
_cell_length_c                    9.734598
_cell_angle_alpha                 88.790194
_cell_angle_beta                  89.860783
_cell_angle_gamma                 90.389137
_cell_volume                      1682.84567646

loop_
_atom_site_label
_atom_site_type_symbol
_atom_type_description
_atom_site_fract_x
_atom_site_fract_y
_atom_site_fract_z
_atom_type_partial_charge
Br1   Br    Br    0.070208 0.313109 0.264643 -0.149888
Br2   Br    Br    0.367643 0.323607 0.150247 -0.258579
Br3   Br    Br    0.602861 0.566786 0.089227 -0.259701
Br4   Br    Br    0.929097 0.685978 0.733231 -0.271010
C1    C     C_R   0.506661 0.265981 0.501669 0.583992
C2    C     C_2   0.487590 0.865282 0.490070 0.163431
C3    C     C_2   0.551555 0.064122 0.413120 0.243825
C4    C     C_R   0.340056 0.499367 0.500123 0.561330
C5    C     C_2   0.518820 0.134400 0.511197 -0.041280
C6    C     C_2   0.473882 0.408771 0.924993 0.071959
C7    C     C_2   0.457075 0.423646 0.075574 0.316068
C8    C     C_R   0.497612 0.734169 0.498216 0.537996
C9    C     C_R   0.659957 0.500039 0.499844 0.552731
C10   C     C_3   0.971622 0.385751 0.526956 0.200333
C11   C     C_3   0.028063 0.422690 0.403077 0.133679
C12   C     C_3   0.083623 0.499424 0.499612 -0.091570
C13   C     C_1   0.250560 0.499228 0.500267 0.108183
C14   C     C_1   0.749461 0.499643 0.499432 0.112028
C15   C     C_3   0.027472 0.462030 0.622916 0.135355
C16   C     C_3   0.971980 0.576015 0.595722 0.099050
C17   C     C_3   0.916433 0.499226 0.499203 -0.075844
C18   C     C_3   0.028440 0.612963 0.471809 0.189069
C19   C     C_3   0.972583 0.536662 0.375880 0.174778
C20   C     C_1   0.175163 0.499292 0.500004 0.112504
C21   C     C_1   0.824870 0.499365 0.499239 0.119446
C22   C     C_2   0.552958 0.931101 0.438246 -0.113390
Cu1   Cu    Cu3+1 0.500020 0.500020 0.638630 1.065382
Cu2   Cu    Cu3+1 0.499980 0.499980 0.361370 1.213944
H1    H     H_    0.502484 0.092129 0.609737 0.133563
H2    H     H_    0.692928 0.052730 0.117137 0.399394
H3    H     H_    0.458792 0.321518 0.879150 0.179469
H4    H     H_    0.495256 0.584880 0.887496 0.256992
H5    H     H_    0.610643 0.883838 0.411208 0.167930
H6    H     H_    0.986736 0.057958 0.609292 0.402198
H7    H     H_    0.019307 0.706873 0.101577 0.392237
H8    H     H_    0.014889 0.937153 0.371469 0.403216
H9    H     H_    0.104014 0.598463 0.837462 0.375312
H10   H     H_    0.310639 0.762038 0.579765 0.354192
N1    N     N_2   0.499090 0.498660 0.846910 -0.340542
N2    N     N_2   0.499070 0.498630 0.153040 -0.118434
O1    O     O_R   0.500010 0.321960 0.617040 -0.518364
O2    O     O_2   0.876981 0.195746 0.444884 -0.203567
O3    O     O_3   0.012815 0.137026 0.579552 -0.422664
O4    O     O_2   0.881888 0.481552 0.152553 -0.145196
O5    O     O_2   0.879105 0.694944 0.225959 -0.207905
O6    O     O_3   0.014887 0.616146 0.105075 -0.413815
O7    O     O_2   0.114446 0.808441 0.561754 -0.202847
O8    O     O_2   0.127983 0.761230 0.317327 -0.209951
O9    O     O_3   0.987950 0.858654 0.401056 -0.439798
O10   O     O_2   0.994366 0.396651 0.886254 -0.113925
O11   O     O_2   0.111848 0.294024 0.773299 -0.144300
O12   O     O_R   0.499990 0.321920 0.382900 -0.421447
O13   O     O_3   0.133984 0.519329 0.846768 -0.448271
O14   O     O_2   0.371108 0.971672 0.649561 -0.260143
O15   O     O_2   0.364406 0.018547 0.402561 -0.177332
O16   O     O_3   0.314079 0.803980 0.488625 -0.436529
O17   O     O_2   0.541703 0.163387 0.159888 -0.231329
O18   O     O_2   0.659685 0.230401 0.303318 -0.233680
O19   O     O_3   0.665757 0.013267 0.198611 -0.467643
O20   O     O_R   0.379090 0.500010 0.617050 -0.499928
O21   O     O_R   0.379060 0.499970 0.382910 -0.464390
O22   O     O_R   0.500010 0.678080 0.617100 -0.506658
O23   O     O_R   0.499990 0.678040 0.382960 -0.473109
O24   O     O_R   0.620940 0.500030 0.617090 -0.481289
O25   O     O_R   0.620910 0.499990 0.382950 -0.441770
O26   O     O_2   0.880921 0.234779 0.692269 -0.205626
S1    S     S_3+6 0.931861 0.234742 0.561950 0.125346
S2    S     S_3+6 0.933651 0.583679 0.211333 0.156434
S3    S     S_3+6 0.068414 0.763966 0.437418 0.110684
S4    S     S_3+6 0.066416 0.413645 0.787146 0.163567
S5    S     S_3+6 0.382923 0.920286 0.508738 0.082275
S6    S     S_3+6 0.605058 0.123060 0.265578 0.093825

loop_
_geom_bond_atom_site_label_1
_geom_bond_atom_site_label_2
_ccdc_geom_bond_type
C19   S2    S    
C4    O20   A    
C10   S1    S    
C1    O12   A    
C1    C5    S    
Br1   C11   S    
Cu1   O22   S    
C8    O22   A    
Cu1   O1    S    
C18   S3    S    
C4    C13   S    
C5    H1    S    
C4    O21   A    
O16   S5    S    
H9    O13   S    
Cu2   O21   S    
O5    S2    D    
C11   C19   S    
Cu2   O25   S    
O10   S4    D    
C12   C20   S    
O9    S3    S    
C7    N2    D    
H2    O19   S    
Br2   C7    S    
O6    S2    S    
Cu2   O12   S    
O18   S6    D    
C2    C22   D    
C9    O24   A    
C3    C22   S    
C9    C14   S    
C12   C15   S    
O13   S4    S    
C6    H3    S    
C10   C17   S    
O11   S4    D    
C16   C18   S    
Br3   N2    S    
O26   S1    D    
Cu1   O20   S    
C17   C19   S    
O17   S6    D    
C2    C8    S    
C2    S5    S    
C9    O25   A    
C14   C21   T    
O4    S2    D    
C13   C20   T    
O2    S1    D    
O14   S5    D    
C1    O1    A    
C11   C12   S    
Br4   C16   S    
Cu2   O23   S    
C3    C5    D    
Cu1   Cu2   S    
H10   O16   S    
C16   C17   S    
O8    S3    D    
O3    S1    S    
C17   C21   S    
C6    C7    S    
H4    N1    S    
H6    O3    S    
C3    S6    S    
Cu1   O24   S    
C8    O23   A    
Cu2   N2    S    
C18   C19   S    
O7    S3    D    
C15   S4    S    
C12   C18   S    
C22   H5    S    
C10   C11   S    
H7    O6    S    
O19   S6    S    
C10   C15   S    
O15   S5    D    
H8    O9    S    
C15   C16   S    
Cu1   N1    S    
C6    N1    D    
