data_mof_unit_43392.cif
_audit_creation_date              2013-03-05T16:46:56-0500
_audit_creation_method            fapswitch 2.2
_symmetry_space_group_name_H-M    P1
_symmetry_Int_Tables_number       1
_space_group_crystal_system       triclinic
_cell_length_a                    18.24499
_cell_length_b                    18.260159
_cell_length_c                    18.387612
_cell_angle_alpha                 120.050808
_cell_angle_beta                  89.93878
_cell_angle_gamma                 119.984229
_cell_volume                      4331.71729023

loop_
_atom_site_label
_atom_site_type_symbol
_atom_site_description
_atom_site_fract_x
_atom_site_fract_y
_atom_site_fract_z
_atom_type_partial_charge
Zn1   Zn    Zn3+2 0.456040 0.586770 0.543190 0.991947
Zn2   Zn    Zn3+2 0.456820 0.413240 0.543960 0.970450
Zn3   Zn    Zn3+2 0.631110 0.586750 0.543190 1.018679
Zn4   Zn    Zn3+2 0.456040 0.413240 0.369660 1.059592
O1    O     O_3   0.500000 0.500000 0.500000 -0.510582
O2    O     O_R   0.383400 0.268380 0.323710 -0.583433
O3    O     O_R   0.555060 0.731630 0.615290 -0.639472
O4    O     O_R   0.383950 0.439280 0.616600 -0.646050
O5    O     O_R   0.677590 0.560710 0.444390 -0.609537
O6    O     O_R   0.556370 0.439260 0.616600 -0.650215
O7    O     O_R   0.382640 0.439290 0.322940 -0.644274
O8    O     O_R   0.678360 0.560700 0.616060 -0.635447
O9    O     O_R   0.382640 0.560750 0.444390 -0.633142
O10   O     O_R   0.383400 0.560740 0.616060 -0.641473
O11   O     O_R   0.555060 0.439270 0.322940 -0.588675
O12   O     O_R   0.383950 0.268380 0.445700 -0.644605
O13   O     O_R   0.677590 0.731610 0.615290 -0.617720
C1    C     C_R   0.359920 0.220044 0.360850 0.829919
C2    C     C_R   0.641019 0.780986 0.640106 0.785868
C3    C     C_R   0.358927 0.500180 0.640384 0.790300
C4    C     C_R   0.640764 0.502319 0.359622 0.781987
C5    C     C_R   0.641820 0.500619 0.640624 0.801225
C6    C     C_R   0.357916 0.499817 0.359255 0.904531
C7    C     C_3   0.345792 0.519709 0.233436 0.072476
H1    H     H_    0.353753 0.456742 0.191060 0.091429
C8    C     C_3   0.281829 0.514787 0.171687 0.090878
H2    H     H_    0.258501 0.444960 0.103296 0.135140
C9    C     C_3   0.204161 0.394823 0.249642 0.237981
C10   C     C_3   0.287014 0.587368 0.358618 -0.447506
C11   C     C_3   0.301143 0.500219 0.300937 -0.129701
H3    H     H_    0.256271 0.576352 0.407553 0.183575
H4    H     H_    0.350906 0.665668 0.398776 0.279053
C12   C     C_3   0.196521 0.498422 0.199420 -0.117649
C13   C     C_3   0.142248 0.392671 0.188274 0.239915
C14   C     C_3   0.225004 0.584970 0.299837 -0.470579
H5    H     H_    0.258406 0.662340 0.312624 0.266289
H6    H     H_    0.164394 0.570559 0.320288 0.211921
H7    H     H_    0.174276 0.398960 0.303305 0.097956
H8    H     H_    0.085639 0.388916 0.214081 0.078083
C15   C     C_3   0.687253 0.942430 0.649962 0.177057
H9    H     H_    0.616052 0.916630 0.635025 0.134778
C16   C     C_3   0.747144 0.062783 0.711643 -0.439091
H10   H     H_    0.795041 0.095456 0.681413 0.203996
H11   H     H_    0.704131 0.091197 0.719749 0.164036
H12   H     H_    0.600432 0.908891 0.764374 0.235709
H13   H     H_    0.688071 0.085899 0.856317 0.221279
C17   C     C_3   0.671970 0.937579 0.783729 -0.453423
C18   C     C_3   0.799567 0.941401 0.732359 -0.336884
C19   C     C_3   0.699121 0.897649 0.699148 0.038065
H14   H     H_    0.807629 0.915524 0.773325 0.157066
H15   H     H_    0.823562 0.911096 0.676228 0.247687
C20   C     C_3   0.799706 0.102662 0.803938 0.089309
C21   C     C_3   0.731555 0.057719 0.845511 -0.344725
C22   C     C_3   0.858444 0.060652 0.789493 -0.364860
H16   H     H_    0.905062 0.087542 0.755676 0.200889
H17   H     H_    0.900075 0.091103 0.854802 0.177425
H18   H     H_    0.678598 0.907024 0.820793 0.178401
H19   H     H_    0.768135 0.084922 0.911708 0.187142
C23   C     C_3   0.684554 0.398560 0.249216 -0.490584
H20   H     H_    0.612918 0.332059 0.217205 0.269365
H21   H     H_    0.711524 0.391339 0.297630 0.234671
C24   C     C_3   0.731526 0.387983 0.177936 0.184299
H22   H     H_    0.679060 0.342034 0.112999 0.150469
H23   H     H_    0.708477 0.485208 0.111033 0.194192
C25   C     C_3   0.679148 0.533030 0.237514 0.724060
C26   C     C_3   0.801765 0.588062 0.362756 0.051266
C27   C     C_3   0.699107 0.506479 0.302853 -0.208190
H24   H     H_    0.812929 0.566293 0.406344 0.165355
C28   C     C_3   0.801003 0.498839 0.201300 -0.212257
C29   C     C_3   0.745651 0.534709 0.183693 -0.547213
C30   C     C_3   0.861146 0.579772 0.302621 0.081296
H25   H     H_    0.905595 0.655538 0.312257 0.177302
H26   H     H_    0.792925 0.614065 0.200451 0.221256
H27   H     H_    0.236169 0.218685 0.669479 0.138668
C31   C     C_R   0.285233 0.138420 0.578071 -0.124005
H28   H     H_    0.316539 0.135325 0.625468 0.146511
C32   C     C_R   0.289925 0.094950 0.491974 -0.122234
H29   H     H_    0.324969 0.058241 0.473278 0.137420
C33   C     C_R   0.249737 0.099176 0.430374 0.165947
C34   C     C_R   0.204120 0.146541 0.455649 -0.109620
H30   H     H_    0.172343 0.149803 0.408670 0.115988
C35   C     C_R   0.199411 0.189737 0.541853 -0.105511
H31   H     H_    0.164341 0.226343 0.561320 0.134077
C36   C     C_R   0.239870 0.185532 0.602906 -0.104840
C37   C     C_R   0.201675 0.944082 0.283691 -0.227583
H32   H     H_    0.161703 0.901316 0.309811 0.186507
C38   C     C_R   0.197690 0.891899 0.195200 -0.089651
C39   C     C_R   0.248782 0.947279 0.160449 -0.137340
C40   C     C_R   0.305546 0.055024 0.216707 0.266455
C41   C     C_R   0.305683 0.107459 0.305156 -0.171322
C42   C     C_R   0.253396 0.050937 0.338711 -0.047460
C43   C     C_R   0.300978 0.862763 0.038930 -0.086255
H33   H     H_    0.347105 0.873684 0.086517 0.145177
C44   C     C_R   0.297939 0.816333 0.950052 -0.094422
H34   H     H_    0.341351 0.791223 0.929080 0.142720
C45   C     C_R   0.238988 0.802564 0.888263 -0.094532
H35   H     H_    0.236836 0.767208 0.819676 0.136023
C46   C     C_R   0.182455 0.834270 0.914882 -0.105295
H36   H     H_    0.136646 0.823170 0.866875 0.139611
C47   C     C_R   0.185352 0.880785 0.003564 -0.039433
H37   H     H_    0.141671 0.905733 0.023747 0.123578
C48   C     C_R   0.244770 0.895439 0.066083 0.173933
H38   H     H_    0.992281 0.863775 0.674480 0.168495
C49   C     C_R   0.930248 0.704872 0.626892 -0.097266
H39   H     H_    0.955763 0.687325 0.571692 0.168284
C50   C     C_R   0.877065 0.628179 0.640438 -0.137830
H40   H     H_    0.862318 0.551696 0.595866 0.145236
C51   C     C_R   0.843839 0.650716 0.711911 0.152824
C52   C     C_R   0.864471 0.750580 0.769712 -0.160427
H41   H     H_    0.840062 0.769249 0.825682 0.125897
C53   C     C_R   0.917819 0.827096 0.756029 -0.132907
H42   H     H_    0.934214 0.904247 0.801044 0.159161
C54   C     C_R   0.950827 0.804348 0.684818 -0.002698
C55   C     C_R   0.841924 0.568585 0.783456 -0.258921
H43   H     H_    0.914475 0.622226 0.808060 0.175623
C56   C     C_R   0.799326 0.498456 0.805957 -0.032510
C57   C     C_R   0.704670 0.429627 0.774493 0.062069
C58   C     C_R   0.655350 0.432093 0.720066 -0.228076
H44   H     H_    0.582816 0.378660 0.695748 0.172377
C59   C     C_R   0.698089 0.502218 0.697341 -0.055561
C60   C     C_R   0.792677 0.571932 0.729934 -0.010709
C61   C     C_R   0.634960 0.254754 0.745127 0.554326
C62   C     C_R   0.592389 0.188594 0.772846 -0.217912
H45   H     H_    0.580165 0.113102 0.737143 0.177205
C63   C     C_R   0.566669 0.220437 0.848419 -0.111677
H46   H     H_    0.533997 0.169124 0.868969 0.208771
C64   C     C_R   0.583711 0.318559 0.897940 -0.120774
H47   H     H_    0.563860 0.343009 0.956556 0.204458
C65   C     C_R   0.627493 0.385732 0.872680 -0.229189
H48   H     H_    0.641781 0.462409 0.912585 0.165569
C66   C     C_R   0.654383 0.354990 0.797308 0.042786
H49   H     H_    0.278708 0.755139 0.571923 0.184615
C67   C     C_R   0.343271 0.767487 0.680395 0.378052
C68   C     C_R   0.338039 0.712937 0.715827 -0.224825
H50   H     H_    0.388360 0.751729 0.777320 0.164717
C69   C     C_R   0.267405 0.608010 0.672282 0.088815
C70   C     C_R   0.201179 0.557495 0.593487 -0.142931
H51   H     H_    0.145771 0.476915 0.559988 0.141505
C71   C     C_R   0.205802 0.611102 0.558042 -0.216432
H52   H     H_    0.154169 0.571911 0.497412 0.168743
C72   C     C_R   0.276650 0.715224 0.600704 -0.179677
C73   C     C_R   0.206206 0.548977 0.765080 -0.268047
H53   H     H_    0.173254 0.587311 0.775521 0.173204
C74   C     C_R   0.193347 0.496015 0.803615 -0.048598
C75   C     C_R   0.233988 0.442643 0.786619 0.019074
C76   C     C_R   0.289285 0.447988 0.734868 -0.276093
H54   H     H_    0.321675 0.408918 0.723754 0.175382
C77   C     C_R   0.302284 0.501202 0.696527 -0.047917
C78   C     C_R   0.259917 0.552320 0.711790 0.016885
C79   C     C_R   0.289874 0.412335 0.885718 -0.153136
H55   H     H_    0.353229 0.487145 0.916082 0.185246
C80   C     C_R   0.278600 0.349420 0.912998 -0.202324
H56   H     H_    0.333448 0.377321 0.964700 0.203079
C81   C     C_R   0.197389 0.251386 0.873696 0.379250
C82   C     C_R   0.127542 0.217860 0.806928 -0.199493
H57   H     H_    0.064692 0.142340 0.774878 0.171156
C83   C     C_R   0.139084 0.280542 0.779298 -0.180740
H58   H     H_    0.085177 0.252576 0.726523 0.150311
C84   C     C_R   0.220032 0.378630 0.819191 0.120353
Zn5   Zn    Zn3+2 0.041710 0.413240 0.959030 1.024654
Zn6   Zn    Zn3+2 0.866640 0.413270 0.959030 1.007682
Zn7   Zn    Zn3+2 0.040930 0.586780 0.958260 0.967538
Zn8   Zn    Zn3+2 0.041710 0.586770 0.132560 1.044202
O14   O     O_3   0.997750 0.500010 0.002220 -0.504298
O15   O     O_R   0.942690 0.560750 0.179280 -0.611998
O16   O     O_R   0.114340 0.439270 0.886160 -0.629024
O17   O     O_R   0.820160 0.268410 0.886930 -0.622633
O18   O     O_R   0.113800 0.731630 0.056520 -0.651645
O19   O     O_R   0.819390 0.439310 0.886160 -0.642587
O20   O     O_R   0.115110 0.560720 0.179280 -0.629395
O21   O     O_R   0.941380 0.560750 0.885620 -0.658296
O22   O     O_R   0.115110 0.439270 0.057830 -0.597214
O23   O     O_R   0.942690 0.268390 0.886930 -0.648539
O24   O     O_R   0.114340 0.731630 0.178520 -0.637655
O25   O     O_R   0.820160 0.439310 0.057830 -0.631923
O26   O     O_R   0.113800 0.560730 0.885620 -0.646647
C85   C     C_R   0.857473 0.498807 0.142925 0.900629
C86   C     C_R   0.138209 0.499089 0.861229 0.816070
C87   C     C_R   0.856972 0.219100 0.862917 0.787050
C88   C     C_R   0.139319 0.779782 0.140986 0.817713
C89   C     C_R   0.855886 0.499645 0.861934 0.813003
C90   C     C_R   0.138852 0.499189 0.142696 0.896702
N1    N     N_R   0.705029 0.904270 0.565242 0.196791
O27   O     O_R   0.642082 0.853391 0.491727 -0.355085
O28   O     O_R   0.785425 0.930979 0.563258 -0.373358
N2    N     N_R   0.437659 0.614737 0.274906 0.241236
O29   O     O_R   0.477928 0.677218 0.360627 -0.395018
O30   O     O_R   0.484339 0.629266 0.223955 -0.315431
N3    N     N_R   0.769522 0.329325 0.166125 0.254815
O31   O     O_R   0.804514 0.306911 0.103382 -0.421907
O32   O     O_R   0.750241 0.278925 0.202157 -0.327844
N4    N     N_R   0.587040 0.457552 0.171872 0.170136
O33   O     O_R   0.534002 0.364278 0.151292 -0.376383
O34   O     O_R   0.561490 0.481263 0.125714 -0.368378
N5    N     N_R   0.327021 0.604228 0.166316 0.243988
O35   O     O_R   0.330198 0.589513 0.089786 -0.393263
O36   O     O_R   0.363918 0.698210 0.236544 -0.344418
N6    N     N_R   0.828678 0.695742 0.423268 0.229324
O37   O     O_R   0.857792 0.758237 0.398755 -0.336702
O38   O     O_R   0.840257 0.735579 0.507504 -0.375766
N7    N     N_R   0.920672 0.558200 0.328315 0.217924
O39   O     O_R   0.889644 0.483329 0.338003 -0.375953
O40   O     O_R   0.007221 0.623618 0.354131 -0.376930
O41   O     O_3   0.698920 0.634537 0.285095 -0.602303
C91   C     C_3   0.639647 0.647577 0.331224 0.040457
H59   H     H_    0.569878 0.576991 0.299843 0.137125
H60   H     H_    0.637054 0.707955 0.333460 0.259473
H61   H     H_    0.666753 0.677712 0.401356 0.155163
N8    N     N_R   0.366310 0.110368 0.184796 0.226469
O42   O     O_R   0.336134 0.115351 0.124502 -0.354534
O43   O     O_R   0.452120 0.156735 0.216878 -0.377808
O44   O     O_3   0.197925 0.301222 0.213419 -0.633609
C92   C     C_3   0.230330 0.271710 0.141344 -0.018604
H62   H     H_    0.232198 0.303503 0.103299 0.182010
H63   H     H_    0.185384 0.186186 0.093652 0.197858
H64   H     H_    0.297837 0.291886 0.164749 0.201360
O45   O     O_3   0.665726 0.228330 0.673043 -0.627679
C93   C     C_3   0.599606 0.127314 0.597921 -0.263667
H65   H     H_    0.531398 0.110809 0.588675 0.154883
H66   H     H_    0.599865 0.068735 0.601914 0.182638
H67   H     H_    0.616350 0.120072 0.537691 0.218082
O46   O     O_3   0.109076 0.309135 0.097179 -0.596207
C94   C     C_3   0.022747 0.223787 0.075252 -0.212711
H68   H     H_    0.003578 0.157114 0.006755 0.191424
H69   H     H_    0.972541 0.241529 0.075896 0.159540
H70   H     H_    0.021463 0.200411 0.120951 0.182116
N9    N     N_R   0.414809 0.875483 0.725697 0.191760
O47   O     O_R   0.425846 0.922900 0.688086 -0.438686
O48   O     O_R   0.467947 0.928149 0.805997 -0.427318
N10   N     N_R   0.186574 0.185579 0.900173 0.199392
O49   O     O_R   0.255866 0.206146 0.947367 -0.401979
O50   O     O_R   0.107888 0.102517 0.874661 -0.444005

loop_
_geom_bond_atom_site_label_1
_geom_bond_atom_site_label_2
_geom_bond_distance
_ccdc_geom_bond_type
C26   H24   1.114550 S    
C38   C39   1.415481 A    
Zn8   O24   1.930567 S    
C83   H58   1.083275 S    
C61   O45   1.390452 S    
C82   C83   1.397783 A    
O15   C85   1.277009 A    
N7    O39   1.300548 A    
O17   C87   1.289358 A    
C14   H5    1.108925 S    
C51   C60   1.478289 S    
N1    O27   1.299385 A    
H38   C54   1.082440 S    
C58   C59   1.399810 A    
C49   C50   1.398350 A    
C55   H43   1.085262 S    
C37   C42   1.380512 A    
C94   H70   1.112689 S    
C62   H45   1.080572 S    
C17   C19   1.555468 S    
C37   H32   1.085352 S    
C56   C57   1.414649 A    
C18   C22   1.540293 S    
C70   C71   1.395138 A    
N9    O47   1.301420 A    
C8    H2    1.114068 S    
O4    C3    1.286966 A    
Zn1   O1    1.947564 S    
Zn5   O14   1.947564 S    
C73   C78   1.386461 A    
Zn8   O15   1.942967 S    
C7    C8    1.566825 S    
C65   H48   1.083236 S    
C10   H4    1.107669 S    
C52   C53   1.398240 A    
C75   C84   1.480941 S    
C31   C36   1.396783 A    
C62   C63   1.396929 A    
Zn7   O26   1.941623 S    
C50   H40   1.083095 S    
O23   C87   1.283519 A    
C15   C19   1.565761 S    
O8    C5    1.271474 A    
C23   C27   1.567677 S    
C51   C52   1.403652 A    
O9    C6    1.283530 A    
C7    N2    1.473879 S    
C13   O46   1.420991 S    
Zn5   O23   1.932451 S    
C28   C30   1.576401 S    
Zn8   O20   1.950925 S    
C58   H44   1.084882 S    
C43   H33   1.082933 S    
C44   C45   1.398964 A    
Zn3   O8    1.953321 S    
C28   C85   1.487038 S    
C38   C88   1.448548 S    
C55   C60   1.377166 A    
C18   H15   1.110084 S    
Zn7   O21   1.953282 S    
C94   H68   1.109268 S    
C25   C27   1.603698 S    
C45   C46   1.396652 A    
C3    C77   1.460059 S    
N6    O37   1.302443 A    
O16   C86   1.272226 A    
Zn5   O16   1.944673 S    
Zn2   O12   1.931944 S    
C33   C42   1.480794 S    
C41   C42   1.417179 A    
C43   C48   1.403256 A    
C17   C21   1.551730 S    
C15   N1    1.468020 S    
Zn6   O19   1.953176 S    
C35   C36   1.398504 A    
C15   C16   1.554383 S    
C26   C27   1.585146 S    
C9    C13   1.569970 S    
C23   H20   1.108473 S    
C83   C84   1.403495 A    
O20   C90   1.277268 A    
O41   C91   1.413791 S    
N7    O40   1.301561 A    
N3    O31   1.301078 A    
C16   H11   1.112002 S    
C29   H26   1.114794 S    
C8    N5    1.473888 S    
C47   C48   1.404644 A    
C49   H39   1.082578 S    
C20   C22   1.557101 S    
C75   C76   1.387616 A    
C24   N3    1.477807 S    
C76   C77   1.397443 A    
H12   C17   1.111542 S    
O2    C1    1.286098 A    
C22   H17   1.113231 S    
C23   H21   1.111464 S    
C73   H53   1.083549 S    
C79   C84   1.401548 A    
C37   C38   1.392477 A    
C13   H8    1.121323 S    
C1    C41   1.454167 S    
C6    C11   1.496905 S    
O10   C3    1.274239 A    
C7    H1    1.104380 S    
Zn4   O2    1.930612 S    
H27   C36   1.080743 S    
C74   C75   1.419163 A    
C68   C69   1.403799 A    
C39   C48   1.482622 S    
O45   C93   1.411850 S    
C92   H62   1.102041 S    
C81   N10   1.438265 S    
N10   O49   1.301438 A    
O6    C5    1.280977 A    
C49   C54   1.398705 A    
C24   C28   1.566653 S    
N4    O34   1.302200 A    
C5    C59   1.443700 S    
C31   H28   1.082438 S    
C64   C65   1.395989 A    
C56   C89   1.443002 S    
C10   C11   1.562951 S    
Zn3   O5    1.944281 S    
C17   H18   1.113025 S    
C2    C19   1.506483 S    
C8    C12   1.567765 S    
C93   H66   1.110542 S    
C26   C30   1.553412 S    
C25   N4    1.484498 S    
C9    H7    1.114466 S    
N5    O35   1.300955 A    
C45   H35   1.080823 S    
C24   H22   1.114583 S    
C43   C44   1.399355 A    
N8    O42   1.301123 A    
Zn5   O22   1.955473 S    
C32   C33   1.404411 A    
C44   H34   1.082383 S    
C53   C54   1.397632 A    
C26   N6    1.479968 S    
C20   C21   1.552497 S    
O44   C92   1.413467 S    
Zn4   O7    1.950929 S    
N10   O50   1.301523 A    
C18   H14   1.112880 S    
C31   C32   1.397407 A    
O19   C89   1.270147 A    
C81   C82   1.406009 A    
Zn6   O17   1.929183 S    
N2    O29   1.299801 A    
Zn7   O18   1.931842 S    
C91   H59   1.109670 S    
C34   C35   1.399046 A    
C18   C19   1.555660 S    
N9    O48   1.301498 A    
C74   C86   1.460156 S    
C35   H31   1.082451 S    
O25   C85   1.285503 A    
H23   C29   1.114329 S    
C67   C68   1.407317 A    
C73   C74   1.396987 A    
O11   C4    1.284770 A    
Zn2   O1    1.953862 S    
Zn1   O9    1.955575 S    
C16   H10   1.112911 S    
N2    O30   1.301853 A    
C64   H47   1.082140 S    
Zn2   O6    1.953384 S    
O24   C88   1.289838 A    
C61   C66   1.410612 A    
C82   H57   1.082052 S    
Zn6   O14   1.954173 S    
C59   C60   1.414289 A    
C93   H67   1.109189 S    
C76   H54   1.084009 S    
C91   H61   1.108608 S    
H49   C72   1.082426 S    
C30   N7    1.474098 S    
C69   C78   1.476928 S    
C22   H16   1.112832 S    
C15   H9    1.115534 S    
C23   C24   1.548918 S    
C53   H42   1.082012 S    
C14   H6    1.113931 S    
Zn1   O3    1.932553 S    
C67   C72   1.406835 A    
O21   C89   1.281746 A    
Zn2   O4    1.941578 S    
C67   N9    1.439021 S    
C80   C81   1.406296 A    
C34   H30   1.083055 S    
Zn3   O1    1.954172 S    
C55   C56   1.396527 A    
C71   H52   1.082507 S    
C94   H69   1.112162 S    
C92   H64   1.107577 S    
Zn1   O10   1.944775 S    
C9    O44   1.429488 S    
C70   H51   1.083166 S    
C10   C14   1.534863 S    
C68   H50   1.083153 S    
O3    C2    1.287236 A    
C79   H55   1.083133 S    
N4    O33   1.299382 A    
Zn4   O11   1.942970 S    
N1    O28   1.301323 A    
C61   C62   1.414396 A    
C92   H63   1.109164 S    
C9    C11   1.583108 S    
C10   H3    1.110020 S    
Zn7   O14   1.954009 S    
O18   C88   1.275441 A    
C52   H41   1.083087 S    
C71   C72   1.397513 A    
C12   C14   1.560639 S    
O5    C4    1.280425 A    
C93   H65   1.114756 S    
C63   H46   1.082552 S    
C25   O41   1.428081 S    
C50   C51   1.403567 A    
Zn6   O25   1.944281 S    
H13   C21   1.113112 S    
O7    C6    1.276489 A    
C47   H37   1.083196 S    
N8    O43   1.301086 A    
C12   C13   1.563409 S    
Zn3   O13   1.929183 S    
C79   C80   1.398032 A    
C77   C78   1.416294 A    
C28   C29   1.558183 S    
C57   C66   1.482295 S    
C46   C47   1.396921 A    
C7    C11   1.575194 S    
C20   C87   1.503671 S    
Zn8   O14   1.956624 S    
C33   C34   1.404567 A    
O13   C2    1.286441 A    
O22   C90   1.279691 A    
C65   C66   1.403982 A    
Zn4   O1    1.956624 S    
C30   H25   1.111966 S    
C39   C40   1.393133 A    
O12   C1    1.280988 A    
C46   H36   1.082534 S    
C12   C90   1.492267 S    
C63   C64   1.394944 A    
C40   N8    1.437818 S    
C32   H29   1.083248 S    
C69   C70   1.400432 A    
N6    O38   1.300582 A    
C80   H56   1.082639 S    
N3    O32   1.302413 A    
C40   C41   1.414154 A    
C57   C58   1.378728 A    
C91   H60   1.107327 S    
O46   C94   1.410940 S    
C21   H19   1.112912 S    
C4    C27   1.491533 S    
C25   C29   1.563070 S    
C16   C20   1.548469 S    
O26   C86   1.288956 A    
N5    O36   1.301328 A    
