data_mof_unit_68502.cif
_audit_creation_date              2012-12-10T18:05:42-0500
_audit_creation_method            fapswitch 2.2
_symmetry_space_group_name_H-M    P1
_symmetry_Int_Tables_number       1
_space_group_crystal_system       triclinic
_cell_length_a                    10.994764
_cell_length_b                    10.888876
_cell_length_c                    9.668765
_cell_angle_alpha                 89.184386
_cell_angle_beta                  92.66247
_cell_angle_gamma                 99.392892
_cell_volume                      1140.77180006

loop_
_atom_site_label
_atom_site_type_symbol
_atom_type_description
_atom_site_fract_x
_atom_site_fract_y
_atom_site_fract_z
_atom_type_partial_charge
C1    C     C_R   0.509405 0.263991 0.501670 0.894274
C2    C     C_R   0.490657 0.736030 0.498330 0.894286
C3    C     C_R   0.872253 0.503949 0.506434 -0.050430
C4    C     C_R   0.127747 0.496037 0.493556 -0.050475
C5    C     C_R   0.956548 0.560648 0.610238 0.083535
C6    C     C_R   0.043452 0.439320 0.389764 0.083634
C7    C     C_R   0.534205 0.069572 0.380822 0.272595
C8    C     C_R   0.466026 0.930506 0.619185 0.272491
C9    C     C_R   0.503097 0.940744 0.373005 0.312552
C10   C     C_R   0.497207 0.059323 0.627002 0.312484
C11   C     C_R   0.481057 0.869508 0.495210 -0.316787
C12   C     C_R   0.519138 0.130548 0.504788 -0.316745
C13   C     C_R   0.424324 0.409442 0.071616 0.268012
C14   C     C_R   0.575689 0.590545 0.928383 0.267950
C15   C     C_R   0.422802 0.410694 0.922861 0.277317
C16   C     C_R   0.577237 0.589278 0.077144 0.277463
C17   C     C_R   0.261678 0.495063 0.497079 0.781402
C18   C     C_R   0.738322 0.504931 0.502918 0.781432
C19   C     C_R   0.074498 0.376006 0.021066 -0.267414
C20   C     C_R   0.925471 0.623698 0.978995 -0.267314
C21   C     C_R   0.104033 0.434698 0.148134 0.312113
C22   C     C_R   0.895955 0.565097 0.851873 0.312201
C23   C     C_R   0.075472 0.368765 0.271693 -0.023875
C24   C     C_R   0.924528 0.631122 0.728372 -0.023898
C25   C     C_R   0.032510 0.238632 0.266075 0.041337
C26   C     C_R   0.967512 0.761248 0.734106 0.041303
C27   C     C_R   0.008681 0.180194 0.137112 -0.106151
C28   C     C_R   0.991326 0.819592 0.863121 -0.106142
C29   C     C_R   0.026478 0.249084 0.014982 0.415904
C30   C     C_R   0.973489 0.750621 0.985191 0.415920
C31   C     C_R   0.917839 0.444964 0.397345 -0.176809
C32   C     C_R   0.082160 0.555020 0.602643 -0.176867
Cu1   Cu    Cu3+1 0.500000 0.500020 0.640660 1.012517
Cu2   Cu    Cu3+1 0.500000 0.499980 0.359340 1.012555
H1    H     H_    0.089994 0.429591 0.926597 0.203817
H2    H     H_    0.909977 0.570035 0.073410 0.203715
H3    H     H_    0.972784 0.081726 0.131617 0.227056
H4    H     H_    0.027250 0.918050 0.868706 0.227090
H5    H     H_    0.854323 0.400209 0.316927 0.198078
H6    H     H_    0.145675 0.599765 0.683069 0.198090
N1    N     N_R   0.500030 0.500030 0.852070 -0.175285
N2    N     N_R   0.499970 0.499970 0.147930 -0.175272
O1    O     O_R   0.499990 0.319660 0.618740 -0.543260
O2    O     O_R   0.500010 0.680340 0.381260 -0.543183
O3    O     O_R   0.499990 0.319630 0.381170 -0.564915
O4    O     O_R   0.500010 0.680370 0.618830 -0.564844
O5    O     O_R   0.319650 0.500020 0.618780 -0.597068
O6    O     O_R   0.680350 0.499980 0.381220 -0.597043
O7    O     O_R   0.319640 0.500000 0.381210 -0.545530
O8    O     O_R   0.680360 0.500000 0.618790 -0.545596
Cl1   Cl    Cl    0.994088 0.175039 0.854196 -0.595429
Cl2   Cl    Cl    0.005818 0.824575 0.146043 -0.595581
C33   C     C_3   0.330565 0.314423 0.845525 -0.657140
H7    H     H_    0.331876 0.316621 0.733521 0.258726
H8    H     H_    0.339602 0.218937 0.880352 0.264921
H9    H     H_    0.237283 0.330083 0.864330 0.192372
C34   C     C_3   0.669648 0.685375 0.154505 -0.657131
H10   H     H_    0.661106 0.780872 0.119474 0.264687
H11   H     H_    0.668050 0.683478 0.266448 0.258767
H12   H     H_    0.762794 0.669205 0.136180 0.192511
Cl3   Cl    Cl    0.175626 0.591583 0.148947 -0.501403
Cl4   Cl    Cl    0.824410 0.408193 0.850923 -0.501190
C35   C     C_3   0.005077 0.161038 0.394615 -0.745989
H13   H     H_    0.034504 0.214210 0.490816 0.247029
H14   H     H_    0.904479 0.125971 0.396342 0.264686
H15   H     H_    0.055326 0.080466 0.394521 0.247684
C36   C     C_3   0.995011 0.838928 0.605641 -0.745929
H16   H     H_    0.965593 0.785819 0.509384 0.247059
H17   H     H_    0.944793 0.919533 0.605786 0.247782
H18   H     H_    0.095630 0.873958 0.603986 0.264669
Cl5   Cl    Cl    0.612809 0.148988 0.241301 -0.506334
Cl6   Cl    Cl    0.387392 0.851173 0.758735 -0.506415
Cl7   Cl    Cl    0.469729 0.876328 0.206105 -0.428953
Cl8   Cl    Cl    0.530992 0.123736 0.793870 -0.428617
C37   C     C_3   0.349345 0.301042 0.144791 -0.686091
H19   H     H_    0.263649 0.262107 0.087533 0.180236
H20   H     H_    0.402658 0.223837 0.156594 0.287539
H21   H     H_    0.319247 0.326471 0.245336 0.244756
C38   C     C_3   0.650702 0.698912 0.855199 -0.685929
H22   H     H_    0.736406 0.737764 0.912443 0.180214
H23   H     H_    0.680772 0.673503 0.754654 0.244703
H24   H     H_    0.597460 0.776154 0.843439 0.287572

loop_
_geom_bond_atom_site_label_1
_geom_bond_atom_site_label_2
_ccdc_geom_bond_type
C35   H14   S    
C27   C29   A    
Cu2   N2    S    
C20   C30   A    
C33   H7    S    
C2    O4    A    
C26   C36   S    
C15   C33   S    
C19   C21   A    
C24   C26   A    
C7    Cl5   S    
C34   H11   S    
C3    C18   S    
C25   C35   S    
C1    O1    A    
C13   C37   S    
C2    O2    A    
C21   Cl3   S    
C5    C32   A    
C23   C25   A    
C6    C31   A    
C35   H15   S    
Cu1   O4    S    
C1    C12   S    
C9    Cl7   S    
C2    C11   S    
C13   N2    A    
C33   H8    S    
C21   C23   A    
C7    C12   A    
C8    Cl6   S    
C36   H16   S    
Cu1   O1    S    
Cu2   O2    S    
C15   N1    A    
C4    C6    A    
C17   O7    A    
C38   H23   S    
C34   H12   S    
Cu1   O8    S    
C38   H22   S    
C36   H17   S    
C37   H19   S    
C22   Cl4   S    
C37   H20   S    
C28   H4    S    
Cu1   Cu2   S    
Cu2   O3    S    
C14   C38   S    
C3    C31   A    
C9    C11   A    
C4    C32   A    
C10   C12   A    
C14   N1    A    
C4    C17   S    
C20   C22   A    
C13   C15   A    
Cu1   O5    S    
C22   C24   A    
Cu2   O6    S    
C19   C29   A    
C16   N2    A    
C18   O8    A    
C29   Cl1   S    
C33   H9    S    
C7    C9    A    
C30   Cl2   S    
Cu2   O7    S    
C17   O5    A    
C3    C5    A    
C18   O6    A    
C38   H24   S    
C25   C27   A    
C26   C28   A    
C36   H18   S    
Cu1   N1    S    
C28   C30   A    
C19   H1    S    
C10   Cl8   S    
C1    O3    A    
C34   H10   S    
C5    C24   S    
C27   H3    S    
C8    C11   A    
C6    C23   S    
C31   H5    S    
C14   C16   A    
C16   C34   S    
C32   H6    S    
C37   H21   S    
C35   H13   S    
C20   H2    S    
C8    C10   A    
