data_mof_unit_65368.cif
_audit_creation_date              2013-03-05T16:18:11-0500
_audit_creation_method            fapswitch 2.2
_symmetry_space_group_name_H-M    P1
_symmetry_Int_Tables_number       1
_space_group_crystal_system       triclinic
_cell_length_a                    19.36837
_cell_length_b                    18.167665
_cell_length_c                    27.794896
_cell_angle_alpha                 89.237386
_cell_angle_beta                  92.564552
_cell_angle_gamma                 89.966397
_cell_volume                      9769.74608156

loop_
_atom_site_label
_atom_site_type_symbol
_atom_site_description
_atom_site_fract_x
_atom_site_fract_y
_atom_site_fract_z
_atom_type_partial_charge
O1    O     O_R   0.400150 0.561970 0.500010 -0.565553
O2    O     O_R   0.599850 0.438030 0.499990 -0.558835
O3    O     O_R   0.599850 0.561970 0.499990 -0.555810
O4    O     O_R   0.400150 0.438030 0.500010 -0.563580
C1    C     C_R   0.367312 0.500029 0.500373 0.814480
C2    C     C_R   0.632635 0.500023 0.498727 0.829456
O5    O     O_R   0.500010 0.561950 0.430260 -0.554825
O6    O     O_R   0.499990 0.438050 0.569740 -0.568153
O7    O     O_R   0.499990 0.561950 0.569740 -0.562354
O8    O     O_R   0.500010 0.438050 0.430260 -0.553317
C3    C     C_R   0.499224 0.500240 0.407452 0.861933
C4    C     C_R   0.496862 0.499581 0.592574 0.877882
Cu1   Cu    Cu3+1 0.500000 0.573360 0.500000 1.061599
Cu2   Cu    Cu3+1 0.500000 0.426640 0.500000 1.059577
C5    C     C_R   0.436565 0.474108 0.177289 0.654364
C6    C     C_R   0.537460 0.514757 0.822336 0.651181
O9    O     O_2   0.383650 0.446200 0.201720 -0.471065
O10   O     O_2   0.592797 0.536941 0.798108 -0.471115
N1    N     N_R   0.493320 0.501361 0.201852 -0.444669
N2    N     N_R   0.478276 0.494223 0.797582 -0.444125
C7    C     C_R   0.547525 0.530935 0.178348 0.711809
C8    C     C_R   0.422173 0.468703 0.820891 0.714807
C9    C     C_R   0.535438 0.449870 0.280041 0.417303
C10   C     C_R   0.483935 0.430259 0.720704 0.398910
C11   C     C_R   0.536804 0.449491 0.330274 -0.187309
C12   C     C_R   0.488440 0.431697 0.670864 -0.186405
C13   C     C_R   0.454691 0.549899 0.328475 -0.183952
C14   C     C_R   0.477679 0.564093 0.669985 -0.204536
C15   C     C_R   0.453904 0.552715 0.278055 0.320595
C16   C     C_R   0.471623 0.563969 0.720151 0.324348
C17   C     C_R   0.494782 0.501915 0.253593 0.124428
C18   C     C_R   0.476486 0.496227 0.745827 0.125503
C19   C     C_R   0.489171 0.502780 0.101528 -0.076798
C20   C     C_R   0.483281 0.488537 0.897822 -0.077311
C21   C     C_R   0.433059 0.475140 0.126865 -0.008372
C22   C     C_R   0.540800 0.513167 0.872754 -0.008086
C23   C     C_R   0.373299 0.452353 0.101431 -0.089685
C24   C     C_R   0.601385 0.532793 0.898474 -0.088877
C25   C     C_R   0.546170 0.533904 0.127360 -0.184239
C26   C     C_R   0.424628 0.461760 0.871727 -0.185118
C27   C     C_R   0.497368 0.500301 0.354666 -0.154883
C28   C     C_R   0.488446 0.498545 0.645220 -0.178626
H1    H     H_    0.421135 0.585741 0.347407 0.248291
H2    H     H_    0.472186 0.615397 0.650135 0.233584
H3    H     H_    0.327593 0.436094 0.119985 0.211628
H4    H     H_    0.647913 0.546833 0.880173 0.211364
C29   C     C_R   0.429475 0.460124 0.974179 -0.091939
C30   C     C_R   0.542647 0.530452 0.024974 -0.094278
C31   C     C_R   0.543586 0.520122 0.974323 0.105385
C32   C     C_R   0.429313 0.468692 0.025119 0.104091
C33   C     C_R   0.485016 0.490200 0.948933 0.060726
C34   C     C_R   0.487480 0.499993 0.050401 0.059476
C35   C     C_R   0.378025 0.419332 0.947522 0.204926
C36   C     C_R   0.593044 0.573413 0.050979 0.205668
C37   C     C_R   0.372600 0.425385 0.896920 0.273539
C38   C     C_R   0.597441 0.570708 0.101638 0.274324
O11   O     O_2   0.364411 0.450878 0.794741 -0.424965
O12   O     O_2   0.602081 0.557400 0.204539 -0.422890
C39   C     C_R   0.370555 0.452142 0.051527 -0.094508
C40   C     C_R   0.603330 0.533973 0.948368 -0.095446
H5    H     H_    0.491881 0.380240 0.652367 0.240451
H6    H     H_    0.568909 0.409785 0.350289 0.198877
H7    H     H_    0.320845 0.440738 0.034340 0.198470
H8    H     H_    0.653012 0.544071 0.966076 0.196412
C41   C     C_R   0.254583 0.566807 0.497978 -0.116150
C42   C     C_R   0.744844 0.433747 0.492173 -0.109654
C43   C     C_R   0.745029 0.566815 0.495247 -0.108061
C44   C     C_R   0.254838 0.433703 0.504101 -0.108284
H9    H     H_    0.281271 0.619030 0.496300 0.201322
H10   H     H_    0.718042 0.381632 0.490186 0.202563
H11   H     H_    0.718412 0.619079 0.495881 0.204966
H12   H     H_    0.281752 0.381560 0.507545 0.198096
C45   C     C_R   0.182606 0.566870 0.496940 -0.112081
C46   C     C_R   0.816692 0.433761 0.491037 -0.109597
C47   C     C_R   0.816849 0.566919 0.494022 -0.111412
C48   C     C_R   0.182851 0.433715 0.502982 -0.109669
H13   H     H_    0.155759 0.619155 0.494234 0.182321
H14   H     H_    0.843308 0.381530 0.489084 0.181995
H15   H     H_    0.843579 0.619250 0.494556 0.182417
H16   H     H_    0.156191 0.381492 0.505184 0.181689
C49   C     C_R   0.145992 0.500280 0.499019 0.030108
C50   C     C_R   0.853485 0.500325 0.492619 0.029710
C51   C     C_R   0.291356 0.500170 0.500883 -0.054523
C52   C     C_R   0.708403 0.500158 0.495596 -0.058802
N3    N     N_R   0.034150 0.435991 0.496781 -0.201368
N4    N     N_R   0.965296 0.564560 0.493556 -0.202133
N5    N     N_R   0.965422 0.435999 0.495032 -0.201245
N6    N     N_R   0.034017 0.564551 0.495267 -0.202423
C53   C     C_R   0.929620 0.500287 0.493408 0.434277
C54   C     C_R   0.069823 0.500269 0.497023 0.433653
C55   C     C_R   0.541100 0.276679 0.532834 0.354782
C56   C     C_R   0.461815 0.723618 0.465644 0.369234
C57   C     C_R   0.458958 0.278586 0.466883 0.357792
C58   C     C_R   0.538625 0.721671 0.534486 0.351679
C59   C     C_R   0.540699 0.198359 0.533750 0.144871
C60   C     C_R   0.459527 0.801917 0.466173 0.141532
C61   C     C_R   0.457796 0.200241 0.466327 0.141610
C62   C     C_R   0.538237 0.800043 0.535785 0.143241
C63   C     C_R   0.498732 0.159015 0.500260 -0.254677
C64   C     C_R   0.498148 0.841207 0.501444 -0.257062
N7    N     N_R   0.500000 0.316380 0.500000 -0.323127
N8    N     N_R   0.500000 0.683620 0.500000 -0.320299
N9    N     N_R   0.438366 0.037168 0.494562 -0.141328
N10   N     N_R   0.558094 0.962981 0.507486 -0.140827
N11   N     N_R   0.558240 0.036617 0.506987 -0.140762
N12   N     N_R   0.438216 0.963497 0.495029 -0.143378
C65   C     C_R   0.498082 0.924499 0.501547 0.553788
C66   C     C_R   0.498407 0.075660 0.500510 0.551948
N13   N     N_R   0.584270 0.313642 0.567887 0.177035
O13   O     O_R   0.646742 0.330980 0.556947 -0.317805
O14   O     O_R   0.572184 0.303831 0.613129 -0.297454
N14   N     N_R   0.429425 0.687675 0.425286 0.164719
O15   O     O_R   0.368651 0.658515 0.429143 -0.333101
O16   O     O_R   0.450255 0.703943 0.382577 -0.295443
N15   N     N_R   0.419711 0.317789 0.430051 0.181751
O17   O     O_R   0.355773 0.334714 0.437068 -0.316714
O18   O     O_R   0.439966 0.316010 0.386072 -0.283418
N16   N     N_R   0.579567 0.682904 0.570666 0.179892
O19   O     O_R   0.642222 0.664027 0.561388 -0.317679
O20   O     O_R   0.564578 0.690037 0.615494 -0.287721
N17   N     N_R   0.581867 0.159310 0.570008 0.187208
O21   O     O_R   0.552821 0.113828 0.599463 -0.243053
O22   O     O_R   0.648193 0.170346 0.574435 -0.218028
N18   N     N_R   0.419933 0.841000 0.429065 0.188286
O23   O     O_R   0.449516 0.889725 0.402137 -0.241488
O24   O     O_R   0.355232 0.824808 0.420165 -0.223495
N19   N     N_R   0.417173 0.163216 0.429546 0.183799
O25   O     O_R   0.446138 0.116617 0.401544 -0.245996
O26   O     O_R   0.351580 0.177487 0.422976 -0.222817
N20   N     N_R   0.577568 0.837233 0.573156 0.187694
O27   O     O_R   0.547403 0.883209 0.600959 -0.243161
O28   O     O_R   0.643400 0.824469 0.579999 -0.217325
N21   N     N_R   0.411565 0.606941 0.252452 0.170381
O29   O     O_R   0.358189 0.634974 0.272411 -0.238562
O30   O     O_R   0.429537 0.633938 0.211272 -0.293370
N22   N     N_R   0.460892 0.632515 0.744277 0.163362
O31   O     O_R   0.477309 0.694622 0.723911 -0.238743
O32   O     O_R   0.430011 0.634092 0.784872 -0.297671
Cl1   Cl    Cl    0.490322 0.344808 0.751207 -0.421701
Cl2   Cl    Cl    0.584414 0.383784 0.250804 -0.452585
N23   N     N_R   0.318920 0.385780 0.871360 0.201361
O33   O     O_R   0.256821 0.413071 0.866937 -0.218912
O34   O     O_R   0.332080 0.322305 0.852660 -0.209490
N24   N     N_R   0.650114 0.612720 0.126442 0.201712
O35   O     O_R   0.637561 0.679922 0.139096 -0.212345
O36   O     O_R   0.711423 0.584775 0.134678 -0.217582
N25   N     N_R   0.339831 0.361571 0.970168 0.130331
O37   O     O_R   0.273169 0.356448 0.962949 -0.242088
O38   O     O_R   0.372349 0.312068 0.996813 -0.267353
N26   N     N_R   0.631806 0.629503 0.027096 0.132249
O39   O     O_R   0.599901 0.677373 0.998814 -0.262511
O40   O     O_R   0.698337 0.634982 0.034957 -0.242662

loop_
_geom_bond_atom_site_label_1
_geom_bond_atom_site_label_2
_geom_bond_distance
_ccdc_geom_bond_type
C15   N21   1.441386 S    
C37   N23   1.432399 S    
C13   C15   1.401070 A    
N25   O37   1.301310 A    
C35   N25   1.438620 S    
C61   N19   1.436531 S    
O3    C2    1.293543 A    
N1    C17   1.437339 S    
C8    O11   1.348605 S    
N14   O16   1.301136 A    
C36   N26   1.438809 S    
C19   C34   1.421558 A    
C30   C36   1.427291 A    
C63   C66   1.514298 S    
C20   C33   1.420245 A    
C19   C25   1.412312 A    
C31   C40   1.411707 A    
O1    C1    1.293094 A    
C32   C39   1.411935 A    
C6    N2    1.365044 A    
N1    C7    1.367614 A    
C12   H5    1.076341 S    
C46   C50   1.404210 A    
N23   O34   1.300939 A    
C1    C51   1.471847 S    
N4    N6    1.329746 A    
C41   C51   1.403822 A    
N12   C65   1.362369 A    
C58   C62   1.424802 A    
C59   C63   1.410252 A    
N15   O17   1.299587 A    
C42   C46   1.393350 A    
C56   C60   1.423479 A    
C41   C45   1.393080 A    
C57   N15   1.429503 S    
C45   C49   1.404506 A    
O7    Cu1   1.946729 S    
N16   O19   1.298713 A    
N10   N11   1.337689 A    
C4    C28   1.479433 S    
C24   H4    1.083418 S    
C5    N1    1.364568 A    
C31   C33   1.421170 A    
C32   C34   1.423715 A    
N9    C66   1.362166 A    
C20   C22   1.410157 A    
O3    Cu1   1.944863 S    
C56   N8    1.380081 A    
C29   C35   1.428516 A    
C59   N17   1.436335 S    
N3    N5    1.329867 A    
C43   C52   1.403975 A    
Cu1   Cu2   2.665558 S    
C7    O12   1.348608 S    
O2    C2    1.294097 A    
N19   O26   1.300819 A    
C55   N7    1.379697 A    
C5    C21   1.399994 A    
N14   O15   1.299319 A    
C61   C63   1.411644 A    
O5    C3    1.295034 A    
C29   C32   1.426602 A    
C35   C37   1.408544 A    
C10   Cl1   1.760544 S    
N11   C66   1.362171 A    
C36   C38   1.407025 A    
C2    C52   1.473967 S    
C60   N18   1.437063 S    
C9    Cl2   1.759366 S    
N24   O36   1.300805 A    
O8    Cu2   1.946732 S    
C57   N7    1.379354 A    
C56   N14   1.426609 S    
Cu2   N7    2.003167 S    
C29   C33   1.416403 A    
N15   O18   1.301201 A    
C42   C52   1.403915 A    
C14   H2    1.079559 S    
C44   H12   1.082055 S    
C9    C17   1.408307 A    
N20   O28   1.300960 A    
C10   C18   1.405659 A    
N26   O40   1.301399 A    
C13   C27   1.397478 A    
C25   C38   1.412776 A    
C7    C25   1.416575 A    
C30   C34   1.416071 A    
O6    C4    1.295519 A    
C26   C37   1.412122 A    
C8    C26   1.415597 A    
C62   N20   1.436739 S    
C50   C53   1.473798 S    
N17   O21   1.301247 A    
C23   C39   1.385764 A    
C24   C40   1.386076 A    
C49   C54   1.473830 S    
N22   O32   1.301126 A    
C30   C31   1.423701 A    
N6    C54   1.357085 A    
C16   N22   1.441566 S    
N5    C53   1.357151 A    
N21   O29   1.301584 A    
C20   C26   1.410512 A    
C43   C47   1.392991 A    
C11   C27   1.399055 A    
N19   O25   1.301257 A    
C57   C61   1.423821 A    
C12   C28   1.399990 A    
N18   O24   1.301046 A    
N2    C18   1.437350 S    
C21   C23   1.394994 A    
C5    O9    1.349949 S    
C64   C65   1.513269 S    
O6    Cu2   1.952216 S    
N25   O38   1.301487 A    
C44   C51   1.403658 A    
C39   H7    1.076959 S    
C48   H16   1.082766 S    
N2    C8    1.367862 A    
N24   O35   1.300841 A    
N4    C53   1.357111 A    
C48   C49   1.404522 A    
N3    C54   1.357172 A    
C47   C50   1.404099 A    
C44   C48   1.393223 A    
C62   C64   1.409690 A    
C40   H8    1.077992 S    
C55   N13   1.429863 S    
N13   O14   1.299331 A    
N20   O27   1.301261 A    
C14   C16   1.404464 A    
C15   C17   1.415947 A    
N13   O13   1.298683 A    
C6    C22   1.399884 A    
C22   C24   1.395468 A    
C16   C18   1.415404 A    
C58   N16   1.430128 S    
C10   C12   1.391841 A    
C42   H10   1.080933 S    
C47   H15   1.082780 S    
C41   H9    1.082153 S    
O4    C1    1.293585 A    
C60   C64   1.408475 A    
C14   C28   1.403501 A    
C19   C21   1.410322 A    
C3    C27   1.465999 S    
N9    N12   1.338337 A    
C43   H11   1.080901 S    
C11   H6    1.083670 S    
C9    C11   1.395210 A    
O4    Cu2   1.944863 S    
O2    Cu2   1.945104 S    
O7    C4    1.294140 A    
N16   O20   1.300057 A    
N17   O22   1.300926 A    
O8    C3    1.287907 A    
C55   C59   1.422822 A    
C38   N24   1.432014 S    
C13   H1    1.078206 S    
O5    Cu1   1.952218 S    
O1    Cu1   1.945103 S    
C58   N8    1.382182 A    
C6    O10   1.349992 S    
C46   H14   1.082788 S    
N21   O30   1.301077 A    
C45   H13   1.082766 S    
N26   O39   1.301484 A    
N22   O31   1.301612 A    
Cu1   N8    2.003167 S    
N23   O33   1.300788 A    
C23   H3    1.083497 S    
N10   C65   1.361572 A    
N18   O23   1.301320 A    
