data_mof_unit_34171.cif
_audit_creation_date              2012-12-10T20:02:33-0500
_audit_creation_method            fapswitch 2.2
_symmetry_space_group_name_H-M    P1
_symmetry_Int_Tables_number       1
_space_group_crystal_system       triclinic
_cell_length_a                    18.357247
_cell_length_b                    18.418089
_cell_length_c                    18.435835
_cell_angle_alpha                 120.136009
_cell_angle_beta                  120.234216
_cell_angle_gamma                 89.742383
_cell_volume                      4392.76952339

loop_
_atom_site_label
_atom_site_type_symbol
_atom_type_description
_atom_site_fract_x
_atom_site_fract_y
_atom_site_fract_z
_atom_type_partial_charge
C1    C     C_R   0.138247 0.139961 0.779616 0.524116
C2    C     C_R   0.714881 0.808765 0.471629 -0.071023
C3    C     C_R   0.871149 0.684249 0.687871 0.366076
C4    C     C_R   0.859878 0.859660 0.220141 0.520358
C5    C     C_R   0.926406 0.640754 0.726610 0.100657
C6    C     C_R   0.943567 0.571004 0.663755 -0.191368
C7    C     C_R   0.902362 0.539424 0.561512 -0.081737
C8    C     C_R   0.846456 0.579762 0.521073 0.098350
C9    C     C_R   0.831936 0.653492 0.584562 0.084182
C10   C     C_R   0.719480 0.807937 0.051972 0.022290
C11   C     C_R   0.804903 0.805760 0.108725 0.029433
C12   C     C_R   0.620193 0.830384 0.331059 0.159971
C13   C     C_R   0.840915 0.756224 0.055908 -0.154351
C14   C     C_R   0.788176 0.701487 0.948047 0.061766
C15   C     C_R   0.698587 0.698555 0.891822 0.062987
C16   C     C_R   0.859787 0.139731 0.499505 0.517308
C17   C     C_R   0.668756 0.757940 0.946178 0.012482
C18   C     C_3   0.582935 0.747317 0.936336 -0.005472
C19   C     C_3   0.639253 0.801489 0.054038 -0.033926
C20   C     C_R   0.232259 0.784129 0.570352 0.039517
C21   C     C_R   0.195490 0.804596 0.499098 0.006599
C22   C     C_R   0.214293 0.768516 0.424854 -0.168447
C23   C     C_R   0.580633 0.883994 0.299712 0.315812
C24   C     C_R   0.268084 0.714056 0.424498 -0.158349
C25   C     C_R   0.303323 0.694216 0.497858 0.018748
C26   C     C_R   0.282374 0.730168 0.568599 -0.013790
C27   C     C_3   0.298282 0.736072 0.659422 0.189808
C28   C     C_R   0.140053 0.860406 0.500153 0.512212
C29   C     C_3   0.241766 0.799532 0.663384 0.549103
C30   C     C_R   0.236712 0.164732 0.947948 -0.109695
C31   C     C_R   0.188135 0.196501 0.890766 0.041210
C32   C     C_R   0.189414 0.285552 0.945198 0.081868
C33   C     C_R   0.243967 0.340190 0.054689 0.071376
C34   C     C_R   0.596346 0.972532 0.375805 -0.081739
C35   C     C_R   0.297526 0.305709 0.109168 0.029262
C36   C     C_R   0.289633 0.217057 0.051875 0.003652
C37   C     C_3   0.323973 0.144159 0.057204 0.392807
C38   C     C_3   0.263039 0.085041 0.937917 -0.201874
C39   C     C_R   0.261517 0.273878 0.587377 -0.067821
C40   C     C_R   0.139058 0.139720 0.498764 0.537368
C41   C     C_R   0.195944 0.193182 0.497293 0.005496
C42   C     C_R   0.192662 0.160521 0.407244 0.247266
C43   C     C_R   0.243389 0.217241 0.406205 0.075557
C44   C     C_R   0.304792 0.301722 0.497992 -0.002362
C45   C     C_R   0.663174 0.756453 0.475290 0.055118
C46   C     C_R   0.317471 0.324878 0.589036 0.015912
C47   C     C_3   0.328314 0.409950 0.676297 0.203684
C48   C     C_3   0.263771 0.353650 0.672711 -0.016302
C49   C     C_R   0.825557 0.272208 0.591597 0.005911
C50   C     C_R   0.802263 0.193747 0.500371 0.046724
C51   C     C_R   0.716916 0.163345 0.410302 -0.168951
C52   C     C_R   0.859769 0.862078 0.502010 0.527534
C53   C     C_R   0.662950 0.217393 0.410652 -0.158754
C54   C     C_R   0.693600 0.302002 0.501418 0.031414
C55   C     C_R   0.771394 0.323814 0.592795 0.013333
C56   C     C_R   0.698085 0.701639 0.507384 0.023559
C57   C     C_3   0.848901 0.407115 0.684397 -0.007119
C58   C     C_3   0.909452 0.349301 0.682341 0.161270
C59   C     C_R   0.359857 0.639495 0.499553 0.520680
C60   C     C_R   0.639856 0.359860 0.500157 0.512714
C61   C     C_R   0.640404 0.639617 0.779961 0.543308
C62   C     C_R   0.358594 0.360313 0.220324 0.525952
C63   C     C_R   0.359437 0.359800 0.499107 0.547528
C64   C     C_R   0.652311 0.007365 0.480514 0.078866
C65   C     C_R   0.640512 0.640850 0.501189 0.534501
C66   C     C_R   0.692256 0.953553 0.510570 -0.111152
C67   C     C_R   0.788761 0.707953 0.548300 -0.022741
C68   C     C_R   0.675919 0.865211 0.436770 -0.000478
C69   C     C_3   0.304936 0.636583 0.702391 -0.110171
C70   C     C_3   0.164651 0.776631 0.723058 -0.014934
C71   C     C_3   0.354634 0.939721 0.764961 -0.162784
C72   C     C_3   0.458460 0.215192 0.094224 -0.114249
C73   C     C_3   0.172803 0.014079 0.303757 -0.083693
C74   C     C_3   0.424917 0.526919 0.846871 -0.116814
C75   C     C_3   0.048758 0.423546 0.742856 -0.140209
C76   C     C_3   0.515219 0.904656 0.167754 -0.142598
C77   C     C_3   0.982625 0.841007 0.704186 -0.080008
C78   C     C_R   0.842186 0.765997 0.553080 0.226921
C79   C     C_3   0.918748 0.817662 0.844690 -0.095616
C80   C     C_R   0.804162 0.811183 0.507781 -0.005602
H1    H     H_    0.564502 0.014951 0.355062 0.119565
H2    H     H_    0.299397 0.067101 0.901532 0.162305
H3    H     H_    0.734648 0.979653 0.591429 0.105533
H4    H     H_    0.205924 0.028840 0.902330 0.102703
H5    H     H_    0.303678 0.455582 0.654003 0.126062
H6    H     H_    0.293053 0.354536 0.742790 0.166542
H7    H     H_    0.694000 0.100298 0.338829 0.124967
H8    H     H_    0.599585 0.194923 0.339171 0.159786
H9    H     H_    0.857120 0.455498 0.667928 0.188881
H10   H     H_    0.944251 0.343196 0.748132 0.100924
H11   H     H_    0.828828 0.595288 0.412575 0.263221
H12   H     H_    0.987553 0.539580 0.693895 0.138179
H13   H     H_    0.736787 0.530104 0.378152 0.216558
H14   H     H_    0.882630 0.686435 0.921449 0.240667
H15   H     H_    0.843079 0.604245 0.921838 0.233965
H16   H     H_    0.570037 0.858683 0.935152 0.233393
H17   H     H_    0.481436 0.799180 0.910332 0.209958
H18   H     H_    0.566630 0.725211 0.061207 0.253596
H19   H     H_    0.668903 0.788521 0.168497 0.288807
H20   H     H_    0.698166 0.139578 0.551869 0.233974
H21   H     H_    0.707148 0.112460 0.629485 0.224015
H22   H     H_    0.329767 0.694127 0.781323 0.077153
H23   H     H_    0.914861 0.483828 0.513735 0.165126
H24   H     H_    0.361940 0.618736 0.699900 0.173179
H25   H     H_    0.261987 0.579871 0.684743 0.135487
H26   H     H_    0.167964 0.845698 0.772392 0.122058
H27   H     H_    0.223628 0.764078 0.770064 0.107824
H28   H     H_    0.104396 0.729835 0.695618 0.141009
H29   H     H_    0.322850 0.960337 0.712043 0.125162
H30   H     H_    0.400605 0.904406 0.752166 0.090558
H31   H     H_    0.395966 0.001221 0.844573 0.142990
H32   H     H_    0.090040 0.338322 0.909206 0.211007
H33   H     H_    0.176283 0.376229 0.911910 0.214143
H34   H     H_    0.908531 0.756002 0.097827 0.131421
H35   H     H_    0.264625 0.465533 0.090718 0.227286
H36   H     H_    0.178847 0.427441 0.088672 0.220143
H37   H     H_    0.468023 0.285201 0.149281 0.121865
H38   H     H_    0.421172 0.197652 0.014826 0.094908
H39   H     H_    0.525769 0.210238 0.116382 0.135197
H40   H     H_    0.304284 0.053389 0.084027 0.221273
H41   H     H_    0.226408 0.103682 0.067629 0.190160
H42   H     H_    0.120408 0.947461 0.245004 0.143449
H43   H     H_    0.216808 0.017911 0.375644 0.127420
H44   H     H_    0.211944 0.018313 0.275051 0.092445
H45   H     H_    0.544093 0.676901 0.894261 0.173487
H46   H     H_    0.247461 0.138412 0.282954 0.241537
H47   H     H_    0.158285 0.174987 0.257296 0.250192
H48   H     H_    0.380888 0.514278 0.867015 0.122125
H49   H     H_    0.410262 0.576249 0.828260 0.084344
H50   H     H_    0.494904 0.556461 0.915809 0.163193
H51   H     H_    0.145054 0.352380 0.563925 0.244342
H52   H     H_    0.139305 0.335975 0.643361 0.277439
H53   H     H_    0.665460 0.732663 0.269662 0.236649
H54   H     H_    0.573662 0.697141 0.259150 0.223270
H55   H     H_    0.910619 0.492122 0.839373 0.206223
H56   H     H_    0.630844 0.866980 0.093340 0.130667
H57   H     H_    0.835940 0.397014 0.784654 0.226036
H58   H     H_    0.087001 0.386066 0.771116 0.151766
H59   H     H_    0.047648 0.481461 0.804809 0.081891
H60   H     H_    0.084094 0.450458 0.722905 0.151942
H61   H     H_    0.581803 0.951760 0.208826 0.104148
H62   H     H_    0.469937 0.940632 0.181607 0.124651
H63   H     H_    0.484678 0.866649 0.084130 0.132238
H64   H     H_    0.535113 0.742815 0.375406 0.235011
H65   H     H_    0.583440 0.827639 0.500647 0.231572
H66   H     H_    0.015687 0.810778 0.745811 0.084812
H67   H     H_    0.187732 0.782074 0.367214 0.142456
H68   H     H_    0.944230 0.877708 0.732973 0.096081
H69   H     H_    0.036150 0.890814 0.724984 0.160563
H70   H     H_    0.984871 0.823968 0.856979 0.088775
H71   H     H_    0.919819 0.806352 0.898893 0.168319
H72   H     H_    0.908137 0.882459 0.863972 0.118408
H73   H     H_    0.034200 0.685954 0.868486 0.206060
H74   H     H_    0.944642 0.610058 0.824016 0.237505
H75   H     H_    0.281663 0.687663 0.366907 0.151553
H76   H     H_    0.370610 0.767854 0.724733 0.099696
N1    N     N_3   0.805961 0.545644 0.415525 -0.624490
N2    N     N_3   0.179418 0.372519 0.640133 -0.680388
N3    N     N_3   0.603965 0.740620 0.254105 -0.594711
N4    N     N_3   0.847187 0.446014 0.774725 -0.634140
N5    N     N_3   0.576439 0.761794 0.451058 -0.584642
N6    N     N_3   0.964669 0.666156 0.828796 -0.654752
N7    N     N_3   0.824551 0.645482 0.896983 -0.562841
N8    N     N_3   0.529946 0.793736 0.895612 -0.654236
N9    N     N_3   0.633285 0.746996 0.088502 -0.621100
N10   N     N_3   0.665041 0.096626 0.555188 -0.622590
N11   N     N_3   0.134877 0.319906 0.889840 -0.610349
N12   N     N_3   0.243826 0.429446 0.110054 -0.592450
N13   N     N_3   0.294918 0.114640 0.101762 -0.545204
N14   N     N_3   0.226881 0.192905 0.310744 -0.582480
O1    O     O_3   0.000000 1.000000 0.500000 -0.453793
O2    O     O_R   0.384160 0.323450 0.268320 -0.509986
O3    O     O_R   0.384130 0.444860 0.560610 -0.551455
O4    O     O_R   0.115780 0.055050 0.731580 -0.562257
O5    O     O_R   0.555060 0.615780 0.439210 -0.512423
O6    O     O_R   0.384140 0.323430 0.439180 -0.504187
O7    O     O_R   0.676490 0.615760 0.560640 -0.527895
O8    O     O_R   0.676470 0.615740 0.731500 -0.480000
O9    O     O_R   0.384180 0.444900 0.268330 -0.515850
O10   O     O_R   0.384150 0.615750 0.560620 -0.531523
O11   O     O_R   0.555030 0.323430 0.439190 -0.538368
O12   O     O_R   0.823480 0.055090 0.439280 -0.562625
O13   O     O_R   0.823490 0.884220 0.268410 -0.548666
O14   O     O_R   0.944920 0.176520 0.560720 -0.501077
O15   O     O_R   0.115810 0.884200 0.439290 -0.567423
O16   O     O_R   0.115820 0.176530 0.560730 -0.559037
O17   O     O_R   0.944890 0.884180 0.560700 -0.495016
O18   O     O_R   0.115830 0.055100 0.439300 -0.516701
O19   O     O_R   0.823460 0.884190 0.439270 -0.558260
O20   O     O_3   0.253115 0.652870 0.627746 -0.528324
O21   O     O_3   0.157352 0.762574 0.636645 -0.480525
O22   O     O_3   0.288793 0.888674 0.755308 -0.596039
O23   O     O_R   0.115790 0.884180 0.560710 -0.491431
O24   O     O_3   0.416847 0.156738 0.101085 -0.536007
O25   O     O_3   0.130451 0.079385 0.316491 -0.552054
O26   O     O_3   0.416600 0.447326 0.765452 -0.554604
O27   O     O_3   0.962204 0.366049 0.653676 -0.547361
O28   O     O_3   0.522212 0.843781 0.194056 -0.558265
O29   O     O_3   0.931705 0.773620 0.596942 -0.530536
O30   O     O_3   0.846147 0.750354 0.742872 -0.544109
O31   O     O_R   0.115790 0.176500 0.731590 -0.513602
O32   O     O_R   0.944940 0.884220 0.268420 -0.545470
O33   O     O_3   0.499960 0.499960 0.499910 -0.469412
O34   O     O_R   0.384170 0.615770 0.439200 -0.541575
O35   O     O_R   0.676480 0.444870 0.560630 -0.531890
O36   O     O_R   0.555020 0.615730 0.731490 -0.549205
Zn1   Zn    Zn3+2 0.869870 0.956630 0.413250 0.922932
Zn2   Zn    Zn3+2 0.043380 0.130130 0.586750 0.941599
Zn3   Zn    Zn3+2 0.043390 0.956630 0.413260 0.931575
Zn4   Zn    Zn3+2 0.043360 0.956610 0.586740 0.961455
Zn5   Zn    Zn3+2 0.630090 0.543330 0.586660 0.986621
Zn6   Zn    Zn3+2 0.456570 0.543320 0.586650 0.948504
Zn7   Zn    Zn3+2 0.456580 0.369830 0.413160 0.976531
Zn8   Zn    Zn3+2 0.456590 0.543350 0.413170 0.951854

loop_
_geom_bond_atom_site_label_1
_geom_bond_atom_site_label_2
_ccdc_geom_bond_type
C66   C68   A    
C25   C59   S    
C76   O28   S    
C58   O27   S    
C12   N3    S    
H64   N5    S    
C27   C29   S    
O13   Zn1   S    
C41   C42   A    
O33   Zn8   S    
H41   N13   S    
C35   C36   A    
C1    O31   A    
C57   C58   S    
C63   O6    A    
C39   C41   A    
C54   C60   S    
C53   C54   A    
H47   N14   S    
C12   C68   A    
C23   O28   S    
C26   C27   S    
C57   H9    S    
C3    C9    A    
C47   H5    S    
C36   C37   S    
C16   C50   S    
C18   C19   S    
C2    C68   S    
C70   H27   S    
C5    N6    S    
C18   H45   S    
C37   N13   S    
C30   C31   A    
O1    Zn3   S    
C78   C80   A    
H40   N13   S    
C40   O16   A    
O35   Zn5   S    
C10   C17   A    
C56   C65   S    
C71   H30   S    
O34   Zn8   S    
C1    C31   S    
C30   C38   S    
H20   N10   S    
O12   Zn1   S    
C14   N7    S    
O10   Zn6   S    
C45   N5    S    
C64   N10   S    
C66   H3    S    
C54   C55   A    
C18   N8    S    
C59   O34   A    
C74   H48   S    
C47   C48   S    
C45   C56   A    
C8    C9    A    
C73   H43   S    
C71   H31   S    
C72   H37   S    
C29   O21   S    
C27   H76   S    
C27   O20   S    
C71   O22   S    
C53   H8    S    
C13   H34   S    
C24   H75   S    
C79   H72   S    
C61   O36   A    
O15   Zn3   S    
C76   H61   S    
C23   C34   A    
H54   N3    S    
C61   O8    A    
C44   C63   S    
C7    H23   S    
C13   C14   A    
C38   H2    S    
O33   Zn5   S    
H21   N10   S    
C67   C78   A    
C8    N1    S    
C43   N14   S    
C44   C46   A    
C70   O21   S    
C63   O3    A    
C20   C29   S    
C75   O27   S    
C2    C45   A    
C74   O26   S    
C1    O4    A    
O5    Zn8   S    
C47   O26   S    
C7    C8    A    
C2    C80   A    
C24   C25   A    
C70   H26   S    
C51   H7    S    
C62   O9    A    
O1    Zn4   S    
C69   H25   S    
C48   H6    S    
C50   C51   A    
C25   C26   A    
C69   H22   S    
H32   N11   S    
C48   N2    S    
H52   N2    S    
C49   C58   S    
H16   N8    S    
H53   N3    S    
C64   C66   A    
H51   N2    S    
C43   C44   A    
C9    C67   S    
C37   C38   S    
H46   N14   S    
H15   N7    S    
H65   N5    S    
C58   H10   S    
O18   Zn3   S    
C4    O32   A    
C31   C32   A    
C12   C23   A    
O17   Zn4   S    
C10   C19   S    
C73   H44   S    
C49   C55   A    
C34   C64   A    
C3    O30   S    
C15   C61   S    
C29   O22   S    
C55   C57   S    
C22   H67   S    
C4    C11   S    
H13   N1    S    
C77   O29   S    
C77   H68   S    
H35   N12   S    
C39   C46   A    
C40   C41   S    
C52   O17   A    
C57   N4    S    
C73   H42   S    
C79   H70   S    
C75   H60   S    
C22   C24   A    
O33   Zn6   S    
C32   N11   S    
C33   N12   S    
C42   C43   A    
O32   Zn3   S    
C77   H69   S    
O2    Zn7   S    
C74   H50   S    
H74   N6    S    
C79   H71   S    
C69   H24   S    
C60   O11   A    
C15   C17   A    
C46   C47   S    
C59   O10   A    
C79   O30   S    
H14   N7    S    
H57   N4    S    
C38   H4    S    
O4    Zn4   S    
C52   C80   S    
O33   Zn7   S    
C3    C5    A    
C75   H58   S    
C28   O23   A    
C69   O20   S    
H33   N11   S    
C16   O14   A    
C6    C7    A    
C40   O18   A    
C30   C36   A    
C56   C67   A    
C62   O2    A    
O14   Zn2   S    
C17   C18   S    
O16   Zn2   S    
H73   N6    S    
H55   N4    S    
H17   N8    S    
C37   O24   S    
O7    Zn5   S    
C73   O25   S    
C19   H56   S    
C20   C26   A    
C75   H59   S    
C28   O15   A    
C32   C33   A    
C72   O24   S    
C11   C13   A    
O23   Zn4   S    
C5    C6    A    
C65   O7    A    
O19   Zn1   S    
C6    H12   S    
C71   H29   S    
O9    Zn8   S    
O6    Zn7   S    
C33   C35   A    
O31   Zn2   S    
O8    Zn5   S    
C35   C62   S    
C16   O12   A    
C52   O19   A    
C4    O13   A    
C42   O25   S    
C60   O35   A    
H11   N1    S    
H18   N9    S    
C72   H39   S    
C10   C11   A    
C21   C28   S    
O3    Zn6   S    
C76   H63   S    
O36   Zn6   S    
C20   C21   A    
C49   C50   A    
C78   O29   S    
C74   H49   S    
C72   H38   S    
C14   C15   A    
H36   N12   S    
O11   Zn7   S    
C19   N9    S    
C51   C53   A    
O1    Zn2   S    
C21   C22   A    
O1    Zn1   S    
C77   H66   S    
C70   H28   S    
C34   H1    S    
C65   O5    A    
C39   C48   S    
H19   N9    S    
C76   H62   S    
