data_mof_unit_55057.cif
_audit_creation_date              2012-12-10T19:00:42-0500
_audit_creation_method            fapswitch 2.2
_symmetry_space_group_name_H-M    P1
_symmetry_Int_Tables_number       1
_space_group_crystal_system       triclinic
_cell_length_a                    14.972493
_cell_length_b                    10.850852
_cell_length_c                    9.629794
_cell_angle_alpha                 90.417012
_cell_angle_beta                  89.99442
_cell_angle_gamma                 90.686042
_cell_volume                      1564.34421155

loop_
_atom_site_label
_atom_site_type_symbol
_atom_type_description
_atom_site_fract_x
_atom_site_fract_y
_atom_site_fract_z
_atom_type_partial_charge
C1    C     C_R   0.499923 0.262853 0.499527 0.790962
C2    C     C_R   0.907296 0.603654 0.452009 0.092849
C3    C     C_R   0.951789 0.305871 0.628626 -0.201474
C4    C     C_R   0.045006 0.306413 0.629451 -0.212410
C5    C     C_R   0.092876 0.403747 0.568378 0.112786
C6    C     C_R   0.046844 0.502448 0.507346 0.059701
C7    C     C_R   0.094380 0.600128 0.443750 0.116412
C8    C     C_R   0.048115 0.699376 0.386988 -0.215924
C9    C     C_R   0.955048 0.701746 0.392414 -0.206507
C10   C     C_R   0.186023 0.404272 0.566792 -0.250043
C11   C     C_R   0.232630 0.499729 0.500858 -0.049768
C12   C     C_R   0.329119 0.499576 0.500089 0.806998
C13   C     C_R   0.187406 0.596788 0.438639 -0.257735
C14   C     C_R   0.536470 0.066483 0.611598 0.124725
C15   C     C_R   0.503586 0.129910 0.497615 -0.090957
C16   C     C_R   0.474947 0.063162 0.380555 -0.200071
C17   C     C_R   0.471660 0.935143 0.383917 -0.235732
C18   C     C_R   0.500931 0.871473 0.501327 -0.085298
C19   C     C_R   0.536465 0.938944 0.613332 0.113517
C20   C     C_3   0.509567 0.938190 0.763045 -0.492372
C21   C     C_3   0.509463 0.077379 0.759897 -0.449506
C22   C     C_R   0.574281 0.536018 0.072089 0.149541
C23   C     C_R   0.499301 0.737555 0.500737 0.776545
C24   C     C_R   0.430884 0.448803 0.072699 0.327696
C25   C     C_R   0.429963 0.453533 0.924432 -0.124635
C26   C     C_R   0.575923 0.528575 0.925513 0.124043
C27   C     C_3   0.630913 0.642050 0.907527 -0.027037
C28   C     C_3   0.623105 0.659374 0.065760 0.118681
C29   C     C_R   0.670886 0.500042 0.500564 0.806354
C30   C     C_R   0.814259 0.603117 0.453590 -0.254318
C31   C     C_R   0.767393 0.500989 0.503920 -0.032618
C32   C     C_R   0.812343 0.402836 0.564611 -0.249165
C33   C     C_R   0.905516 0.403502 0.568446 0.117004
C34   C     C_R   0.953226 0.503239 0.509371 0.059435
Cu1   Cu    Cu3+1 0.500000 0.499980 0.640670 0.930026
Cu2   Cu    Cu3+1 0.500000 0.500020 0.359330 0.972638
H1    H     H_    0.777989 0.681606 0.415608 0.169417
H2    H     H_    0.441800 0.886422 0.297695 0.166724
H3    H     H_    0.442176 0.896750 0.779780 0.205816
H4    H     H_    0.563269 0.904415 0.831462 0.219481
H5    H     H_    0.441799 0.116951 0.773597 0.200304
H6    H     H_    0.562755 0.120608 0.824961 0.205774
H7    H     H_    0.372596 0.418258 0.868056 0.155591
H8    H     H_    0.597169 0.710030 0.841522 0.179864
H9    H     H_    0.774665 0.326040 0.607513 0.133574
H10   H     H_    0.915900 0.229133 0.674786 0.148193
H11   H     H_    0.079658 0.230218 0.676561 0.143982
H12   H     H_    0.222430 0.329792 0.614497 0.127859
H13   H     H_    0.224876 0.670683 0.389389 0.129716
H14   H     H_    0.083913 0.775182 0.338785 0.146526
H15   H     H_    0.920355 0.779165 0.347981 0.178728
H16   H     H_    0.449960 0.109473 0.289972 0.165498
N1    N     N_R   0.500570 0.500930 0.147930 -0.207102
N2    N     N_R   0.500570 0.500890 0.852020 -0.213937
O1    O     O_R   0.500000 0.319640 0.618810 -0.582370
O2    O     O_R   0.500010 0.319680 0.381230 -0.555429
O3    O     O_R   0.370250 0.499950 0.618800 -0.589763
O4    O     O_R   0.370260 0.499990 0.381220 -0.562001
O5    O     O_R   0.499990 0.680320 0.618770 -0.586894
O6    O     O_R   0.500000 0.680360 0.381190 -0.594417
O7    O     O_R   0.629740 0.500010 0.618780 -0.589013
O8    O     O_R   0.629750 0.500050 0.381200 -0.558006
N3    N     N_2   0.358287 0.391101 0.142085 -0.368976
H17   H     H_    0.300830 0.442497 0.138548 0.243702
C35   C     C_3   0.341974 0.263358 0.104695 -0.725982
H18   H     H_    0.304736 0.256838 0.005066 0.202227
H19   H     H_    0.301286 0.218714 0.186980 0.233829
H20   H     H_    0.405858 0.213169 0.093813 0.228437
N4    N     N_2   0.721156 0.615004 0.860562 -0.403709
H21   H     H_    0.731649 0.529616 0.816387 0.289684
C36   C     C_3   0.767808 0.715785 0.793872 -0.643574
H22   H     H_    0.838068 0.689480 0.773474 0.233920
H23   H     H_    0.767879 0.798749 0.862167 0.245284
H24   H     H_    0.735025 0.737738 0.693711 0.211732
C37   C     C_2   0.713217 0.659921 0.137232 0.874605
O9    O     O_2   0.747551 0.757400 0.174839 -0.636844
O10   O     O_R   0.760965 0.550171 0.146390 -0.751574
H25   H     H_    0.825071 0.564066 0.176776 0.337988
N5    N     N_2   0.568982 0.766490 0.102177 -0.428132
H26   H     H_    0.580702 0.803895 0.199113 0.290616
C38   C     C_3   0.476275 0.773029 0.057878 -0.735939
H27   H     H_    0.455805 0.870937 0.055602 0.226324
H28   H     H_    0.432241 0.722663 0.131209 0.244505
H29   H     H_    0.465843 0.734286 0.952524 0.229415

loop_
_geom_bond_atom_site_label_1
_geom_bond_atom_site_label_2
_ccdc_geom_bond_type
N3    C35   S    
C32   H9    S    
C19   C20   S    
C9    H15   S    
C25   H7    S    
C38   H27   S    
C7    C8    A    
O10   H25   S    
C23   O5    A    
C26   C27   S    
C14   C21   S    
C1    O2    A    
C28   C37   S    
Cu2   O4    S    
C5    C6    A    
C20   H4    S    
C3    C33   A    
C15   C16   A    
Cu1   O5    S    
C18   C19   A    
N4    C36   S    
C28   N5    S    
Cu2   N1    S    
C27   H8    S    
Cu1   Cu2   S    
C8    C9    A    
C35   H19   S    
C1    C15   S    
C27   N4    S    
C12   O4    A    
C2    C34   A    
C22   C28   S    
Cu1   N2    S    
Cu2   O8    S    
C26   N2    A    
C38   H28   S    
C17   C18   A    
C22   N1    A    
C23   O6    A    
C29   O7    A    
Cu1   O1    S    
C18   C23   S    
C25   N2    A    
N5    C38   S    
C20   H3    S    
C16   C17   A    
C24   N1    A    
N3    H17   S    
C6    C34   A    
C30   H1    S    
C37   O9    D    
Cu2   O2    S    
C31   C32   A    
C7    C13   A    
C35   H20   S    
C33   C34   A    
Cu1   O7    S    
C24   C25   A    
C37   O10   S    
C13   H13   S    
C12   O3    A    
C24   N3    S    
C10   H12   S    
C21   H5    S    
C3    C4    A    
C8    H14   S    
C38   H29   S    
C36   H23   S    
C29   O8    A    
C21   H6    S    
C14   C19   A    
C16   H16   S    
C4    C5    A    
Cu2   O6    S    
C36   H24   S    
C11   C12   S    
C6    C7    A    
C3    H10   S    
C2    C30   A    
Cu1   O3    S    
C32   C33   A    
C1    O1    A    
C5    C10   A    
C29   C31   S    
C11   C13   A    
C30   C31   A    
C17   H2    S    
N4    H21   S    
C10   C11   A    
N5    H26   S    
C36   H22   S    
C20   C21   S    
C35   H18   S    
C22   C26   A    
C27   C28   S    
C14   C15   A    
C2    C9    A    
C4    H11   S    
