data_mof_unit_7245.cif
_audit_creation_date              2012-12-10T17:39:11-0500
_audit_creation_method            fapswitch 2.2
_symmetry_space_group_name_H-M    P1
_symmetry_Int_Tables_number       1
_space_group_crystal_system       triclinic
_cell_length_a                    12.034626
_cell_length_b                    12.901737
_cell_length_c                    23.398173
_cell_angle_alpha                 89.896199
_cell_angle_beta                  86.963467
_cell_angle_gamma                 93.61373
_cell_volume                      3620.61501638

loop_
_atom_site_label
_atom_site_type_symbol
_atom_type_description
_atom_site_fract_x
_atom_site_fract_y
_atom_site_fract_z
_atom_type_partial_charge
C1    C     C_R   0.522223 0.700475 0.495052 0.933781
C2    C     C_R   0.409092 0.452345 0.299626 0.348555
C3    C     C_R   0.420415 0.578043 0.761196 0.499858
C4    C     C_R   0.400941 0.468194 0.240842 0.454557
C5    C     C_R   0.491705 0.518611 0.791903 0.066697
C6    C     C_R   0.492901 0.514486 0.208506 0.044141
C7    C     C_R   0.459597 0.188723 0.488902 -0.386678
C8    C     C_R   0.535605 0.812416 0.485509 -0.385506
C9    C     C_R   0.649126 0.973840 0.472356 0.482948
C10   C     C_R   0.350176 0.026807 0.506716 0.505804
C11   C     C_R   0.641618 0.864697 0.476165 0.338578
C12   C     C_R   0.476939 0.299826 0.497145 0.960423
C13   C     C_R   0.355874 0.135236 0.503933 0.352457
C14   C     C_R   0.438810 0.867853 0.485723 0.512235
C15   C     C_R   0.551150 0.134660 0.468419 0.435969
C16   C     C_R   0.501172 0.502686 0.610503 1.016518
C17   C     C_R   0.499326 0.499543 0.389482 0.933454
C18   C     C_R   0.446827 0.974377 0.491842 -0.255397
C19   C     C_R   0.550348 0.028301 0.478133 -0.276675
C20   C     C_R   0.955388 0.461096 0.428230 -0.305081
C21   C     C_R   0.043976 0.526048 0.573226 -0.321222
C22   C     C_R   0.839711 0.457317 0.437398 -0.031993
C23   C     C_R   0.568028 0.457269 0.763112 -0.314743
C24   C     C_R   0.159584 0.530097 0.563919 -0.071115
C25   C     C_R   0.857059 0.504680 0.534756 0.625245
C26   C     C_R   0.142876 0.501153 0.464600 0.611819
C27   C     C_R   0.974962 0.508117 0.527315 -0.069620
C28   C     C_R   0.024645 0.491012 0.472688 -0.090356
C29   C     C_R   0.477848 0.425120 0.119113 0.652265
C30   C     C_R   0.501142 0.611151 0.881467 0.636908
C31   C     C_R   0.494804 0.610360 0.119918 0.544183
C32   C     C_R   0.457007 0.427834 0.881850 0.539509
C33   C     C_R   0.477144 0.614376 0.061104 -0.177162
C34   C     C_R   0.585816 0.556530 0.235630 -0.272114
C35   C     C_R   0.443087 0.426517 0.941751 -0.181053
C36   C     C_R   0.463036 0.520068 0.031278 -0.152058
C37   C     C_R   0.461074 0.520845 0.971361 -0.150605
C38   C     C_R   0.455117 0.424631 0.061096 -0.181895
C39   C     C_R   0.482619 0.615393 0.941165 -0.191233
C40   C     C_R   0.471261 0.709574 0.031470 0.397962
C41   C     C_R   0.412187 0.334058 0.973054 0.400240
C42   C     C_R   0.481778 0.710812 0.971203 0.431856
C43   C     C_R   0.422191 0.332385 0.032525 0.423109
C44   C     C_3   0.349780 0.801934 0.086066 0.106310
C45   C     C_R   0.573485 0.451394 0.703206 0.454287
C46   C     C_3   0.341925 0.895320 0.125635 -0.268200
C47   C     C_3   0.229346 0.892635 0.159096 -1.009305
C48   C     C_3   0.263361 0.248857 0.933786 0.124570
C49   C     C_3   0.218107 0.141758 0.915201 -0.318821
C50   C     C_3   0.095270 0.141793 0.902065 -0.956740
C51   C     C_3   0.176322 0.562845 0.372544 -0.248773
C52   C     C_3   0.802152 0.621356 0.601968 -0.333784
C53   C     C_3   0.400275 0.858659 0.939282 0.167477
C54   C     C_3   0.299815 0.793466 0.917121 -0.445146
C55   C     C_3   0.200166 0.858848 0.910386 -0.944236
C56   C     C_R   0.586628 0.555815 0.295072 0.415344
C57   C     C_3   0.283904 0.227130 0.078325 0.121458
C58   C     C_3   0.267217 0.190703 0.140590 -0.290499
C59   C     C_3   0.144456 0.163039 0.156861 -0.989773
C60   C     C_3   0.742714 0.372207 0.696459 -0.180885
C61   C     C_3   0.657375 0.709623 0.328156 -0.219149
C62   C     C_3   0.276194 0.673743 0.681730 -0.151990
C63   C     C_3   0.326797 0.287671 0.311782 -0.234109
C64   C     C_3   0.254183 0.575672 0.813420 -0.418262
C65   C     C_3   0.241059 0.517303 0.204093 -0.324447
C66   C     C_3   0.615212 0.205638 0.381952 0.121652
C67   C     C_R   0.502885 0.511658 0.672690 -0.325723
C68   C     C_3   0.657659 0.120394 0.342509 -0.338574
C69   C     C_3   0.632602 0.140058 0.280318 -0.933012
C70   C     C_3   0.334170 0.793823 0.414478 0.095937
C71   C     C_3   0.361491 0.885229 0.372348 -0.453854
C72   C     C_3   0.343013 0.851668 0.310843 -0.937713
C73   C     C_3   0.205192 0.212852 0.472426 -0.260342
C74   C     C_3   0.816504 0.818551 0.498834 -0.233550
C75   C     C_3   0.789906 0.070155 0.512691 -0.242685
C76   C     C_3   0.164228 0.967220 0.507201 -0.170661
C77   C     C_R   0.498494 0.502281 0.327257 -0.362405
C78   C     C_R   0.431445 0.580300 0.700839 0.319423
H1    H     H_    0.210675 0.538200 0.600038 0.173743
H2    H     H_    0.353755 0.967590 0.099577 0.221052
H3    H     H_    0.161026 0.898387 0.129362 0.271805
H4    H     H_    0.227859 0.958732 0.189319 0.274892
H5    H     H_    0.215329 0.819552 0.184372 0.269396
H6    H     H_    0.254566 0.305208 0.898548 0.163105
H7    H     H_    0.211588 0.273549 0.971593 0.073204
H8    H     H_    0.266982 0.117620 0.876378 0.246903
H9    H     H_    0.227748 0.084759 0.949967 0.213730
H10   H     H_    0.044619 0.163627 0.940743 0.267321
H11   H     H_    0.065231 0.062917 0.888578 0.277342
H12   H     H_    0.787895 0.436792 0.402338 0.178689
H13   H     H_    0.083912 0.197442 0.866882 0.267966
H14   H     H_    0.258058 0.601042 0.358117 0.172047
H15   H     H_    0.121085 0.623523 0.389147 0.100914
H16   H     H_    0.138993 0.528063 0.334153 0.185983
H17   H     H_    0.737914 0.656264 0.577302 0.205768
H18   H     H_    0.883731 0.666208 0.594783 0.124782
H19   H     H_    0.776415 0.628246 0.647959 0.190958
H20   H     H_    0.419501 0.924796 0.909151 0.191631
H21   H     H_    0.379212 0.895074 0.980854 0.153331
H22   H     H_    0.324001 0.760805 0.874921 0.306692
H23   H     H_    0.989314 0.440493 0.386407 0.192781
H24   H     H_    0.273703 0.728623 0.947172 0.191068
H25   H     H_    0.174352 0.893402 0.952075 0.260778
H26   H     H_    0.129110 0.809023 0.895279 0.274572
H27   H     H_    0.221487 0.921414 0.878316 0.275132
H28   H     H_    0.246155 0.166067 0.050668 0.152497
H29   H     H_    0.237786 0.299077 0.073807 0.090563
H30   H     H_    0.316327 0.122342 0.147443 0.229680
H31   H     H_    0.297400 0.253134 0.169299 0.284026
H32   H     H_    0.094790 0.231841 0.151672 0.277073
H33   H     H_    0.135237 0.137478 0.202300 0.265520
H34   H     H_    0.009527 0.534403 0.616536 0.185070
H35   H     H_    0.111702 0.098979 0.129574 0.272745
H36   H     H_    0.735599 0.316187 0.732754 0.144962
H37   H     H_    0.781352 0.448647 0.709580 0.146662
H38   H     H_    0.799790 0.340390 0.663064 0.198050
H39   H     H_    0.583175 0.720177 0.357506 0.134262
H40   H     H_    0.647789 0.748411 0.286306 0.159213
H41   H     H_    0.730728 0.748766 0.347625 0.225752
H42   H     H_    0.226600 0.601018 0.694689 0.113151
H43   H     H_    0.239397 0.704351 0.643146 0.167626
H44   H     H_    0.268810 0.734868 0.714753 0.217290
H45   H     H_    0.619875 0.411414 0.788238 0.194040
H46   H     H_    0.300033 0.235411 0.348241 0.138617
H47   H     H_    0.409786 0.263971 0.295097 0.129733
H48   H     H_    0.264697 0.275006 0.278699 0.211068
H49   H     H_    0.271545 0.546753 0.856501 0.174829
H50   H     H_    0.229648 0.509075 0.785456 0.157360
H51   H     H_    0.181227 0.623843 0.818819 0.198697
H52   H     H_    0.276440 0.562173 0.166180 0.154127
H53   H     H_    0.232635 0.569636 0.241677 0.145566
H54   H     H_    0.156004 0.486824 0.194244 0.192237
H55   H     H_    0.658400 0.281010 0.368415 0.157535
H56   H     H_    0.656357 0.592279 0.210603 0.206346
H57   H     H_    0.524542 0.214030 0.376676 0.088276
H58   H     H_    0.749217 0.117390 0.345732 0.254415
H59   H     H_    0.617280 0.043893 0.356061 0.214923
H60   H     H_    0.541194 0.134835 0.275417 0.259995
H61   H     H_    0.670179 0.080287 0.252656 0.276747
H62   H     H_    0.668142 0.217942 0.265999 0.275147
H63   H     H_    0.248101 0.763041 0.407444 0.157475
H64   H     H_    0.390117 0.730397 0.404190 0.129550
H65   H     H_    0.308269 0.950237 0.383311 0.216945
H66   H     H_    0.450199 0.913618 0.374576 0.208708
H67   H     H_    0.326193 0.730660 0.111844 0.139808
H68   H     H_    0.396592 0.787330 0.298622 0.264315
H69   H     H_    0.364839 0.918243 0.281340 0.274901
H70   H     H_    0.254267 0.825460 0.306164 0.259129
H71   H     H_    0.122868 0.240321 0.486894 0.185371
H72   H     H_    0.190053 0.145503 0.443732 0.097438
H73   H     H_    0.250112 0.276298 0.446897 0.221859
H74   H     H_    0.783924 0.829586 0.543727 0.115389
H75   H     H_    0.878429 0.882442 0.485506 0.187756
H76   H     H_    0.861993 0.746402 0.497718 0.162129
H77   H     H_    0.743193 0.138649 0.525398 0.213020
H78   H     H_    0.287548 0.806455 0.052822 0.095973
H79   H     H_    0.878896 0.097262 0.505534 0.167062
H80   H     H_    0.784158 0.013664 0.548852 0.113864
H81   H     H_    0.116580 0.893154 0.518968 0.168707
H82   H     H_    0.179622 0.966652 0.459938 0.116544
H83   H     H_    0.110622 0.030710 0.520449 0.169912
H84   H     H_    0.409110 0.895180 0.156462 0.259527
N1    N     N_R   0.491568 0.516900 0.147533 -0.321568
N2    N     N_R   0.485093 0.519052 0.853262 -0.326840
N3    N     N_R   0.207800 0.519350 0.510590 -0.131314
N4    N     N_R   0.792200 0.480650 0.489410 -0.140149
O1    O     O_R   0.421690 0.658830 0.502820 -0.580971
O2    O     O_2   0.536161 0.697671 0.851533 -0.481628
O3    O     O_2   0.516049 0.698576 0.149395 -0.544055
O4    O     O_2   0.444683 0.338706 0.852104 -0.526324
O5    O     O_3   0.459661 0.801925 0.060632 -0.583367
O6    O     O_3   0.376698 0.243239 0.946334 -0.574117
O7    O     O_3   0.193628 0.482291 0.411710 -0.561295
O8    O     O_3   0.807433 0.515099 0.588824 -0.589821
O9    O     O_3   0.499009 0.804252 0.941386 -0.568588
O10   O     O_3   0.399454 0.240092 0.062605 -0.573067
O11   O     O_3   0.637832 0.381231 0.673186 -0.561939
O12   O     O_R   0.578310 0.341170 0.497180 -0.583842
O13   O     O_3   0.676408 0.603515 0.321299 -0.584833
O14   O     O_3   0.389276 0.657690 0.667876 -0.588491
O15   O     O_3   0.328588 0.391515 0.331073 -0.539488
O16   O     O_3   0.345782 0.639107 0.790146 -0.595764
O17   O     O_3   0.305411 0.432423 0.214889 -0.610684
O18   O     O_3   0.641672 0.186284 0.439164 -0.581186
O19   O     O_3   0.335913 0.821095 0.473342 -0.585682
O20   O     O_3   0.262996 0.187580 0.521285 -0.558561
O21   O     O_3   0.732046 0.808090 0.459347 -0.576993
O22   O     O_3   0.752596 0.025380 0.461353 -0.569797
O23   O     O_R   0.609320 0.646410 0.496030 -0.596295
O24   O     O_3   0.262546 0.973429 0.537663 -0.545384
O25   O     O_R   0.390680 0.353590 0.503970 -0.586386
O26   O     O_R   0.406170 0.506240 0.587240 -0.622772
O27   O     O_R   0.593830 0.493760 0.412760 -0.611576
O28   O     O_R   0.593790 0.493820 0.580450 -0.545504
O29   O     O_R   0.406210 0.506180 0.419550 -0.566252
O30   O     O_2   0.489174 0.335141 0.147036 -0.533506
Zn1   Zn    Zn3+2 0.374720 0.508290 0.504530 1.016129
Zn2   Zn    Zn3+2 0.625280 0.491710 0.495470 1.018750

loop_
_geom_bond_atom_site_label_1
_geom_bond_atom_site_label_2
_ccdc_geom_bond_type
O23   Zn2   S    
C69   H61   S    
C66   C68   S    
C26   N3    A    
C34   C56   A    
C23   C45   A    
C73   H72   S    
C61   H41   S    
C58   H31   S    
C49   H9    S    
C17   O27   A    
C75   O22   S    
C30   N2    A    
C9    O22   S    
C54   H22   S    
C59   H32   S    
N4    Zn2   S    
C63   H46   S    
C76   H83   S    
C76   H81   S    
C53   C54   S    
C53   H21   S    
C15   C19   A    
C10   O24   S    
C55   H27   S    
C78   O14   S    
C36   C37   A    
C35   C37   A    
C42   O9    S    
C62   O14   S    
C34   H56   S    
O27   Zn2   S    
C1    C8    S    
C55   H25   S    
C52   H19   S    
C33   C36   A    
C74   H76   S    
C52   H17   S    
C18   C19   A    
C46   C47   S    
C47   H4    S    
C51   O7    S    
C14   C18   A    
C32   O4    S    
C16   O26   A    
C70   O19   S    
C48   O6    S    
C60   H36   S    
C25   O8    S    
C9    C19   A    
C68   C69   S    
C64   H50   S    
C29   C38   A    
C45   C67   A    
C59   H33   S    
C31   C33   A    
C70   C71   S    
C47   H5    S    
C62   H42   S    
C50   H10   S    
C64   O16   S    
C75   H79   S    
C69   H62   S    
C40   C42   A    
C57   H28   S    
O12   Zn2   S    
C73   H73   S    
C41   C43   A    
C74   H74   S    
C68   H59   S    
C67   C78   A    
C65   H53   S    
C44   C46   S    
C65   H52   S    
C39   C42   A    
O1    Zn1   S    
C7    C12   S    
C41   O6    S    
C31   N1    A    
C70   H64   S    
C33   C40   A    
C61   H39   S    
C44   H78   S    
C5    N2    S    
C68   H58   S    
C76   O24   S    
C4    C6    A    
C14   O19   S    
C23   H45   S    
C20   H23   S    
C31   O3    S    
C26   O7    S    
C58   C59   S    
C72   H70   S    
C55   H26   S    
C56   C77   A    
C6    C34   A    
C74   H75   S    
C2    O15   S    
C2    C4    A    
C29   N1    A    
C32   C35   A    
C50   H11   S    
N3    Zn1   S    
C51   H14   S    
C57   O10   S    
C43   O10   S    
C24   H1    S    
C5    C23   A    
C59   H35   S    
C64   H49   S    
C15   O18   S    
C17   C77   S    
C44   H67   S    
C22   H12   S    
C63   O15   S    
C16   C67   S    
O26   Zn1   S    
C64   H51   S    
C9    C11   A    
C63   H47   S    
C51   H15   S    
C75   H80   S    
C48   C49   S    
C57   H29   S    
C20   C22   A    
C61   O13   S    
C73   O20   S    
C25   N4    A    
C11   O21   S    
C17   O29   A    
C29   O30   S    
C52   O8    S    
C62   H44   S    
C65   H54   S    
C53   O9    S    
C71   H65   S    
C74   O21   S    
C65   O17   S    
C66   H55   S    
C69   H60   S    
C12   O25   A    
C66   O18   S    
C54   C55   S    
C76   H82   S    
C70   H63   S    
C8    C14   A    
C13   O20   S    
C73   H71   S    
C61   H40   S    
C49   H8    S    
C54   H24   S    
O25   Zn1   S    
C3    C5    A    
C10   C13   A    
C75   H77   S    
C45   O11   S    
C53   H20   S    
C25   C27   A    
C72   H69   S    
C20   C28   A    
C26   C28   A    
C21   H34   S    
C36   C38   A    
C24   N3    A    
C60   O11   S    
C44   O5    S    
C30   O2    S    
C38   C43   A    
C37   C39   A    
C60   H38   S    
C40   O5    S    
C46   H2    S    
C57   C58   S    
O28   Zn2   S    
C10   C18   A    
C8    C11   A    
C72   H68   S    
C32   N2    A    
C7    C15   A    
C30   C39   A    
C52   H18   S    
C58   H30   S    
C47   H3    S    
C4    O17   S    
C21   C27   A    
C35   C41   A    
C3    O16   S    
C63   H48   S    
C16   O28   A    
C51   H16   S    
C66   H57   S    
C22   N4    A    
C48   H6    S    
C50   H13   S    
C7    C13   A    
C71   C72   S    
C6    N1    S    
C49   C50   S    
C46   H84   S    
C21   C24   A    
C27   C28   A    
C2    C77   A    
C1    O1    A    
C48   H7    S    
C60   H37   S    
C12   O12   A    
C3    C78   A    
C62   H43   S    
C71   H66   S    
O29   Zn1   S    
C56   O13   S    
C1    O23   A    
