data_mof_unit_51739.cif
_audit_creation_date              2012-12-10T20:25:45-0500
_audit_creation_method            fapswitch 2.2
_symmetry_space_group_name_H-M    P1
_symmetry_Int_Tables_number       1
_space_group_crystal_system       triclinic
_cell_length_a                    8.579446
_cell_length_b                    10.719598
_cell_length_c                    9.905566
_cell_angle_alpha                 89.588166
_cell_angle_beta                  98.954762
_cell_angle_gamma                 90.720628
_cell_volume                      899.809757689

loop_
_atom_site_label
_atom_site_type_symbol
_atom_type_description
_atom_site_fract_x
_atom_site_fract_y
_atom_site_fract_z
_atom_type_partial_charge
C1    C     C_R   0.503162 0.260156 0.500724 0.938884
C2    C     C_R   0.364052 0.476785 0.911059 0.247323
C3    C     C_3   0.263254 0.362302 0.893697 -0.520998
C4    C     C_R   0.201228 0.500130 0.463989 0.994237
C5    C     C_3   0.264925 0.361255 0.047260 -0.468199
C6    C     C_R   0.504126 0.739715 0.500237 0.885903
C7    C     C_R   0.798768 0.501043 0.535938 0.973044
C8    C     C_2   0.035721 0.499213 0.444808 -0.348134
C9    C     C_2   0.964204 0.504492 0.554767 -0.355601
C10   C     C_R   0.500316 0.061562 0.620884 0.121482
C11   C     C_R   0.520310 0.128398 0.503787 -0.055788
C12   C     C_R   0.565634 0.936679 0.391459 -0.185144
C13   C     C_R   0.564810 0.065994 0.391812 -0.202162
C14   C     C_2   0.768439 0.596546 0.899882 0.969290
C15   C     C_2   0.445400 0.867425 0.853056 0.997935
C16   C     C_2   0.215206 0.110181 0.652402 0.414807
C17   C     C_R   0.524040 0.871226 0.503932 -0.108821
C18   C     C_R   0.506910 0.934529 0.622656 0.110594
C19   C     C_3   0.383845 0.921492 0.714294 -0.295998
C20   C     C_3   0.376764 0.063563 0.713237 -0.308778
C21   C     C_R   0.364450 0.476264 0.053127 0.229525
C22   C     C_R   0.628941 0.537734 0.090245 -0.180242
C23   C     C_R   0.628704 0.541030 0.946886 -0.012949
H1    H     H_    0.973289 0.492795 0.340697 0.182965
H2    H     H_    0.424113 0.106080 0.813180 0.148621
H3    H     H_    0.732343 0.568461 0.159334 0.176382
H4    H     H_    0.005725 0.600118 0.915684 0.346625
H5    H     H_    0.403032 0.753878 0.006424 0.330142
H6    H     H_    0.122030 0.108300 0.714944 0.084753
H7    H     H_    0.144500 0.379761 0.834856 0.219651
H8    H     H_    0.326274 0.283532 0.857516 0.200717
H9    H     H_    0.147430 0.379138 0.076681 0.242695
H10   H     H_    0.328841 0.280629 0.100020 0.215766
H11   H     H_    0.026597 0.512243 0.658573 0.178174
H12   H     H_    0.590466 0.116101 0.302320 0.179862
H13   H     H_    0.590556 0.888744 0.301420 0.185831
H14   H     H_    0.274577 0.873730 0.663124 0.154830
N1    N     N_R   0.498950 0.499140 0.142680 -0.126544
N2    N     N_R   0.498950 0.499180 0.857030 -0.148964
O1    O     O_R   0.500020 0.316790 0.614690 -0.625249
O2    O     O_R   0.918493 0.553239 0.953515 -0.850145
O3    O     O_2   0.573668 0.900515 0.915180 -0.611651
O4    O     O_R   0.352566 0.780752 0.911479 -0.819643
O5    O     O_2   0.186321 0.148782 0.535019 -0.571143
O6    O     O_R   0.500000 0.316760 0.385350 -0.627804
O7    O     O_R   0.271760 0.500010 0.587850 -0.614462
O8    O     O_R   0.271740 0.499970 0.358500 -0.616565
O9    O     O_R   0.500000 0.683240 0.614650 -0.585281
O10   O     O_R   0.499980 0.683210 0.385310 -0.629278
O11   O     O_R   0.728260 0.500030 0.641500 -0.614423
O12   O     O_R   0.728240 0.499990 0.412150 -0.628324
O13   O     O_2   0.754046 0.684917 0.820583 -0.576415
Zn1   Zn    Zn3+2 0.500010 0.500020 0.653130 0.997508
Zn2   Zn    Zn3+2 0.499990 0.499980 0.346870 0.961153

loop_
_geom_bond_atom_site_label_1
_geom_bond_atom_site_label_2
_ccdc_geom_bond_type
C14   C23   S    
C12   C17   A    
C3    H7    S    
C15   C19   S    
C20   H2    S    
C12   H13   S    
C16   O5    D    
H5    O4    S    
C19   C20   S    
N1    Zn2   S    
C16   C20   S    
C4    C8    S    
O12   Zn2   S    
C5    H9    S    
C2    C21   A    
C2    C3    S    
C15   O4    S    
C4    O7    A    
C3    H8    S    
C11   C13   A    
C1    O6    A    
N2    Zn1   S    
C6    O9    A    
C10   C18   A    
O8    Zn2   S    
C23   N2    A    
O7    Zn1   S    
C8    H1    S    
O6    Zn2   S    
C13   H12   S    
C5    H10   S    
C14   O2    S    
C6    O10   A    
O9    Zn1   S    
O11   Zn1   S    
C10   C11   A    
C7    O12   A    
O10   Zn2   S    
C22   N1    A    
C5    C21   S    
C12   C13   A    
C7    O11   A    
C17   C18   A    
O1    Zn1   S    
C22   H3    S    
C10   C20   S    
C7    C9    S    
C6    C17   S    
H4    O2    S    
C22   C23   A    
C18   C19   S    
C19   H14   S    
C1    O1    A    
C16   H6    S    
C2    N2    A    
C14   O13   D    
C21   N1    A    
C15   O3    D    
C9    H11   S    
C8    C9    D    
C3    C5    S    
C4    O8    A    
C1    C11   S    
