data_mof_unit_44157.cif
_audit_creation_date              2012-10-26T21:08:11-0400
_audit_creation_method            fapswitch 2.2
_symmetry_space_group_name_H-M    P1
_symmetry_Int_Tables_number       1
_space_group_crystal_system       triclinic
_cell_length_a                    15.88981
_cell_length_b                    10.848797
_cell_length_c                    9.666547
_cell_angle_alpha                 90.945936
_cell_angle_beta                  92.386219
_cell_angle_gamma                 95.107013
_cell_volume                      1657.97423951

loop_
_atom_site_label
_atom_site_type_symbol
_atom_type_description
_atom_site_fract_x
_atom_site_fract_y
_atom_site_fract_z
_atom_type_partial_charge
C1    C     C_R   0.506569 0.263572 0.499299 0.549473
C2    C     C_R   0.566513 0.072645 0.872450 -0.077725
C3    C     C_R   0.517234 0.961075 0.883319 -0.171985
C4    C     C_R   0.340035 0.496862 0.497196 0.540529
C5    C     C_R   0.486912 0.895390 0.763772 -0.101329
C6    C     C_R   0.503448 0.943252 0.631352 -0.001394
C7    C     C_R   0.533595 0.068990 0.623610 0.015063
C8    C     C_R   0.517472 0.130370 0.497771 0.021890
C9    C     C_R   0.498708 0.059715 0.374415 0.062949
C10   C     C_R   0.490125 0.931834 0.379582 -0.156416
C11   C     C_R   0.492121 0.871869 0.506172 -0.031183
C12   C     C_3   0.082454 0.468798 0.489378 0.000574
C13   C     C_R   0.638094 0.638978 0.147768 0.119932
C14   C     C_R   0.715577 0.660157 0.081710 0.117996
C15   C     C_R   0.717371 0.627811 0.943165 0.131601
C16   C     C_R   0.495240 0.737080 0.501665 0.557979
C17   C     C_R   0.640767 0.615429 0.867679 0.145336
C18   C     C_R   0.567984 0.559959 0.930464 0.084808
C19   C     C_R   0.567603 0.564107 0.079477 0.099569
C20   C     C_R   0.435488 0.440415 0.068201 0.244181
C21   C     C_R   0.436257 0.441447 0.920050 0.014752
C22   C     C_R   0.659813 0.495623 0.502377 0.525627
C23   C     C_3   0.979882 0.575602 0.542429 0.101624
C24   C     C_3   0.973677 0.379250 0.587691 0.095320
C25   C     C_3   0.020446 0.352899 0.454296 -0.101959
C26   C     C_1   0.250062 0.486937 0.490270 -0.023283
C27   C     C_1   0.748692 0.481373 0.507316 -0.046481
C28   C     C_3   0.036709 0.492142 0.623287 0.188246
C29   C     C_3   0.285823 0.349817 0.063505 -0.343212
C30   C     C_3   0.851208 0.675390 0.209052 -0.298423
C31   C     C_3   0.822837 0.518074 0.844504 -0.319392
C32   C     C_3   0.040754 0.553745 0.871453 -0.314461
C33   C     C_3   0.915201 0.462930 0.508104 0.083046
C34   C     C_3   0.026039 0.554338 0.407593 -0.108894
C35   C     C_3   0.962935 0.439258 0.376513 0.085651
C36   C     C_1   0.174281 0.477529 0.486729 -0.055456
C37   C     C_1   0.823453 0.469729 0.509352 -0.034205
C38   C     C_R   0.576875 0.126872 0.743442 0.143283
Cu1   Cu    Cu3+1 0.499990 0.499990 0.640660 0.934136
Cu2   Cu    Cu3+1 0.500010 0.500010 0.359340 0.992682
H1    H     H_    0.037410 0.261682 0.416088 0.112496
H2    H     H_    0.288222 0.272764 0.987085 0.123048
H3    H     H_    0.266525 0.433892 0.011052 0.151022
H4    H     H_    0.627162 0.808176 0.230706 0.194129
H5    H     H_    0.677570 0.712970 0.337313 0.231206
H6    H     H_    0.770121 0.815272 0.196920 0.245173
H7    H     H_    0.878712 0.613994 0.133891 0.191037
H8    H     H_    0.902452 0.744303 0.249789 0.127158
H9    H     H_    0.825739 0.621028 0.295946 0.175569
H10   H     H_    0.840795 0.701729 0.910241 0.283743
H11   H     H_    0.875616 0.529176 0.774448 0.176131
H12   H     H_    0.506661 0.921723 0.984001 0.104929
H13   H     H_    0.844635 0.476592 0.942435 0.137733
H14   H     H_    0.771766 0.454169 0.793912 0.177643
H15   H     H_    0.683979 0.704176 0.696238 0.251128
H16   H     H_    0.636882 0.791500 0.808083 0.214022
H17   H     H_    0.999919 0.250624 0.729539 0.226334
H18   H     H_    0.913063 0.322101 0.760279 0.222578
H19   H     H_    0.969775 0.394128 0.172916 0.217791
H20   H     H_    0.886281 0.323244 0.249625 0.241378
H21   H     H_    0.013478 0.754608 0.599496 0.237878
H22   H     H_    0.918837 0.730686 0.515175 0.222445
H23   H     H_    0.449458 0.808854 0.777474 0.161442
H24   H     H_    0.127353 0.453556 0.774406 0.242322
H25   H     H_    0.087022 0.581384 0.958072 0.138820
H26   H     H_    0.998511 0.474103 0.905370 0.120942
H27   H     H_    0.004639 0.634350 0.848422 0.187474
H28   H     H_    0.430960 0.085479 0.196979 0.217923
H29   H     H_    0.536476 0.085919 0.179938 0.217966
H30   H     H_    0.621634 0.305557 0.785220 0.262034
H31   H     H_    0.654488 0.248078 0.632805 0.234624
H32   H     H_    0.480032 0.879645 0.282819 0.140907
H33   H     H_    0.385523 0.392107 0.858294 0.129898
H34   H     H_    0.047288 0.625396 0.332193 0.104107
H35   H     H_    0.597954 0.116751 0.964137 0.121854
H36   H     H_    0.384199 0.307602 0.201310 0.287486
H37   H     H_    0.237487 0.321515 0.139273 0.148018
N1    N     N_R   0.500800 0.501210 0.147910 -0.213150
N2    N     N_3   0.957774 0.695562 0.591856 -0.641537
N3    N     N_2   0.085598 0.518774 0.752289 -0.508923
N4    N     N_3   0.490131 0.116427 0.242371 -0.611165
N5    N     N_3   0.641458 0.227713 0.735313 -0.629081
N6    N     N_R   0.500830 0.501290 0.852040 -0.259179
N7    N     N_2   0.367233 0.375819 0.135892 -0.480046
N8    N     N_3   0.627593 0.717005 0.264129 -0.547638
N9    N     N_2   0.784946 0.738311 0.142444 -0.541301
N10   N     N_2   0.793547 0.637745 0.871358 -0.511692
N11   N     N_3   0.632779 0.703671 0.760875 -0.527704
N12   N     N_3   0.945790 0.282344 0.682320 -0.626986
N13   N     N_3   0.922137 0.408123 0.241307 -0.667145
O1    O     O_R   0.499990 0.319640 0.618810 -0.518600
O2    O     O_R   0.500000 0.319660 0.381240 -0.469616
O3    O     O_R   0.379070 0.499980 0.618770 -0.511873
O4    O     O_R   0.379080 0.500000 0.381190 -0.474325
O5    O     O_R   0.500000 0.680340 0.618760 -0.474844
O6    O     O_R   0.500010 0.680360 0.381190 -0.467583
O7    O     O_R   0.620920 0.500000 0.618810 -0.492016
O8    O     O_R   0.620930 0.500020 0.381230 -0.476435

loop_
_geom_bond_atom_site_label_1
_geom_bond_atom_site_label_2
_ccdc_geom_bond_type
C22   O8    A    
C29   H2    S    
C1    C8    S    
C24   N12   S    
H36   N7    S    
C7    C8    A    
H17   N12   S    
C12   C28   S    
H28   N4    S    
C30   H8    S    
H21   N2    S    
C18   C19   A    
Cu2   O8    S    
C5    C6    A    
H16   N11   S    
C17   N11   S    
C21   H33   S    
C5    H23   S    
C34   C35   S    
H15   N11   S    
Cu1   O3    S    
C21   N6    A    
C8    C9    A    
C23   C33   S    
Cu2   O4    S    
C30   N9    S    
C9    C10   A    
H31   N5    S    
C1    O1    A    
C22   O7    A    
C13   C14   A    
C29   H3    S    
H24   N3    S    
Cu2   O6    S    
C28   N3    S    
Cu1   O1    S    
C18   N6    A    
C16   O6    A    
C31   N10   S    
C13   C19   A    
C30   H7    S    
C24   C25   S    
C14   N9    S    
C29   N7    S    
C25   H1    S    
C6    C11   A    
Cu1   O7    S    
Cu2   O2    S    
H19   N13   S    
C19   N1    A    
H5    N8    S    
C32   N3    S    
C11   C16   S    
C2    C38   A    
C23   C34   S    
C17   C18   A    
C23   C28   S    
C31   H13   S    
Cu1   O5    S    
H10   N10   S    
C25   C35   S    
C32   H27   S    
C4    O4    A    
C26   C36   T    
C30   H9    S    
C34   H34   S    
C1    O2    A    
C22   C27   S    
C20   N7    S    
Cu2   N1    S    
C12   C36   S    
C12   C34   S    
H4    N8    S    
Cu1   Cu2   S    
C32   H26   S    
C15   C17   A    
C16   O5    A    
C24   C28   S    
C31   H11   S    
C3    C5    A    
C4    C26   S    
C3    H12   S    
C6    C7    A    
H20   N13   S    
C24   C33   S    
C20   N1    A    
C12   C25   S    
C2    C3    A    
Cu1   N6    S    
C27   C37   T    
C33   C35   S    
C7    C38   A    
C31   H14   S    
H30   N5    S    
H18   N12   S    
C33   C37   S    
H22   N2    S    
H29   N4    S    
C10   C11   A    
C4    O3    A    
C35   N13   S    
C29   H37   S    
C20   C21   A    
C15   N10   S    
C13   N8    S    
C14   C15   A    
C23   N2    S    
C38   N5    S    
C2    H35   S    
C9    N4    S    
C32   H25   S    
H6    N9    S    
C10   H32   S    
