data_mof_unit_16783.cif
_audit_creation_date              2012-12-10T20:25:39-0500
_audit_creation_method            fapswitch 2.2
_symmetry_space_group_name_H-M    P1
_symmetry_Int_Tables_number       1
_space_group_crystal_system       triclinic
_cell_length_a                    8.614284
_cell_length_b                    10.666437
_cell_length_c                    9.884362
_cell_angle_alpha                 90.324734
_cell_angle_beta                  98.671355
_cell_angle_gamma                 89.94017
_cell_volume                      897.8160698

loop_
_atom_site_label
_atom_site_type_symbol
_atom_type_description
_atom_site_fract_x
_atom_site_fract_y
_atom_site_fract_z
_atom_type_partial_charge
C1    C     C_R   0.497190 0.260168 0.499670 0.862534
C2    C     C_R   0.498561 0.390040 0.927771 0.207624
C3    C     C_3   0.374596 0.291709 0.905513 -0.493294
C4    C     C_R   0.201423 0.501413 0.463729 0.849969
C5    C     C_3   0.378702 0.289500 0.059512 -0.520244
C6    C     C_R   0.497472 0.739794 0.500135 0.889143
C7    C     C_R   0.798691 0.501512 0.535298 0.997968
C8    C     C_2   0.036629 0.514056 0.442481 0.284386
C9    C     C_2   0.963448 0.494002 0.550805 -0.508832
C10   C     C_R   0.531334 0.064494 0.621494 0.125784
C11   C     C_R   0.481444 0.128380 0.500489 -0.088837
C12   C     C_R   0.407761 0.934320 0.384681 -0.217753
C13   C     C_R   0.406661 0.064149 0.384952 -0.238431
C14   C     C_3   0.952738 0.490374 0.209394 0.151177
C15   C     C_3   0.989838 0.564161 0.086094 -0.341052
C16   C     C_3   0.958437 0.486943 0.954603 -0.959776
C17   C     C_R   0.481261 0.871469 0.501118 -0.091133
C18   C     C_R   0.530686 0.936753 0.622031 0.127878
C19   C     C_3   0.683921 0.929927 0.715627 -0.488511
C20   C     C_3   0.684744 0.072065 0.714731 -0.489158
C21   C     C_R   0.500094 0.389874 0.070281 0.199772
C22   C     C_R   0.513737 0.608712 0.074309 -0.137060
C23   C     C_R   0.513914 0.608700 0.930687 -0.135445
H1    H     H_    0.522793 0.696707 0.878875 0.151716
H2    H     H_    0.779026 0.887303 0.665910 0.204901
H3    H     H_    0.672610 0.114299 0.815648 0.200079
H4    H     H_    0.780076 0.112501 0.664142 0.199132
H5    H     H_    0.522572 0.696799 0.129455 0.157238
H6    H     H_    0.830435 0.454962 0.186650 0.163593
H7    H     H_    0.031095 0.406644 0.224465 0.100077
H8    H     H_    0.915894 0.650043 0.073483 0.228439
H9    H     H_    0.115238 0.593110 0.104111 0.235669
H10   H     H_    0.030308 0.400248 0.963567 0.252388
H11   H     H_    0.989212 0.543528 0.868663 0.275962
H12   H     H_    0.262105 0.327428 0.848774 0.211782
H13   H     H_    0.832451 0.461076 0.931913 0.273781
H14   H     H_    0.417542 0.203276 0.864246 0.201439
H15   H     H_    0.268015 0.321116 0.093875 0.209248
H16   H     H_    0.428043 0.200625 0.105326 0.196999
H17   H     H_    0.023976 0.461257 0.648717 0.146388
H18   H     H_    0.353062 0.113526 0.294733 0.155773
H19   H     H_    0.357428 0.883829 0.293085 0.162170
H20   H     H_    0.670825 0.890249 0.817016 0.196553
N1    N     N_R   0.498950 0.499140 0.142680 -0.112045
N2    N     N_R   0.498950 0.499180 0.857030 -0.105933
O1    O     O_R   0.500020 0.316790 0.614690 -0.618641
O2    O     O_R   0.500000 0.316760 0.385350 -0.629873
O3    O     O_R   0.271760 0.500010 0.587850 -0.632340
O4    O     O_R   0.271740 0.499970 0.358500 -0.619200
O5    O     O_R   0.500000 0.683240 0.614650 -0.624502
O6    O     O_R   0.499980 0.683210 0.385310 -0.625601
O7    O     O_R   0.728260 0.500030 0.641500 -0.628539
O8    O     O_R   0.728240 0.499990 0.412150 -0.573888
O9    O     O_3   0.963980 0.572484 0.323817 -0.617936
Zn1   Zn    Zn3+2 0.500010 0.500020 0.653130 0.933793
Zn2   Zn    Zn3+2 0.499990 0.499980 0.346870 0.944671

loop_
_geom_bond_atom_site_label_1
_geom_bond_atom_site_label_2
_ccdc_geom_bond_type
O1    Zn1   S    
C12   C17   A    
O3    Zn1   S    
C23   H1    S    
C15   H8    S    
C23   N2    A    
C20   H4    S    
C16   H10   S    
O4    Zn2   S    
N1    Zn2   S    
C19   C20   S    
C1    C11   S    
O7    Zn1   S    
C3    H12   S    
C4    O4    A    
C4    C8    S    
C2    C21   A    
C13   H18   S    
C2    C3    S    
C8    C9    D    
C15   H9    S    
C22   H5    S    
C5    H15   S    
C6    O5    A    
C11   C13   A    
N2    Zn1   S    
C20   H3    S    
C14   H7    S    
C19   H2    S    
C10   C18   A    
C14   O9    S    
C19   H20   S    
C7    O7    A    
C17   C18   A    
C5    H16   S    
C2    N2    A    
C6    O6    A    
C22   N1    A    
C1    O1    A    
C10   C11   A    
C7    O8    A    
C14   H6    S    
C15   C16   S    
C21   N1    A    
C5    C21   S    
C12   C13   A    
C3    H14   S    
C18   C19   S    
C4    O3    A    
O8    Zn2   S    
C8    O9    S    
C7    C9    S    
C6    C17   S    
C14   C15   S    
C1    O2    A    
C12   H19   S    
C16   H11   S    
C22   C23   A    
C9    H17   S    
C16   H13   S    
O5    Zn1   S    
C10   C20   S    
O2    Zn2   S    
C3    C5    S    
O6    Zn2   S    
