data_mof_unit_58834.cif
_audit_creation_date              2012-12-10T17:48:54-0500
_audit_creation_method            fapswitch 2.2
_symmetry_space_group_name_H-M    P1
_symmetry_Int_Tables_number       1
_space_group_crystal_system       triclinic
_cell_length_a                    10.765143
_cell_length_b                    14.756362
_cell_length_c                    14.785925
_cell_angle_alpha                 64.43675
_cell_angle_beta                  104.858293
_cell_angle_gamma                 103.789538
_cell_volume                      2025.94857631

loop_
_atom_site_label
_atom_site_type_symbol
_atom_type_description
_atom_site_fract_x
_atom_site_fract_y
_atom_site_fract_z
_atom_type_partial_charge
C1    C     C_R   0.475039 0.120032 0.311812 0.884023
C2    C     C_R   0.426089 0.361843 0.078049 0.011513
C3    C     C_R   0.377538 0.323260 0.000915 -0.058633
C4    C     C_R   0.260132 0.999276 0.500712 0.847363
C5    C     C_R   0.439865 0.468157 0.052167 0.088851
C6    C     C_R   0.421639 0.535334 0.948109 -0.002602
C7    C     C_R   0.366819 0.493963 0.873886 -0.325113
C8    C     C_R   0.344654 0.389831 0.899879 0.600802
C9    C     C_R   0.469172 0.509460 0.126647 -0.158746
C10   C     C_R   0.490476 0.613591 0.100072 -0.232194
C11   C     C_R   0.490218 0.681539 0.998366 0.127076
C12   C     C_3   0.879209 0.999092 0.503286 -0.185292
C13   C     C_R   0.457914 0.641797 0.921674 0.090760
C14   C     C_R   0.522404 0.788234 0.970964 0.143230
C15   C     C_R   0.530391 0.852211 0.869228 -0.223321
C16   C     C_R   0.516236 0.880126 0.687809 0.780971
C17   C     C_R   0.469749 0.708938 0.821250 -0.264220
C18   C     C_R   0.735123 0.302188 0.647291 -0.264302
C19   C     C_R   0.695272 0.213421 0.630413 0.333537
C20   C     C_R   0.511687 0.282034 0.512987 0.073508
C21   C     C_R   0.544060 0.372089 0.534725 -0.032541
C22   C     C_R   0.655333 0.377123 0.609434 0.042332
C23   C     C_3   0.971073 0.074308 0.548399 1.034132
C24   C     C_R   0.471939 0.456595 0.486270 -0.072908
C25   C     C_R   0.504552 0.536578 0.523597 -0.071885
C26   C     C_R   0.593857 0.522614 0.617114 0.126133
C27   C     C_R   0.680148 0.450627 0.652437 0.150010
C28   C     C_R   0.740547 0.999243 0.501929 0.899384
C29   C     C_R   0.368835 0.465612 0.401651 0.602996
C30   C     C_R   0.297812 0.546111 0.359282 -0.221105
C31   C     C_R   0.333105 0.626084 0.391047 0.048204
C32   C     C_R   0.441784 0.625868 0.468334 -0.014499
C33   C     C_R   0.263458 0.708647 0.343209 -0.272493
C34   C     C_3   0.900372 0.028923 0.392950 0.425997
C35   C     C_R   0.304120 0.791698 0.370603 0.129260
C36   C     C_R   0.486675 0.717924 0.483099 0.015361
C37   C     C_3   0.057018 0.888125 0.565312 -0.083914
C38   C     C_3   0.916403 0.891175 0.571100 -0.618835
C39   C     C_3   0.112476 0.077243 0.543311 0.424432
C40   C     C_3   0.044471 0.030623 0.392128 -0.462929
C41   C     C_3   0.122649 0.998025 0.502523 -0.162613
C42   C     C_3   0.134365 0.823265 0.669135 -0.385635
C43   C     C_3   0.181204 0.869937 0.748402 -0.793550
C44   C     C_3   0.549972 0.837050 0.047092 -0.397764
C45   C     C_R   0.446399 0.188324 0.203507 -0.163789
C46   C     C_3   0.690136 0.833880 0.103667 -0.804070
C47   C     C_3   0.791720 0.445492 0.742651 -0.392658
C48   C     C_3   0.921133 0.498905 0.706459 -0.799987
C49   C     C_3   0.776909 0.129725 0.697265 -0.278360
C50   C     C_3   0.774013 0.096458 0.810359 -0.891871
C51   C     C_3   0.575036 0.563393 0.691500 -0.370956
C52   C     C_3   0.685692 0.644964 0.710205 -0.888266
C53   C     C_R   0.508285 0.812924 0.794937 -0.075123
C54   C     C_R   0.362301 0.218432 0.025973 -0.201251
C55   C     C_R   0.395528 0.151239 0.126422 0.579735
C56   C     C_R   0.463343 0.293041 0.178177 -0.239199
Cu1   Cu    Cu3+1 0.465900 0.918260 0.475680 0.951191
Cu2   Cu    Cu3+1 0.534100 0.081740 0.524320 1.001446
F1    F     F_    0.863317 0.123183 0.329015 -0.600079
F2    F     F_    0.160834 0.174534 0.480596 -0.589640
F3    F     F_    0.937717 0.171518 0.495885 -0.557780
F4    F     F_    0.293215 0.354432 0.825165 -0.670309
F5    F     F_    0.377356 0.050363 0.147555 -0.664908
F6    F     F_    0.335682 0.400198 0.354694 -0.677110
F7    F     F_    0.960935 0.042366 0.649422 -0.762688
H1    H     H_    0.453412 0.681178 0.762312 0.165763
H2    H     H_    0.249053 0.854569 0.335311 0.142757
H3    H     H_    0.217710 0.548285 0.296852 0.183480
H4    H     H_    0.827236 0.307594 0.696485 0.171250
H5    H     H_    0.425424 0.268680 0.462417 0.247681
H6    H     H_    0.848945 0.834078 0.544517 0.186029
H7    H     H_    0.178237 0.708965 0.285083 0.146667
H8    H     H_    0.904833 0.868947 0.650867 0.247318
H9    H     H_    0.172653 0.062980 0.619662 0.107537
H10   H     H_    0.086672 0.107832 0.343124 0.268641
H11   H     H_    0.050373 0.978571 0.357328 0.136555
H12   H     H_    0.554056 0.933208 0.847967 0.164124
H13   H     H_    0.838825 0.972463 0.362709 0.104604
H14   H     H_    0.266630 0.929241 0.728853 0.234663
H15   H     H_    0.102621 0.901311 0.756243 0.289819
H16   H     H_    0.213372 0.810175 0.823492 0.244111
H17   H     H_    0.071819 0.749650 0.702834 0.212300
H18   H     H_    0.220082 0.804033 0.656017 0.213144
H19   H     H_    0.710715 0.754532 0.145687 0.247659
H20   H     H_    0.758265 0.876639 0.048913 0.256325
H21   H     H_    0.707112 0.869582 0.159115 0.251418
H22   H     H_    0.534427 0.917936 0.007485 0.219607
H23   H     H_    0.511617 0.639392 0.161317 0.159981
H24   H     H_    0.480957 0.800430 0.101553 0.208805
H25   H     H_    0.916800 0.580710 0.659140 0.235639
H26   H     H_    0.000010 0.491940 0.773364 0.253523
H27   H     H_    0.945869 0.465190 0.660443 0.264613
H28   H     H_    0.776299 0.478342 0.792207 0.226552
H29   H     H_    0.799266 0.365927 0.797189 0.196312
H30   H     H_    0.673735 0.088947 0.822163 0.252094
H31   H     H_    0.810203 0.022277 0.855213 0.264366
H32   H     H_    0.837372 0.152717 0.839752 0.257827
H33   H     H_    0.748318 0.061816 0.680962 0.275792
H34   H     H_    0.324286 0.188031 0.967783 0.216188
H35   H     H_    0.878924 0.159116 0.685232 0.263611
H36   H     H_    0.730278 0.619632 0.792093 0.253166
H37   H     H_    0.761994 0.663320 0.664413 0.253232
H38   H     H_    0.648315 0.716040 0.690215 0.258248
H39   H     H_    0.480765 0.592237 0.667509 0.201560
H40   H     H_    0.564181 0.498414 0.765421 0.213792
H41   H     H_    0.508551 0.319693 0.237861 0.189532
H42   H     H_    0.046189 0.843317 0.518552 0.170279
H43   H     H_    0.336193 0.540584 0.794923 0.164108
H44   H     H_    0.472502 0.462999 0.206630 0.189460
H45   H     H_    0.580095 0.729833 0.527044 0.157779
N1    N     N_R   0.585360 0.204570 0.560800 -0.221593
N2    N     N_R   0.414550 0.795430 0.439160 -0.189291
O1    O     O_R   0.455060 0.022100 0.338110 -0.524672
O2    O     O_R   0.512640 0.160150 0.379180 -0.581791
O3    O     O_R   0.288900 0.930980 0.479450 -0.615008
O4    O     O_R   0.346480 0.069030 0.520520 -0.556973
O5    O     O_R   0.487360 0.839850 0.620820 -0.605507
O6    O     O_R   0.544940 0.977900 0.661890 -0.607659
O7    O     O_R   0.653520 0.930970 0.479480 -0.613557
O8    O     O_R   0.711100 0.069020 0.520550 -0.530972

loop_
_geom_bond_atom_site_label_1
_geom_bond_atom_site_label_2
_ccdc_geom_bond_type
C52   H38   S    
C54   C55   A    
C4    O3    A    
C42   H17   S    
C50   H31   S    
C7    C8    A    
C39   C41   S    
C15   H12   S    
C12   C23   S    
C10   H23   S    
C17   H1    S    
C29   C30   A    
C1    O2    A    
C12   C28   S    
C34   C40   S    
C15   C53   A    
C14   C44   S    
C37   H42   S    
C30   C31   A    
C3    C54   A    
C50   H30   S    
Cu1   N2    S    
C4    C41   S    
C43   H14   S    
Cu2   O6    S    
C18   C19   A    
C39   H9    S    
C37   C42   S    
C24   C29   A    
C33   H7    S    
C33   C35   A    
C49   H33   S    
C16   C53   S    
C47   C48   S    
C45   C56   A    
C48   H26   S    
C55   F5    S    
C36   N2    A    
C31   C33   A    
C44   H22   S    
C9    C10   A    
Cu1   O7    S    
C46   H20   S    
C18   H4    S    
C29   F6    S    
C48   H25   S    
C21   C22   A    
Cu2   O4    S    
C20   H5    S    
C1    O1    A    
C25   C26   A    
C44   C46   S    
C9    H44   S    
C52   H36   S    
C51   C52   S    
C24   C25   A    
Cu1   O3    S    
C3    C8    A    
C28   O8    A    
Cu1   O1    S    
C51   H39   S    
C40   H11   S    
C5    C9    A    
C37   C38   S    
C16   O6    A    
C20   N1    A    
C19   C49   S    
C31   C32   A    
C14   C15   A    
C35   H2    S    
C51   H40   S    
C52   H37   S    
Cu2   O8    S    
C26   C27   A    
C56   H41   S    
C46   H19   S    
C40   C41   S    
C22   C27   A    
C36   H45   S    
C34   F1    S    
C43   H16   S    
C54   H34   S    
C2    C5    A    
C42   C43   S    
C12   C34   S    
C12   C38   S    
C17   C53   A    
Cu1   O5    S    
C27   C47   S    
C38   H6    S    
C50   H32   S    
C47   H28   S    
C18   C22   A    
C4    O4    A    
C42   H18   S    
C28   O7    A    
Cu2   N1    S    
C32   C36   A    
C6    C7    A    
C19   N1    A    
C40   H10   S    
C13   C17   A    
C23   F7    S    
C2    C3    A    
C43   H15   S    
C2    C56   A    
C16   O5    A    
C34   H13   S    
C6    C13   A    
C11   C13   A    
C1    C45   S    
Cu1   Cu2   S    
C5    C6    A    
C25   C32   A    
C23   C39   S    
C39   F2    S    
C11   C14   A    
C47   H29   S    
C37   C41   S    
C10   C11   A    
C35   N2    A    
C23   F3    S    
C20   C21   A    
C45   C55   A    
C49   C50   S    
C48   H27   S    
C21   C24   A    
Cu2   O2    S    
C7    H43   S    
C46   H21   S    
C26   C51   S    
C30   H3    S    
C44   H24   S    
C8    F4    S    
C49   H35   S    
C38   H8    S    
