data_mof_unit_42800.cif
_audit_creation_date              2012-12-10T16:51:45-0500
_audit_creation_method            fapswitch 2.2
_symmetry_space_group_name_H-M    P1
_symmetry_Int_Tables_number       1
_space_group_crystal_system       triclinic
_cell_length_a                    15.251465
_cell_length_b                    15.575579
_cell_length_c                    9.790732
_cell_angle_alpha                 89.73218
_cell_angle_beta                  91.59489
_cell_angle_gamma                 90.345487
_cell_volume                      2324.82538188

loop_
_atom_site_label
_atom_site_type_symbol
_atom_type_description
_atom_site_fract_x
_atom_site_fract_y
_atom_site_fract_z
_atom_type_partial_charge
C1    C     C_R   0.384748 0.880933 0.498817 0.827944
C2    C     C_R   0.382917 0.117758 0.498029 0.842480
C3    C     C_R   0.884748 0.380933 0.498818 0.827944
C4    C     C_R   0.882917 0.617758 0.498029 0.842480
C5    C     C_R   0.619389 0.115260 0.501505 0.864547
C6    C     C_R   0.617244 0.882943 0.501639 0.850174
C7    C     C_R   0.119389 0.615260 0.501505 0.864547
C8    C     C_R   0.117244 0.382943 0.501639 0.850173
C9    C     C_2   0.729396 0.800345 0.397151 -0.181932
C10   C     C_2   0.743277 0.188975 0.401133 -0.181877
C11   C     C_2   0.229396 0.300345 0.397151 -0.181931
C12   C     C_2   0.243280 0.688973 0.401137 -0.181879
C13   C     C_2   0.679588 0.813469 0.504925 -0.370750
C14   C     C_2   0.692934 0.174299 0.508525 -0.366379
C15   C     C_2   0.179588 0.313469 0.504925 -0.370746
C16   C     C_2   0.192934 0.674299 0.508526 -0.366378
C17   C     C_2   0.280339 0.221348 0.382520 0.119823
C18   C     C_2   0.320981 0.745253 0.412604 0.128313
C19   C     C_2   0.780338 0.721347 0.382520 0.119823
C20   C     C_2   0.820979 0.245255 0.412601 0.128313
C21   C     C_2   0.323914 0.191020 0.495087 -0.373756
C22   C     C_2   0.318001 0.814802 0.494616 -0.345109
C23   C     C_2   0.823914 0.691019 0.495087 -0.373755
C24   C     C_2   0.818001 0.314801 0.494617 -0.345113
C25   C     C_2   0.439808 0.965370 0.926983 0.196912
C26   C     C_2   0.939808 0.465370 0.926983 0.196913
C27   C     C_2   0.459819 0.944832 0.075224 -0.109226
C28   C     C_2   0.959819 0.444832 0.075224 -0.109227
Cu1   Cu    Cu3+1 0.500020 0.000000 0.638630 0.908975
Cu2   Cu    Cu3+1 0.000020 0.500000 0.638630 0.908974
Cu3   Cu    Cu3+1 0.499980 0.000000 0.361370 0.910300
Cu4   Cu    Cu3+1 0.999980 0.500000 0.361370 0.910301
H1    H     H_    0.320052 0.225060 0.591365 0.147395
H2    H     H_    0.261189 0.827757 0.555377 0.126151
H3    H     H_    0.820052 0.725060 0.591365 0.147395
H4    H     H_    0.761191 0.327756 0.555382 0.126152
H5    H     H_    0.501104 0.061584 0.114414 0.202607
H6    H     H_    0.001104 0.561584 0.114414 0.202607
N1    N     N_2   0.498660 0.000000 0.846910 -0.196942
N2    N     N_2   0.998660 0.500000 0.846910 -0.196943
N3    N     N_2   0.498630 0.000000 0.153040 -0.305054
N4    N     N_2   0.998630 0.500000 0.153040 -0.305053
O1    O     O_R   0.410990 0.910970 0.617040 -0.600732
O2    O     O_R   0.410990 0.089030 0.617040 -0.582939
O3    O     O_R   0.910990 0.410970 0.617040 -0.600733
O4    O     O_R   0.910990 0.589030 0.617040 -0.582938
O5    O     O_R   0.410950 0.910970 0.382900 -0.578975
O6    O     O_R   0.410950 0.089030 0.382900 -0.582452
O7    O     O_R   0.910950 0.410970 0.382900 -0.578974
O8    O     O_R   0.910950 0.589030 0.382900 -0.582452
O9    O     O_R   0.589050 0.089030 0.617100 -0.606267
O10   O     O_R   0.589050 0.910970 0.617100 -0.582280
O11   O     O_R   0.089050 0.589030 0.617100 -0.606267
O12   O     O_R   0.089050 0.410970 0.617100 -0.582282
O13   O     O_R   0.589010 0.089030 0.382960 -0.574356
O14   O     O_R   0.589010 0.910970 0.382960 -0.576996
O15   O     O_R   0.089010 0.589030 0.382960 -0.574355
O16   O     O_R   0.089010 0.410970 0.382960 -0.576996
H7    H     H_    0.727153 0.845641 0.312506 0.165850
H8    H     H_    0.730701 0.155396 0.305441 0.163755
H9    H     H_    0.227153 0.345642 0.312507 0.165849
H10   H     H_    0.230707 0.655391 0.305445 0.163754
H11   H     H_    0.679975 0.769983 0.591983 0.154885
H12   H     H_    0.710089 0.200690 0.608273 0.148289
H13   H     H_    0.179975 0.269983 0.591983 0.154883
H14   H     H_    0.210086 0.700693 0.608273 0.148289
C29   C     C_3   0.279642 0.176592 0.243577 -0.337791
C30   C     C_3   0.218753 0.218660 0.134466 -0.396983
C31   C     C_3   0.208127 0.164146 0.006319 -0.885155
H15   H     H_    0.168698 0.199541 0.927678 0.244574
H16   H     H_    0.273120 0.149282 0.964041 0.263431
H17   H     H_    0.172408 0.104051 0.030839 0.267125
H18   H     H_    0.152472 0.229176 0.175279 0.234707
H19   H     H_    0.247031 0.281700 0.105620 0.224840
H20   H     H_    0.347002 0.177234 0.203193 0.210131
H21   H     H_    0.257982 0.108936 0.258259 0.205915
C32   C     C_3   0.400840 0.720875 0.331541 -0.386099
C33   C     C_3   0.432973 0.630663 0.371586 -0.353385
C34   C     C_3   0.520216 0.610224 0.306675 -0.866917
H22   H     H_    0.514791 0.617685 0.193859 0.256160
H23   H     H_    0.572434 0.653600 0.348070 0.261908
H24   H     H_    0.538964 0.543004 0.331147 0.244882
H25   H     H_    0.441768 0.626094 0.484539 0.223937
H26   H     H_    0.383567 0.581852 0.337958 0.218912
H27   H     H_    0.382895 0.722488 0.220742 0.176128
H28   H     H_    0.456501 0.765916 0.348680 0.216515
C35   C     C_3   0.779641 0.676591 0.243577 -0.337791
C36   C     C_3   0.718751 0.718659 0.134467 -0.396983
C37   C     C_3   0.708126 0.664144 0.006319 -0.885154
H29   H     H_    0.668696 0.699539 0.927680 0.244574
H30   H     H_    0.773119 0.649282 0.964041 0.263431
H31   H     H_    0.672407 0.604050 0.030841 0.267124
H32   H     H_    0.652470 0.729175 0.175281 0.234707
H33   H     H_    0.747029 0.781699 0.105620 0.224839
H34   H     H_    0.847001 0.677233 0.203193 0.210131
H35   H     H_    0.757982 0.608935 0.258259 0.205915
C38   C     C_3   0.900836 0.220878 0.331531 -0.386092
C39   C     C_3   0.932964 0.130662 0.371555 -0.353385
C40   C     C_3   0.020207 0.110225 0.306641 -0.866915
H36   H     H_    0.014784 0.117699 0.193826 0.256159
H37   H     H_    0.072427 0.153594 0.348050 0.261905
H38   H     H_    0.038951 0.043001 0.331094 0.244882
H39   H     H_    0.941757 0.126081 0.484507 0.223938
H40   H     H_    0.883556 0.081855 0.337912 0.218909
H41   H     H_    0.882890 0.222503 0.220731 0.176126
H42   H     H_    0.956499 0.265916 0.348679 0.216515
C41   C     C_3   0.348868 0.941910 0.872174 -0.359264
C42   C     C_3   0.278091 0.940616 0.981111 -0.421394
C43   C     C_3   0.186403 0.932731 0.915559 -0.863458
H43   H     H_    0.172793 0.988134 0.846494 0.255724
H44   H     H_    0.180479 0.872299 0.856078 0.253981
H45   H     H_    0.136795 0.931732 0.996456 0.247210
H46   H     H_    0.288238 0.884778 0.050745 0.220616
H47   H     H_    0.282542 0.999825 0.043352 0.238665
H48   H     H_    0.329101 0.989104 0.791854 0.239356
H49   H     H_    0.350967 0.876207 0.829059 0.203635
C44   C     C_3   0.848868 0.441910 0.872174 -0.359264
C45   C     C_3   0.778091 0.440616 0.981111 -0.421395
C46   C     C_3   0.686403 0.432730 0.915558 -0.863458
H50   H     H_    0.672793 0.488134 0.846494 0.255724
H51   H     H_    0.680480 0.372298 0.856078 0.253981
H52   H     H_    0.636795 0.431731 0.996455 0.247210
H53   H     H_    0.788238 0.384777 0.050745 0.220615
H54   H     H_    0.782542 0.499825 0.043352 0.238666
H55   H     H_    0.829101 0.489104 0.791854 0.239356
H56   H     H_    0.850967 0.376207 0.829059 0.203635
C47   C     C_3   0.591406 0.999960 0.894520 -0.109310
C48   C     C_3   0.628861 0.908746 0.917470 -0.342850
C49   C     C_3   0.725671 0.904433 0.880581 -0.900259
H57   H     H_    0.735287 0.927523 0.774553 0.266002
H58   H     H_    0.766000 0.944360 0.952306 0.245930
H59   H     H_    0.748919 0.837236 0.886227 0.251428
H60   H     H_    0.623315 0.890018 0.026473 0.205255
H61   H     H_    0.591126 0.860715 0.856072 0.236142
H62   H     H_    0.631206 0.032333 0.818188 0.214764
H63   H     H_    0.604894 0.040950 0.984139 0.104311
C50   C     C_3   0.091406 0.499959 0.894520 -0.109312
C51   C     C_3   0.128860 0.408745 0.917468 -0.342848
C52   C     C_3   0.225671 0.404433 0.880586 -0.900256
H64   H     H_    0.235291 0.427528 0.774560 0.265999
H65   H     H_    0.265999 0.444359 0.952318 0.245929
H66   H     H_    0.248920 0.337237 0.886228 0.251428
H67   H     H_    0.123311 0.390015 0.026470 0.205253
H68   H     H_    0.091127 0.360715 0.856065 0.236144
H69   H     H_    0.131206 0.532333 0.818188 0.214763
H70   H     H_    0.104894 0.540949 0.984139 0.104314
H71   H     H_    0.436665 0.885054 0.118894 0.148308
H72   H     H_    0.936665 0.385055 0.118894 0.148307

loop_
_geom_bond_atom_site_label_1
_geom_bond_atom_site_label_2
_ccdc_geom_bond_type
C2    O2    A    
C35   C36   S    
C44   C45   S    
Cu2   O3    S    
C10   H8    S    
C26   C44   S    
Cu4   O16   S    
C48   C49   S    
C38   C39   S    
C3    O7    A    
C4    O4    A    
C32   C33   S    
Cu2   O12   S    
C24   H4    S    
C50   H69   S    
C47   H62   S    
H6    N4    S    
C19   C35   S    
C51   H67   S    
C43   H44   S    
C52   H66   S    
C41   H49   S    
C21   H1    S    
C30   H19   S    
C39   H39   S    
C15   H13   S    
C42   C43   S    
C42   H47   S    
C31   H16   S    
C9    C13   D    
C45   C46   S    
C8    O16   A    
C11   C15   D    
C33   H25   S    
C1    O1    A    
C20   C38   S    
C20   C24   D    
C10   C20   S    
C30   C31   S    
C35   H34   S    
C41   C42   S    
Cu3   O14   S    
C37   H30   S    
C44   H56   S    
C49   H59   S    
C38   H41   S    
C32   H27   S    
C1    C22   S    
Cu3   O5    S    
Cu1   O1    S    
C3    C24   S    
Cu4   O15   S    
C9    C19   S    
C46   H51   S    
C22   H2    S    
Cu2   O11   S    
C36   H33   S    
C17   C29   S    
N1    C47   S    
C29   C30   S    
C12   C16   D    
C50   H70   S    
C47   H63   S    
C10   C14   D    
C43   H45   S    
C8    O12   A    
C34   H23   S    
C4    C23   S    
C33   C34   S    
C1    O5    A    
C2    O6    A    
C30   H18   S    
C3    O3    A    
C17   C21   D    
C4    O8    A    
C9    H7    S    
C42   H46   S    
C31   H17   S    
C19   C23   D    
C48   H61   S    
C12   H10   S    
C27   N3    D    
C40   H36   S    
C13   H11   S    
C52   H64   S    
C14   H12   S    
C35   H35   S    
Cu1   N1    S    
C2    C21   S    
Cu2   N2    S    
C45   H54   S    
C37   H31   S    
C41   H48   S    
C5    C14   S    
N2    C50   S    
C38   H42   S    
C7    C16   S    
C40   H37   S    
C32   H28   S    
C8    C15   S    
C23   H3    S    
Cu3   O6    S    
Cu1   O2    S    
C29   H20   S    
C7    O11   A    
C47   C48   S    
C25   C41   S    
C49   H57   S    
Cu1   O9    S    
C46   H52   S    
C36   H32   S    
C11   C17   S    
Cu3   N3    S    
C18   C22   D    
C28   H72   S    
C5    O13   A    
C6    O14   A    
C11   H9    S    
C34   H24   S    
C46   H50   S    
C25   C27   S    
C50   C51   S    
C26   C28   S    
Cu2   O4    S    
C6    O10   A    
Cu1   Cu3   S    
C51   H68   S    
C48   H60   S    
C25   N1    D    
C6    C13   S    
Cu2   Cu4   S    
C52   H65   S    
C26   N2    D    
C18   C32   S    
C39   H40   S    
C28   N4    D    
Cu4   O8    S    
C45   H53   S    
H5    N3    S    
C31   H15   S    
Cu4   O7    S    
C51   C52   S    
C34   H22   S    
C33   H26   S    
C40   H38   S    
C16   H14   S    
C36   C37   S    
C27   H71   S    
C39   C40   S    
C12   C18   S    
Cu4   N4    S    
C5    O9    A    
C29   H21   S    
Cu3   O13   S    
C37   H29   S    
C43   H43   S    
C44   H55   S    
C7    O15   A    
C49   H58   S    
Cu1   O10   S    
