data_mof_unit_66791.cif
_audit_creation_date              2013-03-05T15:41:06-0500
_audit_creation_method            fapswitch 2.2
_symmetry_space_group_name_H-M    P1
_symmetry_Int_Tables_number       1
_space_group_crystal_system       triclinic
_cell_length_a                    8.403931
_cell_length_b                    14.56938
_cell_length_c                    15.316844
_cell_angle_alpha                 94.903737
_cell_angle_beta                  100.495115
_cell_angle_gamma                 90.799672
_cell_volume                      1836.43651235

loop_
_atom_site_label
_atom_site_type_symbol
_atom_site_description
_atom_site_fract_x
_atom_site_fract_y
_atom_site_fract_z
_atom_type_partial_charge
P1    P     P_3+3 0.947560 0.714050 0.560480 0.461991
O1    O     O_2   0.113690 0.728200 0.532750 -0.344858
O2    O     O_3   0.871900 0.612110 0.540440 -0.383854
O3    O     O_3   0.325660 0.668890 0.372600 -0.335909
O4    O     O_2   0.239796 0.822302 0.425398 -0.397047
O5    O     O_3   0.029914 0.740480 0.674041 -0.582362
O6    O     O_3   0.234762 0.812233 0.255653 -0.577069
C1    C     C_3   0.222586 0.859808 0.108911 -1.084965
H1    H     H_    0.089667 0.857714 0.096906 0.256538
H2    H     H_    0.268875 0.929758 0.134537 0.247861
P2    P     P_3+3 0.325150 0.423860 0.297970 0.498331
P3    P     P_3+3 0.842480 0.619385 0.216901 0.465424
O7    O     O_2   0.147570 0.451710 0.282630 -0.366472
O8    O     O_3   0.905540 0.621350 0.329600 -0.366746
O9    O     O_2   0.955465 0.549676 0.180359 -0.350073
O10   O     O_3   0.323867 0.303347 0.280072 -0.610855
O11   O     O_3   0.897154 0.726739 0.184012 -0.517938
C2    C     C_3   0.875495 0.800780 0.246995 0.419844
H3    H     H_    0.973396 0.802626 0.306246 0.163117
H4    H     H_    0.763037 0.792092 0.272794 0.003675
C3    C     C_3   0.879246 0.892857 0.202652 -0.479412
H5    H     H_    0.006157 0.917482 0.211678 0.220257
H6    H     H_    0.833497 0.879704 0.129858 0.233509
C4    C     C_3   0.758271 0.332505 0.280875 0.454110
H7    H     H_    0.651737 0.361235 0.305519 0.109132
H8    H     H_    0.856301 0.386367 0.290803 0.118310
C5    C     C_3   0.711492 0.303857 0.181557 -1.122380
H9    H     H_    0.603666 0.256605 0.168695 0.256449
H10   H     H_    0.684176 0.365328 0.144171 0.244741
H11   H     H_    0.812288 0.267539 0.157272 0.266413
Ba1   Ba    Ba6+2 0.142880 0.544780 0.454020 1.555586
C6    C     C_3   0.931072 0.717252 0.733819 0.292235
H12   H     H_    0.958589 0.645557 0.749833 0.071228
H13   H     H_    0.802219 0.717424 0.704349 0.069671
C7    C     C_3   0.967814 0.785940 0.821016 0.348166
C8    C     C_3   0.206576 0.263289 0.319279 0.463865
H14   H     H_    0.086610 0.290049 0.293281 0.049465
C9    C     C_3   0.195021 0.156313 0.297607 -0.076269
H15   H     H_    0.064188 0.136876 0.287928 0.174273
P4    P     P_3+3 0.862730 0.285940 0.439440 0.445694
O12   O     O_2   0.696600 0.271740 0.467230 -0.335908
O13   O     O_3   0.938380 0.387880 0.459490 -0.398233
O14   O     O_3   0.484630 0.331100 0.627330 -0.303034
O15   O     O_3   0.810518 0.254711 0.324758 -0.594310
P5    P     P_3+3 0.948679 0.398267 0.786976 0.478336
O16   O     O_3   0.389110 0.548970 0.605210 -0.389290
O17   O     O_3   0.904740 0.378630 0.670330 -0.379491
O18   O     O_2   0.809204 0.449892 0.820411 -0.359426
O19   O     O_3   0.939511 0.292823 0.832780 -0.513237
Ba2   Ba    Ba6+2 0.667290 0.455210 0.545900 1.569409
P6    P     P_3+3 0.347841 0.784569 0.359913 0.397230
C10   C     C_3   0.291871 0.789493 0.174063 0.958642
H16   H     H_    0.253350 0.845180 0.042161 0.257444
O20   O     O_3   0.421180 0.451020 0.394720 -0.355907
C11   C     C_3   0.478651 0.740071 0.642786 0.507979
H17   H     H_    0.587075 0.733752 0.611787 0.008066
H18   H     H_    0.378441 0.704394 0.595835 0.174810
C12   C     C_3   0.434163 0.840672 0.652181 -1.054421
H19   H     H_    0.523883 0.881537 0.702403 0.261582
H20   H     H_    0.425597 0.870573 0.587295 0.252350
H21   H     H_    0.316258 0.845599 0.673943 0.270456
P7    P     P_3+3 0.485326 0.583912 0.714982 0.418936
O21   O     O_2   0.662730 0.548230 0.717350 -0.360314
O22   O     O_3   0.505264 0.704886 0.727120 -0.613095
C13   C     C_3   0.020450 0.227378 0.786114 0.504884
H22   H     H_    0.943623 0.205238 0.720455 0.134477
H23   H     H_    0.139878 0.254866 0.777072 -0.009046
C14   C     C_3   0.049702 0.143705 0.838889 -1.073511
H24   H     H_    0.932800 0.110812 0.844419 0.277305
H25   H     H_    0.119882 0.093062 0.804540 0.221602
H26   H     H_    0.117983 0.164572 0.906893 0.267372
P8    P     P_3+3 0.450882 0.212793 0.638583 0.477429
C15   C     C_3   0.482195 0.175805 0.801943 0.305661
H27   H     H_    0.391603 0.118501 0.779892 0.060834
O23   O     O_2   0.535906 0.164578 0.566199 -0.369108
O24   O     O_3   0.576601 0.185246 0.736418 -0.499622
H28   H     H_    0.420807 0.241266 0.815579 0.050398
C16   C     C_3   0.593414 0.153734 0.887914 -0.362118
H29   H     H_    0.675167 0.214671 0.913165 0.201611
H30   H     H_    0.670315 0.095015 0.873347 0.201281
C17   C     C_R   0.010269 0.941297 0.551356 -0.205604
C18   C     C_R   0.820629 0.803980 0.500526 0.184729
C19   C     C_R   0.669034 0.771675 0.451879 -0.444572
C20   C     C_R   0.556320 0.830886 0.409744 0.230030
C21   C     C_R   0.598373 0.924528 0.413317 -0.386073
C22   C     C_R   0.749890 0.960959 0.458750 0.119871
C23   C     C_R   0.862454 0.901174 0.504170 0.004008
H31   H     H_    0.635438 0.699419 0.449597 0.160842
C24   C     C_R   0.934064 0.097519 0.507964 -0.003261
C25   C     C_R   0.045689 0.037437 0.555200 0.116547
C26   C     C_R   0.972416 0.195770 0.515502 0.244766
C27   C     C_R   0.103806 0.227094 0.584417 -0.427291
C28   C     C_R   0.231615 0.168179 0.612814 0.147888
C29   C     C_R   0.197400 0.073167 0.601738 -0.333135
C30   C     C_R   0.788200 0.056710 0.458494 -0.194728
H32   H     H_    0.517551 0.968598 0.375382 0.154921
H33   H     H_    0.291369 0.026918 0.626659 0.156302
H34   H     H_    0.124998 0.300388 0.600992 0.173732
H35   H     H_    0.097822 0.898307 0.587066 0.173179
H36   H     H_    0.701330 0.099434 0.421251 0.170069
C31   C     C_R   0.231396 0.491297 0.767934 -0.441298
C32   C     C_R   0.142808 0.460053 0.828251 0.211736
C33   C     C_R   0.206473 0.469839 0.919173 -0.278379
C34   C     C_R   0.370256 0.495483 0.951974 0.103135
C35   C     C_R   0.459786 0.526142 0.888224 -0.269882
C36   C     C_R   0.386854 0.529097 0.797634 0.292245
C37   C     C_R   0.578979 0.553394 0.086984 -0.284674
C38   C     C_R   0.637526 0.568878 0.178066 0.254280
C39   C     C_R   0.416840 0.475687 0.209388 0.317455
C40   C     C_R   0.369824 0.448601 0.115006 0.081664
C41   C     C_R   0.440325 0.497444 0.052047 0.047746
C42   C     C_R   0.550840 0.535694 0.238639 -0.505637
H37   H     H_    0.645405 0.586071 0.044397 0.142519
H38   H     H_    0.125614 0.456051 0.962793 0.185567
H39   H     H_    0.585072 0.547202 0.906899 0.151880
H40   H     H_    0.595936 0.550663 0.309334 0.161904
H41   H     H_    0.177838 0.487613 0.697819 0.172041
I1    I     I_    0.194869 0.660202 0.112154 -0.377677
C43   C     C_3   0.143518 0.829695 0.837395 -0.306727
C44   C     C_3   0.278516 0.760764 0.854307 -0.889656
H42   H     H_    0.279516 0.730135 0.917841 0.244454
H43   H     H_    0.261253 0.704666 0.799950 0.289965
H44   H     H_    0.397505 0.796506 0.858286 0.277027
H45   H     H_    0.163094 0.866996 0.780197 0.211914
H46   H     H_    0.159985 0.882374 0.895444 0.178803
C45   C     C_3   0.954276 0.733508 0.904278 -0.415131
C46   C     C_3   0.785252 0.704884 0.915234 -0.922751
H47   H     H_    0.714002 0.765140 0.932386 0.256812
H48   H     H_    0.722918 0.665207 0.854202 0.297424
H49   H     H_    0.797728 0.660574 0.970982 0.274993
H50   H     H_    0.025895 0.669944 0.903752 0.219577
H51   H     H_    0.006050 0.777558 0.965226 0.235584
C47   C     C_3   0.846681 0.866743 0.815666 -0.400824
C48   C     C_3   0.845850 0.925473 0.737320 -0.918126
H52   H     H_    0.965414 0.958457 0.738374 0.260866
H53   H     H_    0.806598 0.882839 0.673558 0.260747
H54   H     H_    0.758579 0.981563 0.741007 0.266751
H55   H     H_    0.721724 0.838981 0.810075 0.227742
H56   H     H_    0.873072 0.913138 0.878474 0.198110
I2    I     I_    0.271966 0.308339 0.455053 -0.190988
C49   C     C_3   0.279248 0.104424 0.376064 -0.431953
C50   C     C_3   0.221168 0.006101 0.371934 -0.848338
H57   H     H_    0.091761 0.000717 0.375533 0.248634
H58   H     H_    0.244804 0.967608 0.311159 0.289648
H59   H     H_    0.287895 0.978567 0.432686 0.290964
H60   H     H_    0.412573 0.110321 0.382024 0.231911
H61   H     H_    0.247612 0.130935 0.439333 0.225771
C51   C     C_3   0.258648 0.124024 0.210633 -0.187962
C52   C     C_3   0.124073 0.114121 0.128445 -1.005141
H62   H     H_    0.050876 0.050353 0.128672 0.276263
H63   H     H_    0.043829 0.173765 0.127217 0.268358
H64   H     H_    0.177253 0.109342 0.067090 0.265802
H65   H     H_    0.357218 0.169148 0.197893 0.202164
H66   H     H_    0.318300 0.057391 0.216832 0.178599
C53   C     C_3   0.475085 0.788599 0.181336 -0.382714
C54   C     C_3   0.530613 0.778363 0.090103 -0.953881
H67   H     H_    0.459420 0.724842 0.043434 0.271170
H68   H     H_    0.523798 0.844192 0.058618 0.263576
H69   H     H_    0.655222 0.756388 0.096134 0.292179
H70   H     H_    0.522975 0.854071 0.217506 0.179236
H71   H     H_    0.520763 0.730973 0.220351 0.160970
C55   C     C_3   0.788867 0.973645 0.240477 -0.319313
C56   C     C_3   0.694876 0.028826 0.168907 -0.912024
H72   H     H_    0.646680 0.090924 0.201127 0.264161
H73   H     H_    0.773933 0.051106 0.123632 0.271114
H74   H     H_    0.590991 0.987155 0.129705 0.268188
H75   H     H_    0.704661 0.949341 0.279547 0.202492
H76   H     H_    0.873839 0.022167 0.285660 0.213047
C57   C     C_3   0.499403 0.130941 0.960765 -0.354220
C58   C     C_3   0.435777 0.030847 0.947958 -0.914206
H77   H     H_    0.351824 0.016615 0.883302 0.259677
H78   H     H_    0.537894 0.982944 0.950250 0.259540
H79   H     H_    0.369611 0.017165 0.002105 0.256202
H80   H     H_    0.581981 0.141838 0.026321 0.220084
H81   H     H_    0.398057 0.178595 0.962955 0.195890
C59   C     C_3   0.277200 0.357483 0.083585 -0.401683
C60   C     C_3   0.096994 0.358644 0.089061 -0.758227
H82   H     H_    0.076178 0.334057 0.152124 0.254458
H83   H     H_    0.048066 0.428363 0.084496 0.284743
H84   H     H_    0.027091 0.311770 0.033930 0.239430
H85   H     H_    0.290032 0.334257 0.014397 0.179918
H86   H     H_    0.335388 0.302450 0.122151 0.210367

loop_
_geom_bond_atom_site_label_1
_geom_bond_atom_site_label_2
_geom_bond_distance
_ccdc_geom_bond_type
O5    C6    1.401811 S    
C11   H17   1.103026 S    
C45   C46   1.517253 S    
Ba1   O13   2.856862 S    
C5    H10   1.108256 S    
C2    C3    1.557024 S    
C57   C58   1.530423 S    
C7    C43   1.568790 S    
C56   H72   1.110344 S    
C4    C5    1.520500 S    
C42   H40   1.082370 S    
O8    Ba1   2.809891 S    
P8    O24   1.749508 S    
C7    C47   1.564774 S    
C48   H54   1.110328 S    
C46   H48   1.096912 S    
C27   H34   1.080890 S    
C21   C22   1.408033 A    
C53   H71   1.104787 S    
C10   C53   1.523691 S    
C59   H86   1.103469 S    
Ba2   O20   2.805549 S    
O19   C13   1.400515 S    
O16   P7    1.756943 S    
C54   H67   1.101297 S    
C56   H73   1.108142 S    
C4    H8    1.110649 S    
O6    C10   1.433184 S    
P1    O1    1.547606 D    
C52   H63   1.106687 S    
C9    H15   1.111691 S    
C21   H32   1.069296 S    
C16   H30   1.111153 S    
P2    C39   1.882705 S    
C58   H77   1.108053 S    
C12   H20   1.109752 S    
C18   C23   1.448215 A    
P1    Ba1   3.440328 S    
C2    H3    1.106553 S    
C15   H27   1.109548 S    
O7    Ba1   2.856968 S    
C40   C41   1.449509 A    
C37   H37   1.068688 S    
P7    O22   1.758829 S    
C49   C50   1.499344 S    
C54   H68   1.107368 S    
C14   H24   1.107314 S    
C60   H83   1.104106 S    
Ba1   O16   2.806245 S    
P3    O11   1.763579 S    
C57   H80   1.109434 S    
C59   C60   1.532185 S    
P5    O19   1.748960 S    
C24   C26   1.453133 A    
C1    C10   1.537575 S    
C44   H44   1.110258 S    
C60   H84   1.110878 S    
C12   H21   1.102851 S    
P4    O13   1.590239 S    
C19   H31   1.082123 S    
P2    Ba1   3.442720 S    
C47   H55   1.105972 S    
Ba1   O20   2.968505 S    
C3    H5    1.101127 S    
C5    H11   1.108846 S    
Ba2   O21   2.857282 S    
C50   H59   1.105113 S    
C51   H66   1.102171 S    
P8    O23   1.550056 D    
C34   C35   1.432453 A    
O2    Ba2   2.857381 S    
C44   H43   1.103895 S    
C25   C29   1.411242 A    
O17   Ba2   2.810596 S    
P5    O17   1.754895 S    
C59   H85   1.109288 S    
O3    P6    1.724354 S    
P1    O5    1.758478 S    
C31   C32   1.388540 A    
C56   H74   1.106002 S    
C20   C21   1.398554 A    
C30   H36   1.080518 S    
P5    C32   1.832371 S    
C39   C42   1.398204 A    
C26   C27   1.421512 A    
P3    C38   1.838092 S    
C16   H29   1.112340 S    
C1    H1    1.098091 S    
C48   H53   1.105295 S    
C17   H35   1.075958 S    
C29   H33   1.082769 S    
C13   H23   1.111679 S    
P1    C18   1.893599 S    
C43   H45   1.105149 S    
C16   C57   1.535186 S    
C38   C42   1.392244 A    
O1    Ba1   2.868932 S    
P1    O2    1.590264 S    
C6    H13   1.094797 S    
C24   C30   1.412286 A    
C7    C45   1.562024 S    
C6    C7    1.579005 S    
P7    O21   1.580978 D    
P2    O10   1.753343 S    
C19   C20   1.397587 A    
P3    O9    1.539371 D    
C45   H51   1.102031 S    
C15   C16   1.530819 S    
C13   C14   1.518025 S    
C11   O22   1.411574 S    
C33   H38   1.064447 S    
O11   C2    1.420905 S    
C57   H81   1.109725 S    
C28   C29   1.399497 A    
C4    H7    1.107174 S    
O2    Ba1   2.973049 S    
C8    I2    2.097107 S    
C9    C51   1.562449 S    
C17   C23   1.409836 A    
P2    O20   1.568141 S    
C49   H60   1.108978 S    
O13   Ba2   2.973752 S    
C55   H76   1.100397 S    
P8    C28   1.905676 S    
C43   H46   1.110996 S    
C1    H2    1.099508 S    
P4    O12   1.548127 D    
P3    O8    1.708582 S    
C60   H82   1.100407 S    
C3    H6    1.110389 S    
C47   C48   1.531298 S    
C4    O15   1.402087 S    
C15   O24   1.402236 S    
C50   H58   1.096244 S    
C52   H64   1.109251 S    
C51   H65   1.105494 S    
C17   C25   1.421930 A    
C37   C38   1.390068 A    
C46   H47   1.109419 S    
O12   Ba2   2.869434 S    
C33   C34   1.410024 A    
C44   H42   1.103433 S    
C55   C56   1.524774 S    
P5    O18   1.542508 D    
C31   C36   1.391989 A    
O14   P8    1.770908 S    
C8    H14   1.103754 S    
C3    C55   1.538386 S    
C53   H70   1.093852 S    
C22   C23   1.422815 A    
C37   C41   1.407255 A    
C35   H39   1.072764 S    
C54   H69   1.089424 S    
C1    H16   1.103692 S    
C34   C41   1.536325 S    
C43   C44   1.527097 S    
O14   Ba2   2.861336 S    
C47   H56   1.112868 S    
C48   H52   1.104591 S    
P7    C36   1.860468 S    
C40   C59   1.524896 S    
C35   C36   1.415612 A    
O16   Ba2   2.967709 S    
C31   H41   1.082670 S    
C6    H12   1.111125 S    
C11   H18   1.095353 S    
C12   H19   1.101180 S    
C46   H49   1.104704 S    
O6    P6    1.784261 S    
C52   H62   1.107682 S    
O10   C8    1.390096 S    
P2    O7    1.533779 D    
C58   H78   1.111186 S    
C45   H50   1.111764 S    
C14   H26   1.109002 S    
P4    Ba2   3.440907 S    
C8    C9    1.563440 S    
C27   C28   1.413872 A    
C9    C49   1.541776 S    
C2    H4    1.098471 S    
C51   C52   1.526545 S    
C13   H22   1.111078 S    
P4    C26   1.958855 S    
C32   C33   1.392296 A    
O3    Ba1   2.861860 S    
C22   C30   1.427805 A    
C49   H61   1.091669 S    
C55   H75   1.080637 S    
P4    O15   1.749872 S    
C14   H25   1.108098 S    
C18   C19   1.406150 A    
C11   C12   1.519078 S    
C53   C54   1.548095 S    
C15   H28   1.112794 S    
C50   H57   1.100957 S    
O4    P6    1.544087 D    
Ba1   Ba2   4.677138 S    
C24   C25   1.433061 A    
C39   C40   1.446292 A    
P6    C20   1.870660 S    
C5    H9    1.108261 S    
C58   H79   1.109033 S    
C10   I1    2.117117 S    
