data_mof_unit_11943.cif
_audit_creation_date              2013-03-05T16:32:54-0500
_audit_creation_method            fapswitch 2.2
_symmetry_space_group_name_H-M    P1
_symmetry_Int_Tables_number       1
_space_group_crystal_system       triclinic
_cell_length_a                    15.720084
_cell_length_b                    14.796758
_cell_length_c                    14.162096
_cell_angle_alpha                 88.814529
_cell_angle_beta                  91.310282
_cell_angle_gamma                 89.914582
_cell_volume                      3292.61983554

loop_
_atom_site_label
_atom_site_type_symbol
_atom_site_description
_atom_site_fract_x
_atom_site_fract_y
_atom_site_fract_z
_atom_type_partial_charge
O1    O     O_R   0.500010 0.369070 0.579480 -0.613309
O2    O     O_R   0.499990 0.630930 0.420520 -0.637739
O3    O     O_R   0.500010 0.369060 0.420520 -0.620884
O4    O     O_R   0.499990 0.630940 0.579480 -0.634831
C1    C     C_R   0.503717 0.326513 0.501482 0.893313
C2    C     C_R   0.498868 0.672597 0.499139 0.895924
O5    O     O_R   0.376780 0.500000 0.579460 -0.618196
O6    O     O_R   0.623220 0.500000 0.420540 -0.612105
O7    O     O_R   0.376780 0.499990 0.420510 -0.618515
O8    O     O_R   0.623220 0.500010 0.579490 -0.625642
C3    C     C_R   0.337780 0.500610 0.498987 0.911940
C4    C     C_R   0.662232 0.500407 0.500999 0.908360
Zn1   Zn    Zn3+2 0.500000 0.500010 0.606140 0.923760
Zn2   Zn    Zn3+2 0.500000 0.499990 0.393860 0.932222
C5    C     C_3   0.970112 0.433483 0.453999 -0.206824
C6    C     C_3   0.030003 0.579368 0.545663 -0.208108
C7    C     C_3   0.023793 0.510134 0.410389 0.234588
C8    C     C_3   0.976262 0.502664 0.589262 0.237791
H1    H     H_    0.943806 0.374300 0.416344 0.141910
H2    H     H_    0.056245 0.638564 0.583350 0.146560
H3    H     H_    0.942814 0.644630 0.422284 0.144170
H4    H     H_    0.057209 0.368099 0.577061 0.141286
C9    C     C_1   0.248911 0.503300 0.496833 -0.190801
C10   C     C_1   0.751121 0.502541 0.503064 -0.193164
C11   C     C_3   0.030456 0.430074 0.542171 -0.212481
C12   C     C_3   0.969505 0.582758 0.457433 -0.217493
C13   C     C_3   0.082832 0.506774 0.497566 0.117020
C14   C     C_3   0.917202 0.506033 0.502099 0.121438
C15   C     C_1   0.173649 0.505482 0.496333 -0.078417
C16   C     C_1   0.826386 0.504450 0.503451 -0.083780
C17   C     C_R   0.544595 0.084684 0.583956 -0.235243
C18   C     C_R   0.469897 0.920167 0.459243 -0.234204
H5    H     H_    0.541554 0.041243 0.646459 0.161904
H6    H     H_    0.422021 0.969036 0.435712 0.156446
C19   C     C_R   0.525462 0.176316 0.589655 0.161019
C20   C     C_R   0.449594 0.829001 0.463680 0.146608
C21   C     C_R   0.522888 0.229633 0.504411 -0.154033
C22   C     C_R   0.512486 0.768266 0.497678 -0.080379
C23   C     C_R   0.544950 0.190367 0.418615 -0.327242
C24   C     C_R   0.592487 0.798209 0.528787 -0.370887
H7    H     H_    0.545772 0.229662 0.353219 0.183759
H8    H     H_    0.638263 0.749280 0.556647 0.145631
C25   C     C_R   0.565359 0.099575 0.414913 0.471477
C26   C     C_R   0.612911 0.890147 0.524099 0.498291
C27   C     C_R   0.560750 0.046423 0.497232 0.021896
C28   C     C_R   0.549898 0.950128 0.490273 0.028006
C29   C     C_R   0.440391 0.538039 0.097029 -0.301607
C30   C     C_R   0.561541 0.534212 0.901128 -0.322028
H9    H     H_    0.395060 0.576648 0.053651 0.173611
H10   H     H_    0.608661 0.570020 0.943037 0.173690
C31   C     C_R   0.440696 0.545802 0.196116 0.281602
C32   C     C_R   0.561122 0.542993 0.801812 0.291806
N1    N     N_R   0.500000 0.499980 0.252470 -0.130195
N2    N     N_R   0.500000 0.500020 0.747530 -0.119975
C33   C     C_R   0.557279 0.444575 0.210847 -0.131134
C34   C     C_R   0.439733 0.448612 0.791185 -0.163553
H11   H     H_    0.602429 0.406745 0.254898 0.161510
H12   H     H_    0.392195 0.415760 0.747688 0.145376
C35   C     C_R   0.557461 0.433831 0.111599 0.385237
C36   C     C_R   0.438608 0.437891 0.891524 0.387611
C37   C     C_R   0.498615 0.482554 0.053270 0.035857
C38   C     C_R   0.500438 0.482512 0.947110 0.044373
C39   C     C_3   0.054036 0.515009 0.308734 -0.426921
C40   C     C_3   0.979268 0.514262 0.238247 -0.853982
H13   H     H_    0.942322 0.450764 0.246327 0.259213
H14   H     H_    0.936767 0.572959 0.249264 0.258582
H15   H     H_    0.003413 0.518586 0.165232 0.251680
H16   H     H_    0.090942 0.578179 0.298325 0.206196
H17   H     H_    0.096274 0.456436 0.296146 0.211144
C41   C     C_3   0.946228 0.498448 0.691011 -0.426167
C42   C     C_3   0.021189 0.493572 0.761185 -0.858224
H18   H     H_    0.059592 0.431813 0.749982 0.257592
H19   H     H_    0.062258 0.554114 0.752962 0.259351
H20   H     H_    0.997162 0.491137 0.834305 0.252495
H21   H     H_    0.908026 0.559703 0.704499 0.208175
H22   H     H_    0.905285 0.438028 0.700917 0.210962
O9    O     O_3   0.616716 0.377377 0.072728 -0.644648
C43   C     C_3   0.578376 0.292217 0.059068 0.072644
H23   H     H_    0.519962 0.298864 0.013659 0.161986
H24   H     H_    0.561435 0.260511 0.128224 0.137573
C44   C     C_3   0.640600 0.230197 0.010185 -0.317495
H25   H     H_    0.665624 0.265310 0.946495 0.234282
H26   H     H_    0.695005 0.214007 0.059186 0.222103
C45   C     C_3   0.597437 0.142602 0.980230 -0.993179
H27   H     H_    0.568866 0.107709 0.041951 0.269944
H28   H     H_    0.645039 0.097071 0.949213 0.271016
H29   H     H_    0.546546 0.157107 0.926339 0.266831
O10   O     O_3   0.375790 0.388860 0.937143 -0.644098
C46   C     C_3   0.363655 0.303366 0.896079 0.039459
H30   H     H_    0.424534 0.273817 0.871891 0.127838
H31   H     H_    0.317888 0.309732 0.835247 0.146189
C47   C     C_3   0.326638 0.238519 0.969649 -0.301688
H32   H     H_    0.370231 0.234198 0.032516 0.217766
H33   H     H_    0.264172 0.264670 0.992335 0.228988
C48   C     C_3   0.314669 0.144104 0.930104 -0.981247
H34   H     H_    0.270470 0.146527 0.867766 0.263201
H35   H     H_    0.287408 0.098758 0.984997 0.269297
H36   H     H_    0.376802 0.115893 0.909044 0.262885
C49   C     C_3   0.505436 0.211161 0.686849 -0.390057
C50   C     C_3   0.583839 0.253897 0.733644 -0.803979
H37   H     H_    0.613078 0.305695 0.686940 0.276587
H38   H     H_    0.565630 0.286579 0.800043 0.231958
H39   H     H_    0.632185 0.200920 0.750927 0.250606
H40   H     H_    0.450392 0.258101 0.684031 0.203975
H41   H     H_    0.484467 0.154772 0.733957 0.180133
C51   C     C_3   0.360261 0.799667 0.436489 -0.430132
C52   C     C_3   0.309278 0.772456 0.523044 -0.863200
H42   H     H_    0.338289 0.713015 0.560428 0.261182
H43   H     H_    0.306196 0.829640 0.572457 0.261961
H44   H     H_    0.243482 0.754277 0.500495 0.245997
H45   H     H_    0.325474 0.855325 0.398298 0.208029
H46   H     H_    0.362498 0.742896 0.387385 0.198607
O11   O     O_3   0.580312 0.061338 0.328636 -0.650414
C53   C     C_3   0.669107 0.052153 0.319247 0.066753
H47   H     H_    0.697298 0.010002 0.378173 0.154771
H48   H     H_    0.700072 0.119918 0.318407 0.138422
C54   C     C_3   0.686851 0.005887 0.226363 -0.317137
H49   H     H_    0.654301 0.939239 0.225243 0.229421
H50   H     H_    0.661272 0.048272 0.166615 0.230326
C55   C     C_3   0.782042 0.991682 0.213760 -0.984482
H51   H     H_    0.815739 0.057633 0.213544 0.265427
H52   H     H_    0.792750 0.958519 0.145414 0.269640
H53   H     H_    0.808730 0.947710 0.271764 0.259494
O12   O     O_3   0.689254 0.924792 0.559690 -0.658267
C56   C     C_3   0.760934 0.872765 0.535124 0.063873
H54   H     H_    0.809877 0.920157 0.508083 0.151038
H55   H     H_    0.748297 0.824798 0.476669 0.128232
C57   C     C_3   0.798136 0.823787 0.623174 -0.321530
H56   H     H_    0.824897 0.874484 0.672433 0.224800
H57   H     H_    0.747502 0.786143 0.660596 0.220175
C58   C     C_3   0.868021 0.757561 0.597701 -0.996663
H58   H     H_    0.841083 0.703304 0.553091 0.270558
H59   H     H_    0.895996 0.726135 0.663166 0.265330
H60   H     H_    0.919224 0.793090 0.559026 0.264974
C59   C     C_3   0.374787 0.606774 0.236293 -0.386069
C60   C     C_3   0.285483 0.566986 0.226595 -0.863169
H61   H     H_    0.265757 0.562527 0.151057 0.257537
H62   H     H_    0.283115 0.498489 0.259989 0.276669
H63   H     H_    0.239778 0.611379 0.262255 0.238247
H64   H     H_    0.388518 0.618961 0.310652 0.254109
H65   H     H_    0.376440 0.673830 0.199496 0.174462
C61   C     C_3   0.628191 0.603306 0.759532 -0.369738
C62   C     C_3   0.716447 0.560217 0.768078 -0.877970
H66   H     H_    0.716511 0.492465 0.735800 0.276639
H67   H     H_    0.762726 0.604030 0.730890 0.244253
H68   H     H_    0.737135 0.553144 0.843359 0.257157
H69   H     H_    0.614400 0.620746 0.685262 0.254610
H70   H     H_    0.629184 0.668749 0.796736 0.173888

loop_
_geom_bond_atom_site_label_1
_geom_bond_atom_site_label_2
_geom_bond_distance
_ccdc_geom_bond_type
C8    C41   1.526673 S    
C62   H68   1.110318 S    
H3    C12   1.110158 S    
C1    C21   1.463958 S    
C13   C15   1.428258 S    
C48   H34   1.110863 S    
C45   H29   1.110575 S    
C58   H60   1.110752 S    
C57   H56   1.111537 S    
C35   O9    1.381556 S    
C53   H47   1.114693 S    
C36   O10   1.389535 S    
C48   H36   1.111083 S    
C59   C60   1.527509 S    
C29   H9    1.084347 S    
C51   H46   1.102584 S    
O9    C43   1.412638 S    
C5    H1    1.110207 S    
O1    C1    1.285189 A    
C7    C12   1.542684 S    
C9    C15   1.183374 T    
C19   C21   1.428177 A    
C45   H28   1.110212 S    
Zn1   N2    2.002380 S    
C33   C35   1.417843 A    
C54   H50   1.110276 S    
C43   H24   1.115138 S    
C5    C11   1.550730 S    
C51   C52   1.527253 S    
C62   H66   1.110382 S    
C36   C38   1.410245 A    
O4    Zn1   1.966106 S    
C50   H37   1.109116 S    
C31   C59   1.502185 S    
C29   C31   1.410253 A    
C39   H17   1.110815 S    
C26   C28   1.398748 A    
H4    C11   1.110217 S    
C56   C57   1.533030 S    
C52   H42   1.109217 S    
C17   H5    1.085120 S    
C41   C42   1.524705 S    
C46   H31   1.112114 S    
C24   C26   1.398813 A    
C55   H53   1.111505 S    
C6    H2    1.110240 S    
C32   N2    1.380870 A    
C6    C13   1.536536 S    
C30   H10   1.084329 S    
C49   H40   1.108256 S    
C52   H43   1.110817 S    
O2    C2    1.284291 A    
C8    C11   1.541794 S    
C60   H63   1.109809 S    
C19   C49   1.519314 S    
C50   H38   1.109401 S    
C44   H26   1.111667 S    
C55   H52   1.110348 S    
C44   H25   1.111627 S    
C51   H45   1.112005 S    
N1    C33   1.368367 A    
C6    C12   1.552804 S    
C59   H64   1.088894 S    
C49   H41   1.112550 S    
N2    C34   1.366704 A    
C35   C37   1.412914 A    
C59   H65   1.111768 S    
C20   C51   1.514200 S    
C7    C13   1.527409 S    
C40   H15   1.110273 S    
C61   H70   1.111896 S    
C8    C14   1.527458 S    
C45   H27   1.110095 S    
C60   H62   1.110581 S    
C54   C55   1.525825 S    
C42   H19   1.110720 S    
C43   H23   1.112013 S    
C60   H61   1.110291 S    
C23   C25   1.383070 A    
O3    C1    1.296680 A    
C27   C28   1.440412 S    
C26   O12   1.393552 S    
C47   C48   1.526138 S    
C32   C61   1.508694 S    
C34   C36   1.427098 A    
C31   N1    1.381113 A    
C40   H14   1.110723 S    
O5    C3    1.281556 A    
O7    Zn2   1.981910 S    
O7    C3    1.281699 A    
C30   C38   1.393600 A    
C49   C50   1.529856 S    
O5    Zn1   1.965039 S    
O6    C4    1.281735 A    
C47   H33   1.111596 S    
C46   C47   1.527368 S    
C25   C27   1.396058 A    
O3    Zn2   1.966106 S    
O8    C4    1.281685 A    
O4    C2    1.282517 A    
C33   H11   1.081848 S    
C41   H22   1.110790 S    
C56   H54   1.111010 S    
C52   H44   1.110593 S    
C17   C19   1.392754 A    
O1    Zn1   1.981586 S    
C58   H58   1.110305 S    
C57   C58   1.525406 S    
C18   C20   1.387153 A    
C44   C45   1.527253 S    
C55   H51   1.111040 S    
O11   C53   1.411829 S    
C62   H67   1.109840 S    
C39   H16   1.109892 S    
O6    Zn2   1.965038 S    
C18   C28   1.398474 A    
C61   H69   1.094581 S    
C24   H8    1.082272 S    
C58   H59   1.109992 S    
O8    Zn1   1.981907 S    
C57   H57   1.110451 S    
C29   C37   1.393035 A    
C42   H20   1.110264 S    
C53   H48   1.115220 S    
C48   H35   1.110284 S    
C5    C7    1.541962 S    
C11   C13   1.536837 S    
C4    C10   1.397394 S    
C12   C14   1.536838 S    
C40   H13   1.110602 S    
C14   C16   1.428426 S    
C42   H18   1.110607 S    
C21   C23   1.407868 A    
C54   H49   1.111937 S    
C25   O11   1.381915 S    
C20   C22   1.405197 A    
C22   C24   1.398722 A    
C43   C44   1.527350 S    
C5    C14   1.536800 S    
C3    C9    1.397153 S    
C47   H32   1.111758 S    
C34   H12   1.080109 S    
C50   H39   1.110760 S    
C37   C38   1.504385 S    
O2    Zn2   1.981585 S    
C10   C16   1.183446 T    
C53   C54   1.526535 S    
C39   C40   1.524767 S    
C30   C32   1.409688 A    
Zn2   N1    2.002380 S    
O10   C46   1.414568 S    
C23   H7    1.083640 S    
C6    C8    1.542997 S    
C17   C27   1.391428 A    
C41   H21   1.108796 S    
C56   H55   1.116136 S    
C61   C62   1.527250 S    
C46   H30   1.115500 S    
C2    C22   1.431799 S    
C7    C39   1.526740 S    
C18   H6    1.085027 S    
O12   C56   1.417684 S    
