data_mof_unit_44765.cif
_audit_creation_date              2012-12-11T14:13:16-0500
_audit_creation_method            fapswitch 2.2
_symmetry_space_group_name_H-M    P1
_symmetry_Int_Tables_number       1
_space_group_crystal_system       monoclinic
_cell_length_a                    11.705139
_cell_length_b                    18.421724
_cell_length_c                    10.143305
_cell_angle_alpha                 90.0
_cell_angle_beta                  113.105378
_cell_angle_gamma                 90.0
_cell_volume                      2011.74299006

loop_
_atom_site_label
_atom_site_type_symbol
_atom_type_description
_atom_site_fract_x
_atom_site_fract_y
_atom_site_fract_z
_atom_type_partial_charge
C1    C     C_R   0.071856 0.646910 0.138851 0.602709
C2    C     C_R   0.928144 0.353090 0.861148 0.602708
C3    C     C_R   0.928144 0.146910 0.861148 0.602709
C4    C     C_R   0.071856 0.853090 0.138851 0.602708
C5    C     C_R   0.396076 0.463984 0.506299 0.032837
C6    C     C_R   0.603924 0.536016 0.493701 0.032837
C7    C     C_R   0.603924 0.963984 0.493701 0.032837
C8    C     C_R   0.396076 0.036016 0.506299 0.032837
C9    C     C_2   0.376501 0.940412 0.011808 0.114229
C10   C     C_2   0.623499 0.059588 0.988192 0.114229
C11   C     C_2   0.623499 0.440412 0.988192 0.114229
C12   C     C_2   0.376501 0.559588 0.011808 0.114229
C13   C     C_2   0.476819 0.962459 0.988618 -0.077090
C14   C     C_2   0.523181 0.037541 0.011382 -0.077090
C15   C     C_2   0.523181 0.462459 0.011382 -0.077090
C16   C     C_2   0.476819 0.537541 0.988618 -0.077090
C17   C     C_2   0.005464 0.921081 0.111827 0.277971
C18   C     C_2   0.994536 0.078919 0.888173 0.277971
C19   C     C_2   0.994536 0.421081 0.888173 0.277971
C20   C     C_2   0.005464 0.578919 0.111827 0.277971
C21   C     C_2   0.006194 0.960785 0.001391 -0.064529
C22   C     C_2   0.993806 0.039215 0.998609 -0.064529
C23   C     C_2   0.993806 0.460785 0.998609 -0.064529
C24   C     C_2   0.006194 0.539215 0.001391 -0.064529
C25   C     C_R   0.472711 0.647034 0.442938 0.613563
C26   C     C_R   0.527289 0.352965 0.557061 0.613563
C27   C     C_R   0.527289 0.147035 0.557061 0.613563
C28   C     C_R   0.472711 0.852965 0.442938 0.613563
C29   C     C_R   0.352180 0.637648 0.014667 0.606508
C30   C     C_R   0.647820 0.362352 0.985333 0.606508
C31   C     C_R   0.647820 0.137648 0.985333 0.606508
C32   C     C_R   0.352180 0.862352 0.014667 0.606508
C33   C     C_R   0.490165 0.424242 0.483112 0.074657
C34   C     C_R   0.509835 0.575758 0.516888 0.074657
C35   C     C_R   0.509835 0.924242 0.516888 0.074657
C36   C     C_R   0.490165 0.075758 0.483112 0.074657
C37   C     C_R   0.282475 0.431982 0.494877 0.263107
C38   C     C_R   0.717525 0.568018 0.505123 0.263107
C39   C     C_R   0.717525 0.931981 0.505123 0.263107
C40   C     C_R   0.282475 0.068018 0.494877 0.263107
C41   C     C_R   0.202951 0.470421 0.544032 -0.117959
C42   C     C_R   0.797049 0.529579 0.455968 -0.117959
C43   C     C_R   0.797049 0.970421 0.455968 -0.117959
C44   C     C_R   0.202951 0.029578 0.544032 -0.117960
C45   C     C_R   0.235577 0.539668 0.604945 0.261688
C46   C     C_R   0.764423 0.460332 0.395055 0.261688
C47   C     C_R   0.764423 0.039668 0.395055 0.261688
C48   C     C_R   0.235577 0.960332 0.604945 0.261688
C49   C     C_R   0.345036 0.571847 0.609531 0.228410
C50   C     C_R   0.654964 0.428153 0.390469 0.228410
C51   C     C_R   0.654964 0.071847 0.390469 0.228410
C52   C     C_R   0.345036 0.928153 0.609531 0.228410
C53   C     C_R   0.417893 0.537524 0.545713 -0.079052
C54   C     C_R   0.582107 0.462476 0.454286 -0.079052
C55   C     C_R   0.582107 0.037524 0.454286 -0.079052
C56   C     C_R   0.417893 0.962476 0.545714 -0.079052
Cr1   Cr    Cr6+3 0.187610 0.750000 0.979860 1.099367
Cr2   Cr    Cr6+3 0.812390 0.250000 0.020140 1.099367
Cr3   Cr    Cr6+3 0.245810 0.750000 0.341640 1.145762
Cr4   Cr    Cr6+3 0.754190 0.250000 0.658360 1.145762
Cr5   Cr    Cr6+3 0.485760 0.750000 0.219910 1.104030
Cr6   Cr    Cr6+3 0.514240 0.250000 0.780090 1.104030
H1    H     H_    0.117476 0.445630 0.538493 0.127126
H2    H     H_    0.882524 0.554369 0.461507 0.127126
H3    H     H_    0.882524 0.945631 0.461507 0.127125
H4    H     H_    0.117476 0.054369 0.538493 0.127126
H5    H     H_    0.470191 0.077510 0.041561 0.213635
H6    H     H_    0.529809 0.922490 0.958440 0.213634
H7    H     H_    0.529809 0.577510 0.958439 0.213635
H8    H     H_    0.470191 0.422490 0.041561 0.213635
H9    H     H_    0.970293 0.064545 0.081288 0.160541
H10   H     H_    0.029706 0.935455 0.918712 0.160541
H11   H     H_    0.029706 0.564545 0.918712 0.160541
H12   H     H_    0.970293 0.435455 0.081288 0.160541
O1    O     O_R   0.267710 0.668200 0.902110 -0.405247
O2    O     O_R   0.732290 0.331800 0.097890 -0.405247
O3    O     O_R   0.732290 0.168200 0.097890 -0.405247
O4    O     O_R   0.267710 0.831800 0.902110 -0.405247
O5    O     O_R   0.099480 0.674460 0.038850 -0.555685
O6    O     O_R   0.900520 0.325540 0.961150 -0.555685
O7    O     O_R   0.900520 0.174460 0.961150 -0.555685
O8    O     O_R   0.099480 0.825540 0.038850 -0.555685
O9    O     O_R   0.116720 0.669210 0.267660 -0.449494
O10   O     O_R   0.883280 0.330790 0.732340 -0.449494
O11   O     O_R   0.883280 0.169210 0.732340 -0.449493
O12   O     O_R   0.116720 0.830790 0.267660 -0.449494
O13   O     O_R   0.366710 0.675440 0.427590 -0.468682
O14   O     O_R   0.633290 0.324560 0.572410 -0.468682
O15   O     O_R   0.633290 0.175440 0.572410 -0.468682
O16   O     O_R   0.366710 0.824560 0.427590 -0.468682
O17   O     O_R   0.534870 0.669390 0.371760 -0.477210
O18   O     O_R   0.465130 0.330610 0.628240 -0.477210
O19   O     O_R   0.465130 0.169390 0.628240 -0.477210
O20   O     O_R   0.534870 0.830610 0.371760 -0.477210
O21   O     O_R   0.453080 0.674480 0.075160 -0.486503
O22   O     O_R   0.546920 0.325520 0.924840 -0.486503
O23   O     O_R   0.546920 0.174480 0.924840 -0.486503
O24   O     O_R   0.453080 0.825520 0.075160 -0.486503
O25   O     O_3   0.306390 0.750000 0.180470 -0.354566
O26   O     O_3   0.693610 0.250000 0.819530 -0.354566
O27   O     O_3   0.160922 0.577826 0.657025 -0.644317
H13   H     H_    0.082831 0.550544 0.634981 0.327246
O28   O     O_3   0.839078 0.422174 0.342975 -0.644317
H14   H     H_    0.917169 0.449456 0.365019 0.327247
O29   O     O_3   0.839078 0.077826 0.342975 -0.644317
H15   H     H_    0.917169 0.050544 0.365019 0.327246
O30   O     O_3   0.160922 0.922174 0.657026 -0.644317
H16   H     H_    0.082831 0.949456 0.634981 0.327246
O31   O     O_3   0.248369 0.365176 0.428914 -0.631449
H17   H     H_    0.166082 0.351366 0.427747 0.333678
O32   O     O_3   0.751631 0.634823 0.571086 -0.631449
H18   H     H_    0.833918 0.648634 0.572253 0.333678
O33   O     O_3   0.751631 0.865177 0.571086 -0.631449
H19   H     H_    0.833918 0.851366 0.572253 0.333677
O34   O     O_3   0.248369 0.134823 0.428914 -0.631449
H20   H     H_    0.166082 0.148634 0.427746 0.333678
Br1   Br    Br    0.403524 0.659344 0.717452 -0.318680
Br2   Br    Br    0.596476 0.340656 0.282548 -0.318680
Br3   Br    Br    0.596476 0.159344 0.282548 -0.318680
Br4   Br    Br    0.403524 0.840656 0.717452 -0.318680
Br5   Br    Br    0.697922 0.997992 0.891626 -0.598061
Br6   Br    Br    0.302078 0.002008 0.108374 -0.598061
Br7   Br    Br    0.302078 0.497992 0.108374 -0.598061
Br8   Br    Br    0.697922 0.502008 0.891626 -0.598061
O35   O     O_3   0.030974 0.052179 0.783491 -0.708965
H21   H     H_    0.105594 0.021825 0.831128 0.347722
O36   O     O_3   0.969026 0.947821 0.216509 -0.708965
H22   H     H_    0.894405 0.978174 0.168872 0.347722
O37   O     O_3   0.969026 0.552179 0.216509 -0.708965
H23   H     H_    0.894405 0.521825 0.168872 0.347722
O38   O     O_3   0.030974 0.447821 0.783491 -0.708965
H24   H     H_    0.105594 0.478175 0.831128 0.347722

loop_
_geom_bond_atom_site_label_1
_geom_bond_atom_site_label_2
_ccdc_geom_bond_type
C44   C48   A    
O27   H13   S    
C5    C37   A    
C12   C29   S    
C3    O11   A    
Cr3   O25   S    
Cr1   O5    S    
C44   H4    S    
C11   Br8   S    
C7    C55   A    
C20   O37   S    
C10   Br5   S    
C8    C56   A    
Cr4   O14   S    
Cr2   O2    S    
Cr4   O15   S    
C50   C54   A    
C5    C53   A    
Cr3   O9    S    
C38   C42   A    
Cr6   O22   S    
C18   O35   S    
C42   C46   A    
C24   H11   S    
C40   O34   S    
C4    O12   A    
C26   O18   A    
C15   C16   S    
Cr1   O25   S    
C25   O13   A    
C3    C18   S    
C28   O20   A    
C8    C36   A    
C9    C13   D    
C30   O22   A    
C9    C32   S    
C2    O10   A    
C10   C31   S    
C49   Br1   S    
C20   C24   D    
C11   C30   S    
C47   O29   S    
C5    C33   A    
C3    O7    A    
C51   Br3   S    
C14   H5    S    
C6    C38   A    
C40   C44   A    
C37   O31   S    
Cr2   O3    S    
Cr2   O6    S    
C25   C34   S    
C35   C56   A    
C50   Br2   S    
C21   C22   S    
Cr5   O25   S    
C11   C15   D    
C6    C54   A    
C31   O3    A    
C19   O38   S    
C25   O17   A    
C21   H10   S    
C12   C16   D    
Cr2   O26   S    
C28   C35   S    
C10   C14   D    
Cr2   O7    S    
C29   O21   A    
Cr5   O20   S    
C17   O36   S    
C39   C43   A    
C39   O33   S    
C17   C21   D    
C6    C34   A    
Cr6   O18   S    
Cr3   O16   S    
C19   C23   D    
Cr6   O23   S    
C30   O2    A    
C26   C33   S    
C45   C49   A    
C43   H3    S    
C9    Br6   S    
C45   O27   S    
Cr6   O26   S    
C4    C17   S    
C52   Br4   S    
O35   H21   S    
C1    O5    A    
C27   O19   A    
C41   H1    S    
C23   H12   S    
O36   H22   S    
C42   H2    S    
C22   H9    S    
O33   H19   S    
C46   O28   S    
C33   C54   A    
C15   H8    S    
C1    C20   S    
C7    C39   A    
O32   H18   S    
C2    C19   S    
C18   C22   D    
C7    C35   A    
Cr1   O4    S    
C16   H7    S    
Cr4   O26   S    
C47   C51   A    
Cr4   O11   S    
Cr5   O21   S    
C29   O1    A    
C27   C36   S    
C1    O9    A    
O29   H15   S    
C46   C50   A    
Cr1   O1    S    
O37   H23   S    
Cr3   O12   S    
C36   C55   A    
O31   H17   S    
Cr4   O10   S    
Cr5   O24   S    
O34   H20   S    
C12   Br7   S    
C49   C53   A    
C32   O24   A    
C27   O15   A    
C51   C55   A    
C31   O23   A    
C37   C41   A    
O38   H24   S    
Cr3   O13   S    
C2    O6    A    
C23   C24   S    
C32   O4    A    
C48   O30   S    
C52   C56   A    
C48   C52   A    
C4    O8    A    
C34   C53   A    
C26   O14   A    
Cr6   O19   S    
O28   H14   S    
C41   C45   A    
Cr1   O8    S    
C28   O16   A    
C8    C40   A    
C38   O32   S    
C13   C14   S    
C43   C47   A    
Cr5   O17   S    
O30   H16   S    
C13   H6    S    
