data_mof_unit_36462.cif
_audit_creation_date              2012-12-10T17:51:24-0500
_audit_creation_method            fapswitch 2.2
_symmetry_space_group_name_H-M    P1
_symmetry_Int_Tables_number       1
_space_group_crystal_system       triclinic
_cell_length_a                    9.864382
_cell_length_b                    10.785828
_cell_length_c                    16.836472
_cell_angle_alpha                 91.77582
_cell_angle_beta                  85.212713
_cell_angle_gamma                 87.6171
_cell_volume                      1782.46403263

loop_
_atom_site_label
_atom_site_type_symbol
_atom_type_description
_atom_site_fract_x
_atom_site_fract_y
_atom_site_fract_z
_atom_type_partial_charge
C1    C     C_R   0.496352 0.740809 0.500230 0.882278
C2    C     C_R   0.527730 0.553292 0.265466 -0.184454
C3    C     C_R   0.235272 0.904788 0.534376 -0.188987
C4    C     C_R   0.481049 0.499927 0.653456 0.834583
C5    C     C_R   0.125799 0.977665 0.570657 -0.164130
C6    C     C_R   0.147551 0.093702 0.603622 -0.143527
C7    C     C_R   0.276046 0.141796 0.592820 -0.131867
C8    C     C_R   0.384415 0.073951 0.548236 0.061441
C9    C     C_R   0.369453 0.948359 0.528625 0.104980
C10   C     C_R   0.489708 0.874896 0.503490 -0.174135
C11   C     C_R   0.614646 0.930008 0.489224 -0.294498
C12   C     C_R   0.344766 0.506734 0.787904 0.216695
C13   C     C_R   0.623217 0.056389 0.494112 0.202088
C14   C     C_R   0.505599 0.129502 0.519944 -0.181786
C15   C     C_R   0.837861 0.657268 0.609121 -0.200830
C16   C     C_R   0.501948 0.260904 0.506707 0.891914
C17   C     C_R   0.896832 0.731770 0.665177 0.207929
C18   C     C_R   0.037746 0.726908 0.666251 -0.271772
C19   C     C_R   0.118508 0.652777 0.610528 -0.172089
C20   C     C_R   0.061460 0.575564 0.554584 0.143527
C21   C     C_R   0.916811 0.576520 0.554259 0.117455
C22   C     C_R   0.939101 0.428326 0.447354 -0.106390
C23   C     C_R   0.431639 0.676731 0.162801 0.206338
C24   C     C_R   0.082537 0.428153 0.447436 -0.113370
C25   C     C_R   0.518299 0.509304 0.347371 0.933388
C26   C     C_R   0.470442 0.512195 0.740696 -0.120751
C27   C     C_R   0.589605 0.538815 0.776882 -0.227438
C28   C     C_R   0.585363 0.565018 0.857622 -0.146103
C29   C     C_R   0.461486 0.565655 0.904232 0.136890
C30   C     C_R   0.342645 0.534361 0.870075 -0.209624
C31   C     C_3   0.782017 0.112336 0.386528 -0.774342
C32   C     C_3   0.723642 0.899764 0.689329 -0.791717
C33   C     C_3   0.320856 0.808208 0.322740 -0.726570
C34   C     C_R   0.423548 0.635122 0.241208 0.113734
C35   C     C_3   0.735977 0.316324 0.217406 -0.814461
C36   C     C_3   0.197366 0.697297 0.124161 -0.844083
C37   C     C_3   0.092169 0.491587 0.795457 -0.808130
C38   C     C_R   0.646326 0.526125 0.213914 0.181270
C39   C     C_R   0.656647 0.574630 0.138105 -0.274931
C40   C     C_R   0.548311 0.644256 0.111590 0.039621
C41   C     C_2   0.455680 0.586898 0.990278 -0.198168
C42   C     C_2   0.545358 0.654352 0.025960 -0.218233
H1    H     H_    0.687390 0.541086 0.742746 0.179183
H2    H     H_    0.225344 0.662511 0.610907 0.220910
H3    H     H_    0.145453 0.369528 0.404578 0.147381
H4    H     H_    0.249440 0.530411 0.908476 0.136713
H5    H     H_    0.378615 0.539254 0.026213 0.167208
H6    H     H_    0.680083 0.582175 0.883266 0.133234
H7    H     H_    0.063989 0.148285 0.634950 0.135504
H8    H     H_    0.829927 0.068096 0.499548 0.215043
H9    H     H_    0.790558 0.016976 0.359072 0.225968
H10   H     H_    0.880730 0.156389 0.373704 0.223440
H11   H     H_    0.701189 0.167357 0.359624 0.252121
H12   H     H_    0.744681 0.548333 0.097185 0.153103
H13   H     H_    0.866192 0.846516 0.767220 0.221601
H14   H     H_    0.669903 0.958226 0.738599 0.238350
H15   H     H_    0.645089 0.853307 0.657201 0.247117
H16   H     H_    0.782108 0.960872 0.648414 0.232168
H17   H     H_    0.219155 0.657645 0.281090 0.238227
H18   H     H_    0.237401 0.831645 0.369584 0.226288
H19   H     H_    0.308145 0.871043 0.272709 0.240863
H20   H     H_    0.420026 0.824085 0.347096 0.232870
H21   H     H_    0.849130 0.473147 0.216565 0.219567
H22   H     H_    0.737101 0.300613 0.151777 0.239085
H23   H     H_    0.707220 0.875346 0.470532 0.184179
H24   H     H_    0.638108 0.286189 0.246487 0.237498
H25   H     H_    0.820752 0.259387 0.239064 0.235253
H26   H     H_    0.626355 0.700698 0.992753 0.149371
H27   H     H_    0.353764 0.817259 0.093745 0.235392
H28   H     H_    0.112933 0.750931 0.159084 0.250135
H29   H     H_    0.197575 0.599354 0.142994 0.230416
H30   H     H_    0.178319 0.698305 0.060059 0.236366
H31   H     H_    0.236582 0.385692 0.721378 0.223306
H32   H     H_    0.012072 0.473763 0.754443 0.247516
H33   H     H_    0.078607 0.589761 0.817659 0.245791
H34   H     H_    0.209007 0.818609 0.507719 0.176970
H35   H     H_    0.079397 0.427762 0.845793 0.225980
H36   H     H_    0.024078 0.943259 0.573979 0.145893
H37   H     H_    0.289686 0.232904 0.618634 0.137884
H38   H     H_    0.893557 0.370925 0.404062 0.160532
H39   H     H_    0.730381 0.665033 0.610482 0.218501
H40   H     H_    0.086012 0.784509 0.708545 0.158874
N1    N     N_R   0.857140 0.501200 0.500750 -0.111658
N2    N     N_R   0.142740 0.501280 0.500770 -0.115970
N3    N     N_2   0.750577 0.108359 0.471803 -0.272758
N4    N     N_2   0.814540 0.809373 0.721918 -0.309468
N5    N     N_2   0.314165 0.679646 0.296795 -0.267787
N6    N     N_2   0.753518 0.445919 0.236524 -0.282615
N7    N     N_2   0.324826 0.754534 0.136283 -0.300754
N8    N     N_2   0.224952 0.469574 0.752669 -0.282008
O1    O     O_R   0.385310 0.683220 0.500000 -0.642430
O2    O     O_R   0.614640 0.683250 0.500010 -0.643353
O3    O     O_R   0.371780 0.500010 0.615800 -0.634587
O4    O     O_R   0.601110 0.500030 0.615800 -0.641034
O5    O     O_R   0.385360 0.316750 0.499990 -0.626529
O6    O     O_R   0.614690 0.316780 0.500000 -0.576615
O7    O     O_R   0.398890 0.499970 0.384200 -0.602416
O8    O     O_R   0.628220 0.499990 0.384200 -0.589041
Zn1   Zn    Zn3+2 0.346870 0.499980 0.499990 0.932882
Zn2   Zn    Zn3+2 0.653130 0.500020 0.500010 0.948595

loop_
_geom_bond_atom_site_label_1
_geom_bond_atom_site_label_2
_ccdc_geom_bond_type
C36   N7    S    
C37   H32   S    
C31   N3    S    
H21   N6    S    
C41   C42   D    
C19   C20   A    
C32   H16   S    
C31   H10   S    
C7    C8    A    
C15   H39   S    
C26   C27   A    
C37   N8    S    
C24   H3    S    
C12   N8    S    
C28   C29   A    
H31   N8    S    
C38   C39   A    
O5    Zn1   S    
C39   H12   S    
C23   C40   A    
C18   C19   A    
H8    N3    S    
C21   N1    A    
C33   H20   S    
C23   N7    S    
C35   H22   S    
O4    Zn2   S    
C9    C10   A    
O3    Zn1   S    
C36   H29   S    
C12   C30   A    
C2    C34   A    
C40   C42   S    
C37   H33   S    
C1    O1    A    
C13   C14   A    
C42   H26   S    
C32   H15   S    
H27   N7    S    
O7    Zn1   S    
C36   H28   S    
C16   O6    A    
C17   N4    S    
C39   C40   A    
C8    C9    A    
C35   H24   S    
C37   H35   S    
C38   N6    S    
C29   C30   A    
C3    C9    A    
C35   N6    S    
C2    C38   A    
C35   H25   S    
C23   C34   A    
C32   N4    S    
C17   C18   A    
C41   H5    S    
C31   H11   S    
C3    H34   S    
C4    O4    A    
C25   O7    A    
C1    O2    A    
O8    Zn2   S    
N1    Zn2   S    
C20   N2    A    
C14   C16   S    
C13   N3    S    
C19   H2    S    
O2    Zn2   S    
C7    H37   S    
C15   C17   A    
C28   H6    S    
C16   O5    A    
C8    C14   A    
C29   C41   S    
N2    Zn1   S    
C11   H23   S    
C30   H4    S    
C1    C10   S    
C31   H9    S    
C3    C5    A    
C4    C26   S    
C6    C7    A    
C33   H18   S    
C22   N1    A    
H13   N4    S    
C24   N2    A    
C22   H38   S    
C11   C13   A    
C5    C6    A    
O6    Zn2   S    
C18   H40   S    
C2    C25   S    
C22   C24   A    
C34   N5    S    
C6    H7    S    
C33   N5    S    
H17   N5    S    
C10   C11   A    
C4    O3    A    
C27   H1    S    
C25   O8    A    
C15   C21   A    
C20   C21   A    
C33   H19   S    
C12   C26   A    
C27   C28   A    
O1    Zn1   S    
C5    H36   S    
C32   H14   S    
C36   H30   S    
