data_mof_unit_36064.cif
_audit_creation_date              2012-12-10T19:12:18-0500
_audit_creation_method            fapswitch 2.2
_symmetry_space_group_name_H-M    P1
_symmetry_Int_Tables_number       1
_space_group_crystal_system       triclinic
_cell_length_a                    7.817416
_cell_length_b                    9.074323
_cell_length_c                    17.138297
_cell_angle_alpha                 89.441036
_cell_angle_beta                  95.31694
_cell_angle_gamma                 90.098468
_cell_volume                      1210.46338797

loop_
_atom_site_label
_atom_site_type_symbol
_atom_type_description
_atom_site_fract_x
_atom_site_fract_y
_atom_site_fract_z
_atom_type_partial_charge
C1    C     C_R   0.499824 0.220188 0.499816 0.822843
C2    C     C_R   0.500115 0.779819 0.500051 0.826770
C3    C     C_R   0.523300 0.497205 0.651054 0.901188
C4    C     C_R   0.476322 0.501837 0.348138 0.838710
C5    C     C_R   0.540105 0.495055 0.736922 -0.251556
C6    C     C_R   0.459687 0.495122 0.260957 -0.302832
C7    C     C_R   0.431000 0.585220 0.776490 0.351211
C8    C     C_R   0.610279 0.496734 0.221605 0.357623
C9    C     C_R   0.427344 0.570441 0.857804 0.100794
C10   C     C_R   0.603673 0.451473 0.143453 0.129757
C11   C     C_R   0.547267 0.477632 0.900660 0.198612
C12   C     C_R   0.445060 0.453159 0.096754 0.148192
C13   C     C_R   0.663542 0.393506 0.861807 0.137718
C14   C     C_R   0.293775 0.472269 0.133405 0.174590
C15   C     C_R   0.659807 0.401106 0.779318 0.095696
C16   C     C_R   0.299351 0.477912 0.215595 0.116071
C17   C     C_1   0.499795 0.065440 0.499961 -0.197754
C18   C     C_1   0.500111 0.934562 0.500061 -0.190207
Cu1   Cu    Cu3+1 0.669080 0.500010 0.500000 1.013689
Cu2   Cu    Cu3+1 0.330920 0.499990 0.500000 1.001432
N1    N     N_1   0.076820 0.499970 0.500010 -0.043378
N2    N     N_1   0.923180 0.500030 0.499990 -0.038609
N3    N     N_2   0.565864 0.479390 0.983556 -0.141670
N4    N     N_2   0.432012 0.444405 0.013352 -0.200248
O1    O     O_R   0.642760 0.288400 0.500000 -0.584239
O2    O     O_R   0.357240 0.711600 0.500000 -0.573276
O3    O     O_R   0.357190 0.288380 0.500000 -0.584445
O4    O     O_R   0.642810 0.711620 0.500000 -0.584117
O5    O     O_R   0.658410 0.498660 0.613920 -0.566269
O6    O     O_R   0.341590 0.501340 0.386080 -0.604364
O7    O     O_R   0.372840 0.498650 0.613930 -0.548428
O8    O     O_R   0.627160 0.501350 0.386070 -0.526109
O9    O     O_3   0.766665 0.536030 0.259948 -0.557111
C19   C     C_3   0.781211 0.690930 0.255014 -0.302808
H1    H     H_    0.904592 0.725373 0.286699 0.173565
H2    H     H_    0.676941 0.747125 0.283363 0.152226
H3    H     H_    0.781326 0.728695 0.193019 0.144865
O10   O     O_3   0.321585 0.684473 0.735351 -0.551702
C20   C     C_3   0.412968 0.816177 0.724218 -0.312299
H4    H     H_    0.520158 0.798400 0.686963 0.144835
H5    H     H_    0.463101 0.865334 0.781075 0.135633
H6    H     H_    0.323994 0.897262 0.693384 0.193923
N5    N     N_2   0.754514 0.396424 0.113895 -0.362941
H7    H     H_    0.864631 0.440742 0.141099 0.336446
C21   C     C_3   0.763594 0.237272 0.114681 -0.658552
H8    H     H_    0.773648 0.194709 0.175974 0.201254
H9    H     H_    0.878793 0.201680 0.086543 0.229091
H10   H     H_    0.647444 0.189348 0.082347 0.234221
N6    N     N_2   0.304162 0.650277 0.896602 -0.389337
H11   H     H_    0.310993 0.762592 0.887805 0.255213
C22   C     C_3   0.130281 0.595112 0.881385 -0.621930
H12   H     H_    0.084155 0.606754 0.818394 0.253939
H13   H     H_    0.042355 0.659049 0.915229 0.209246
H14   H     H_    0.124368 0.477180 0.898662 0.214925
N7    N     N_2   0.774066 0.293042 0.906426 -0.384107
H15   H     H_    0.897063 0.286066 0.889966 0.235539
C23   C     C_3   0.697481 0.150257 0.918481 -0.660822
H16   H     H_    0.786895 0.081730 0.957629 0.208421
H17   H     H_    0.670881 0.092349 0.862033 0.215407
H18   H     H_    0.574993 0.162413 0.945833 0.235817
N8    N     N_2   0.134072 0.490706 0.087690 -0.397318
H19   H     H_    0.121216 0.434970 0.035407 0.273182
C24   C     C_3   0.077128 0.642401 0.080715 -0.686700
H20   H     H_    0.948182 0.647532 0.047667 0.228825
H21   H     H_    0.168931 0.709327 0.049446 0.236971
H22   H     H_    0.067095 0.690090 0.139533 0.229845
N9    N     N_2   0.774191 0.314132 0.738659 -0.389469
H23   H     H_    0.899532 0.306027 0.762734 0.248942
C25   C     C_3   0.704613 0.180904 0.702129 -0.650270
H24   H     H_    0.755404 0.082697 0.735683 0.201675
H25   H     H_    0.746050 0.174003 0.642176 0.244439
H26   H     H_    0.561794 0.178751 0.698223 0.203683
N10   N     N_2   0.141790 0.463439 0.250162 -0.369085
H27   H     H_    0.117838 0.542671 0.290191 0.289191
C26   C     C_3   0.101193 0.314082 0.272547 -0.582046
H28   H     H_    0.973492 0.311226 0.295877 0.249527
H29   H     H_    0.198562 0.271580 0.318530 0.212221
H30   H     H_    0.097283 0.240917 0.220822 0.206037

loop_
_geom_bond_atom_site_label_1
_geom_bond_atom_site_label_2
_ccdc_geom_bond_type
N7    H15   S    
C24   H21   S    
C2    C18   S    
C19   H3    S    
N10   H27   S    
Cu1   Cu2   S    
N5    H7    S    
C20   H5    S    
Cu2   O6    S    
C21   H8    S    
O10   C20   S    
C23   H17   S    
C3    O5    A    
C19   H1    S    
C25   H25   S    
N6    C22   S    
N3    N4    D    
C24   H22   S    
N1    N2    T    
C1    O1    A    
N10   C26   S    
C25   H24   S    
Cu1   O8    S    
C17   C18   T    
C20   H6    S    
C21   H9    S    
C22   H12   S    
Cu1   N2    S    
C9    N6    S    
C4    C6    S    
C20   H4    S    
C5    C7    A    
C23   H18   S    
C6    C8    A    
C14   N8    S    
N9    H23   S    
N9    C25   S    
C25   H26   S    
C26   H28   S    
C9    C11   A    
C15   N9    S    
N8    C24   S    
O9    C19   S    
C2    O2    A    
C3    O7    A    
Cu1   O4    S    
C26   H29   S    
C4    O8    A    
C10   C12   A    
C12   C14   A    
C13   C15   A    
C14   C16   A    
Cu1   O5    S    
C21   H10   S    
C7    C9    A    
C10   N5    S    
C3    C5    S    
C16   N10   S    
Cu2   O3    S    
C12   N4    S    
C1    C17   S    
C22   H14   S    
N7    C23   S    
N5    C21   S    
C11   C13   A    
C23   H16   S    
Cu2   O2    S    
C11   N3    S    
C7    O10   S    
C19   H2    S    
C8    O9    S    
N8    H19   S    
Cu1   O1    S    
C26   H30   S    
C5    C15   A    
C6    C16   A    
C24   H20   S    
Cu2   N1    S    
C8    C10   A    
N6    H11   S    
C1    O3    A    
C2    O4    A    
C22   H13   S    
C4    O6    A    
C13   N7    S    
Cu2   O7    S    
