data_mof_unit_25927.cif
_audit_creation_date              2012-12-10T17:00:50-0500
_audit_creation_method            fapswitch 2.2
_symmetry_space_group_name_H-M    P1
_symmetry_Int_Tables_number       1
_space_group_crystal_system       triclinic
_cell_length_a                    10.734106
_cell_length_b                    10.648352
_cell_length_c                    10.262516
_cell_angle_alpha                 91.700503
_cell_angle_beta                  103.490868
_cell_angle_gamma                 91.442439
_cell_volume                      1139.52025006

loop_
_atom_site_label
_atom_site_type_symbol
_atom_type_description
_atom_site_fract_x
_atom_site_fract_y
_atom_site_fract_z
_atom_type_partial_charge
C1    C     C_R   0.503096 0.263749 0.498356 0.891541
C2    C     C_2   0.463799 0.868571 0.512759 0.245908
C3    C     C_2   0.390150 0.070682 0.437335 -0.158205
C4    C     C_2   0.501270 0.131573 0.488443 -0.242835
C5    C     C_2   0.589388 0.557852 0.948539 0.058986
C6    C     C_2   0.575728 0.572665 0.094141 0.142458
C7    C     C_R   0.259962 0.509831 0.445840 0.901690
C8    C     C_R   0.488192 0.736397 0.500438 0.799927
C9    C     C_R   0.740009 0.499788 0.555607 0.909839
C10   C     C_2   0.123806 0.536533 0.424667 -0.442261
C11   C     C_2   0.071824 0.578611 0.526846 0.151060
C12   C     C_2   0.877212 0.506913 0.583899 -0.363107
C13   C     C_2   0.933618 0.569774 0.501267 -0.180054
C14   C     C_2   0.388570 0.934307 0.415102 0.010252
H1    H     H_    0.878560 0.609987 0.410417 0.148796
H2    H     H_    0.498582 0.405904 0.863160 0.172426
H3    H     H_    0.931761 0.463032 0.671936 0.165856
H4    H     H_    0.062767 0.514155 0.325784 0.140268
H5    H     H_    0.302029 0.121652 0.407707 0.123850
H6    H     H_    0.592526 0.085329 0.509995 0.162524
N1    N     N_2   0.501330 0.501330 0.852460 -0.251972
N2    N     N_2   0.501370 0.501360 0.148130 -0.101954
O1    O     O_R   0.499980 0.319060 0.613030 -0.606106
O2    O     O_R   0.500020 0.319100 0.386910 -0.619369
O3    O     O_R   0.317800 0.500000 0.570840 -0.616352
O4    O     O_R   0.317840 0.500040 0.344720 -0.634228
O5    O     O_R   0.499980 0.680900 0.613090 -0.616611
O6    O     O_R   0.500020 0.680940 0.386970 -0.642279
O7    O     O_R   0.682160 0.499960 0.655280 -0.629756
O8    O     O_R   0.682200 0.500000 0.429160 -0.615550
Zn1   Zn    Zn3+2 0.499970 0.499970 0.650990 0.893527
Zn2   Zn    Zn3+2 0.500030 0.500030 0.349010 0.904335
C15   C     C_3   0.649453 0.682287 0.179945 -0.356833
C16   C     C_3   0.580700 0.805821 0.147662 -0.342741
C17   C     C_3   0.649068 0.914474 0.239452 -0.889392
H7    H     H_    0.651530 0.895545 0.345761 0.263677
H8    H     H_    0.748842 0.928012 0.228218 0.253144
H9    H     H_    0.597687 0.002667 0.212856 0.251963
H10   H     H_    0.575485 0.829110 0.042345 0.223739
H11   H     H_    0.481205 0.794941 0.158987 0.245647
H12   H     H_    0.663257 0.665362 0.286237 0.257011
H13   H     H_    0.749821 0.694180 0.173775 0.153235
C18   C     C_3   0.410869 0.409324 0.062504 -0.277301
C19   C     C_3   0.296692 0.359312 0.113827 -0.281281
C20   C     C_3   0.215252 0.264681 0.011834 -1.033486
H14   H     H_    0.177809 0.309283 0.914541 0.273047
H15   H     H_    0.273123 0.183441 0.995244 0.276108
H16   H     H_    0.132480 0.229962 0.049941 0.265868
H17   H     H_    0.326783 0.309603 0.207688 0.268627
H18   H     H_    0.233041 0.437632 0.124342 0.238680
H19   H     H_    0.357324 0.456918 0.973359 0.174020
H20   H     H_    0.464835 0.326780 0.040068 0.169108
C21   C     C_3   0.150042 0.618814 0.668697 -0.301386
C22   C     C_3   0.080215 0.686724 0.765490 -0.379569
C23   C     C_3   0.089874 0.613840 0.894528 -0.916212
H21   H     H_    0.191594 0.609684 0.949606 0.255876
H22   H     H_    0.035854 0.659150 0.961357 0.256802
H23   H     H_    0.050977 0.516274 0.872539 0.256733
H24   H     H_    0.126525 0.781131 0.793100 0.207866
H25   H     H_    0.978698 0.705210 0.719799 0.240476
H26   H     H_    0.192088 0.533182 0.718229 0.234701
H27   H     H_    0.229628 0.683462 0.657717 0.163999
C24   C     C_3   0.290753 0.876085 0.295890 -0.464169
C25   C     C_3   0.271111 0.961276 0.174426 -0.324121
C26   C     C_3   0.196266 0.893620 0.047411 -0.940388
H28   H     H_    0.254257 0.816969 0.019796 0.269544
H29   H     H_    0.104164 0.855489 0.063413 0.279040
H30   H     H_    0.175839 0.960160 0.964397 0.252160
H31   H     H_    0.216651 0.044601 0.192873 0.227277
H32   H     H_    0.364933 0.994599 0.157987 0.235445
H33   H     H_    0.317006 0.781494 0.266646 0.232240
H34   H     H_    0.198081 0.864076 0.325510 0.189464
O9    O     O_3   0.514974 0.925477 0.638909 -0.619302
C27   C     C_3   0.418957 0.932617 0.713073 0.123505
H35   H     H_    0.402697 0.839497 0.753319 0.139947
H36   H     H_    0.325510 0.963772 0.652402 0.134821
C28   C     C_3   0.463050 0.026595 0.830452 -0.866913
H37   H     H_    0.469344 0.122743 0.792960 0.270632
H38   H     H_    0.393635 0.025150 0.895393 0.205716
H39   H     H_    0.558615 0.002395 0.890998 0.260117
C29   C     C_3   0.716696 0.604575 0.921321 -0.338967
C30   C     C_3   0.707143 0.730429 0.849036 -0.190061
C31   C     C_3   0.803235 0.832789 0.920617 -0.989642
H40   H     H_    0.776408 0.924516 0.875236 0.277674
H41   H     H_    0.805231 0.841323 0.028749 0.272453
H42   H     H_    0.900158 0.813137 0.907838 0.264687
H43   H     H_    0.724101 0.716112 0.747337 0.239334
H44   H     H_    0.610148 0.767188 0.838827 0.246833
H45   H     H_    0.794781 0.610570 0.012598 0.155808
H46   H     H_    0.758282 0.529687 0.871215 0.202142

loop_
_geom_bond_atom_site_label_1
_geom_bond_atom_site_label_2
_ccdc_geom_bond_type
C19   H17   S    
O3    Zn1   S    
C7    C10   S    
C23   H21   S    
O4    Zn2   S    
H2    N1    S    
O9    C27   S    
C17   H7    S    
C29   C30   S    
C22   H25   S    
C28   H37   S    
N1    Zn1   S    
C7    O4    A    
N2    Zn2   S    
C16   H11   S    
C15   H13   S    
C17   H8    S    
C5    C6    S    
C18   H20   S    
C20   H16   S    
C30   H43   S    
C6    N2    D    
C16   C17   S    
C21   H26   S    
C31   H40   S    
C26   H29   S    
C27   C28   S    
C12   H3    S    
C3    H5    S    
C25   H32   S    
C11   C21   S    
C9    O7    A    
C29   H45   S    
C28   H38   S    
C22   H24   S    
C20   H15   S    
C27   H35   S    
O5    Zn1   S    
C16   H10   S    
O6    Zn2   S    
C17   H9    S    
C21   C22   S    
O1    Zn1   S    
C18   C19   S    
O2    Zn2   S    
C5    C29   S    
C21   H27   S    
N2    C18   S    
C26   H30   S    
C15   C16   S    
C25   H31   S    
C24   H34   S    
C2    O9    S    
C3    C14   S    
C27   H36   S    
C9    O8    A    
C29   H46   S    
C31   H41   S    
C24   H33   S    
C1    O1    A    
C13   H1    S    
C8    O6    A    
C3    C4    D    
C19   C20   S    
C28   H39   S    
C19   H18   S    
C22   C23   S    
C2    C8    S    
C7    O3    A    
C6    C15   S    
C1    C4    S    
C15   H12   S    
C25   C26   S    
C23   H22   S    
O7    Zn1   S    
O8    Zn2   S    
C11   C13   S    
C18   H19   S    
C10   H4    S    
C30   H44   S    
C14   C24   S    
C26   H28   S    
C2    C14   D    
C9    C12   S    
C10   C11   D    
C24   C25   S    
C4    H6    S    
C20   H14   S    
C31   H42   S    
C5    N1    D    
C12   C13   D    
C1    O2    A    
C30   C31   S    
C23   H23   S    
C8    O5    A    
