data_mof_unit_31440.cif
_audit_creation_date              2012-12-11T15:36:04-0500
_audit_creation_method            fapswitch 2.2
_symmetry_space_group_name_H-M    P1
_symmetry_Int_Tables_number       1
_space_group_crystal_system       triclinic
_cell_length_a                    7.008724
_cell_length_b                    11.882898
_cell_length_c                    35.89578
_cell_angle_alpha                 90.000522
_cell_angle_beta                  90.67309
_cell_angle_gamma                 90.284443
_cell_volume                      2989.29930228

loop_
_atom_site_label
_atom_site_type_symbol
_atom_type_description
_atom_site_fract_x
_atom_site_fract_y
_atom_site_fract_z
_atom_type_partial_charge
O1    O     O_R   0.379730 0.148600 0.662710 -0.542110
O2    O     O_R   0.620270 0.851400 0.337290 -0.541131
O3    O     O_R   0.120270 0.648600 0.337290 -0.543130
O4    O     O_R   0.879730 0.351400 0.662710 -0.542206
O5    O     O_R   0.722480 0.134490 0.741330 -0.528519
O6    O     O_R   0.277520 0.865510 0.258670 -0.524127
O7    O     O_R   0.777520 0.634490 0.258670 -0.539177
O8    O     O_R   0.222480 0.365510 0.741330 -0.533765
O9    O     O_R   0.892880 0.345890 0.741600 -0.522190
O10   O     O_R   0.107120 0.654110 0.258400 -0.524474
O11   O     O_R   0.607120 0.845890 0.258400 -0.535353
O12   O     O_R   0.392880 0.154110 0.741600 -0.538734
C1    C     C_R   0.552741 0.112183 0.754116 0.732162
C2    C     C_R   0.446696 0.884171 0.244746 0.719295
C3    C     C_R   0.946303 0.612602 0.245762 0.724925
C4    C     C_R   0.054439 0.383105 0.755461 0.712134
O13   O     O_R   0.709490 0.135560 0.662990 -0.544971
O14   O     O_R   0.290510 0.864440 0.337010 -0.544290
O15   O     O_R   0.790510 0.635560 0.337010 -0.543468
O16   O     O_R   0.209490 0.364440 0.662990 -0.542806
C5    C     C_R   0.540037 0.107494 0.651020 0.681162
C6    C     C_R   0.459959 0.892465 0.348994 0.685885
C7    C     C_R   0.959414 0.607479 0.348992 0.682066
C8    C     C_R   0.040592 0.392488 0.650996 0.686839
O17   O     O_3   0.552800 0.316610 0.702160 -0.365352
O18   O     O_3   0.447200 0.683390 0.297840 -0.370230
O19   O     O_3   0.947200 0.816610 0.297840 -0.366078
O20   O     O_3   0.052800 0.183390 0.702160 -0.371373
V1    V     V_3+5 0.827630 0.234380 0.702160 1.468343
V2    V     V_3+5 0.172370 0.765620 0.297840 1.472431
V3    V     V_3+5 0.672370 0.734380 0.297840 1.456253
V4    V     V_3+5 0.327630 0.265620 0.702160 1.460321
C9    C     C_R   0.039911 0.623893 0.923320 0.543048
C10   C     C_R   0.030277 0.316069 0.092799 0.540062
C11   C     C_R   0.505289 0.125032 0.077338 0.540355
C12   C     C_R   0.570004 0.813747 0.906906 0.536464
O21   O     O_2   0.012909 0.513332 0.929935 -0.549067
O22   O     O_2   0.069600 0.425168 0.085900 -0.541967
O23   O     O_2   0.479930 0.014417 0.070469 -0.550683
O24   O     O_2   0.608883 0.922834 0.914143 -0.545231
N1    N     N_R   0.053706 0.662993 0.887349 -0.555813
N2    N     N_R   0.991424 0.280117 0.128479 -0.550256
N3    N     N_R   0.505416 0.164858 0.113360 -0.553563
N4    N     N_R   0.541847 0.776999 0.870769 -0.544432
C13   C     C_R   0.071376 0.777271 0.881327 0.582718
C14   C     C_R   0.970865 0.165942 0.134850 0.590489
C15   C     C_R   0.521284 0.279241 0.119428 0.592955
C16   C     C_R   0.526136 0.662521 0.864357 0.600224
C17   C     C_R   0.950850 0.619484 0.822219 -0.025192
C18   C     C_R   0.029777 0.339216 0.196107 -0.063834
C19   C     C_R   0.378981 0.122938 0.176462 -0.040860
C20   C     C_R   0.595161 0.835118 0.803698 -0.080283
C21   C     C_R   0.951866 0.554190 0.789875 -0.139517
C22   C     C_R   0.025700 0.421387 0.223860 -0.192048
C23   C     C_R   0.366303 0.057792 0.208746 -0.133953
C24   C     C_R   0.605688 0.918043 0.776332 -0.188176
C25   C     C_R   0.133808 0.413419 0.822789 -0.076997
C26   C     C_R   0.887808 0.552617 0.180241 -0.110048
C27   C     C_R   0.558183 0.915851 0.179582 -0.085842
C28   C     C_R   0.457205 0.050168 0.817619 -0.118990
C29   C     C_R   0.131321 0.479455 0.855287 -0.019068
C30   C     C_R   0.895680 0.471204 0.152157 0.030165
C31   C     C_R   0.569308 0.981740 0.147134 -0.005835
C32   C     C_R   0.452539 0.968046 0.845561 0.036283
C33   C     C_R   0.044179 0.586239 0.855275 0.330922
C34   C     C_R   0.972568 0.362889 0.158873 0.383858
C35   C     C_R   0.483671 0.088792 0.145327 0.332233
C36   C     C_R   0.529709 0.859308 0.840037 0.387546
C37   C     C_R   0.051325 0.815865 0.947622 -0.077645
C38   C     C_R   0.023104 0.123845 0.069310 -0.079592
C39   C     C_R   0.527551 0.316435 0.052918 -0.081606
C40   C     C_R   0.555701 0.622124 0.930660 -0.080038
C41   C     C_R   0.048544 0.698889 0.953861 -0.010225
C42   C     C_R   0.033327 0.240213 0.062736 -0.033021
C43   C     C_R   0.526817 0.199355 0.046910 -0.008413
C44   C     C_R   0.562138 0.738617 0.937132 -0.031662
C45   C     C_R   0.047156 0.658894 0.990486 -0.111907
C46   C     C_R   0.052968 0.279416 0.026253 -0.115959
C47   C     C_R   0.540469 0.158647 0.010489 -0.114212
C48   C     C_R   0.566804 0.778557 0.973767 -0.118143
C49   C     C_R   0.052615 0.855729 0.910662 -0.086420
C50   C     C_R   0.005096 0.085563 0.106265 -0.094034
C51   C     C_R   0.513285 0.357031 0.089644 -0.092855
C52   C     C_R   0.553667 0.583136 0.893611 -0.095688
C53   C     C_R   0.047310 0.451595 0.789674 -0.019142
C54   C     C_R   0.956299 0.528544 0.216011 -0.029441
C55   C     C_R   0.458725 0.954238 0.210830 -0.030128
C56   C     C_R   0.539731 0.026313 0.783298 -0.031606
H1    H     H_    0.203474 0.332287 0.823461 0.141254
H2    H     H_    0.828557 0.634610 0.173985 0.145457
H3    H     H_    0.626290 0.834242 0.180219 0.146376
H4    H     H_    0.399470 0.132884 0.823059 0.146217
H5    H     H_    0.202670 0.447596 0.879807 0.149432
H6    H     H_    0.837198 0.493684 0.125323 0.148905
H7    H     H_    0.649571 0.949415 0.124131 0.156591
H8    H     H_    0.385343 0.990362 0.871363 0.156529
H9    H     H_    0.045470 0.569395 0.996191 0.160325
H10   H     H_    0.064735 0.368566 0.020380 0.163062
H11   H     H_    0.540003 0.069035 0.004958 0.159022
H12   H     H_    0.575855 0.867852 0.979634 0.161635
C57   C     C_R   0.036729 0.928738 0.045886 0.016028
C58   C     C_R   0.042986 0.010224 0.971441 -0.021316
C59   C     C_R   0.560207 0.427492 0.954624 0.011277
C60   C     C_R   0.530764 0.510336 0.028642 -0.021294
C61   C     C_R   0.043965 0.087361 0.001843 0.043820
C62   C     C_R   0.045106 0.851184 0.015419 0.045605
C63   C     C_R   0.546487 0.586914 0.998280 0.045278
C64   C     C_R   0.552617 0.350475 0.985256 0.046803
C65   C     C_R   0.034095 0.046278 0.038922 0.093803
C66   C     C_R   0.047586 0.892679 0.978280 0.070229
C67   C     C_R   0.553869 0.545136 0.961274 0.090119
C68   C     C_R   0.538031 0.392660 0.022173 0.068700
C69   C     C_R   0.034877 0.893001 0.083374 -0.162761
C70   C     C_R   0.028118 0.047001 0.934167 -0.173658
C71   C     C_R   0.578233 0.391213 0.917374 -0.165979
C72   C     C_R   0.498307 0.547790 0.065299 -0.185644
C73   C     C_R   0.020483 0.968444 0.112994 0.274373
C74   C     C_R   0.031063 0.972461 0.904296 0.325541
C75   C     C_R   0.575697 0.466236 0.887428 0.282264
C76   C     C_R   0.488359 0.473804 0.095257 0.328624
O25   O     O_2   0.909324 0.129729 0.168116 -0.507787
O26   O     O_2   0.114810 0.815292 0.847148 -0.511268
O27   O     O_2   0.473153 0.624859 0.830450 -0.509841
O28   O     O_2   0.553279 0.317952 0.154193 -0.507214
C77   C     C_R   0.046652 0.732880 0.020569 -0.177788
C78   C     C_R   0.057730 0.205073 0.996478 -0.161232
C79   C     C_R   0.553899 0.232086 0.980374 -0.177565
C80   C     C_R   0.558378 0.704729 0.003675 -0.161164
H13   H     H_    0.073082 0.400367 0.251847 0.102699
H14   H     H_    0.880749 0.584671 0.764918 0.107544
H15   H     H_    0.662144 0.896836 0.749251 0.106108
H16   H     H_    0.285422 0.088655 0.232123 0.116460
H17   H     H_    0.076077 0.257775 0.205136 0.139812
H18   H     H_    0.880468 0.698446 0.821538 0.140547
H19   H     H_    0.637433 0.752919 0.795021 0.145229
H20   H     H_    0.308350 0.201958 0.175514 0.141770
H21   H     H_    0.046064 0.805760 0.090984 0.157442
H22   H     H_    0.003822 0.133878 0.927154 0.152971
H23   H     H_    0.596154 0.304005 0.910283 0.156481
H24   H     H_    0.470904 0.634804 0.071540 0.153988
H25   H     H_    0.044145 0.693528 0.047545 0.147247
H26   H     H_    0.078716 0.243076 0.969591 0.142255
H27   H     H_    0.561616 0.192386 0.953500 0.144705
H28   H     H_    0.567493 0.743124 0.030822 0.141382
C81   C     C_R   0.965995 0.528412 0.380038 -0.032797
C82   C     C_R   0.034043 0.471542 0.619943 -0.034462
C83   C     C_R   0.532242 0.028383 0.619984 -0.031981
C84   C     C_R   0.467754 0.971546 0.380043 -0.033648
C85   C     C_R   0.909309 0.342705 0.404769 -0.167767
C86   C     C_R   0.091087 0.657200 0.595199 -0.168221
C87   C     C_R   0.586630 0.842711 0.595281 -0.167993
C88   C     C_R   0.413507 0.157227 0.404754 -0.168363
C89   C     C_R   0.919636 0.415312 0.374447 -0.183307
C90   C     C_R   0.080700 0.584608 0.625522 -0.182531
C91   C     C_R   0.576779 0.915300 0.625599 -0.182061
C92   C     C_R   0.423315 0.084646 0.374435 -0.181579
C93   C     C_R   0.001116 0.569390 0.415930 -0.219161
C94   C     C_R   0.998762 0.430575 0.584054 -0.219731
C95   C     C_R   0.498360 0.069345 0.584074 -0.219409
C96   C     C_R   0.501578 0.930556 0.415953 -0.219874
C97   C     C_R   0.985831 0.498443 0.447407 0.080164
C98   C     C_R   0.014237 0.501493 0.552571 0.080517
C99   C     C_R   0.513185 0.998415 0.552603 0.079991
C100  C     C_R   0.486842 0.001491 0.447426 0.080356
C101  C     C_R   0.940099 0.383331 0.441083 0.127889
C102  C     C_R   0.060152 0.616584 0.558891 0.128071
C103  C     C_R   0.557212 0.883339 0.558949 0.127439
C104  C     C_R   0.442892 0.116581 0.441082 0.127638
C105  C     C_R   0.010582 0.538287 0.484773 0.051819
C106  C     C_R   0.989515 0.461642 0.515205 0.051794
C107  C     C_R   0.489719 0.038259 0.515226 0.051884
C108  C     C_R   0.510328 0.961648 0.484803 0.051833
C109  C     C_R   0.945726 0.347680 0.507249 -0.195848
C110  C     C_R   0.054501 0.652233 0.492727 -0.195922
C111  C     C_R   0.552580 0.847743 0.492778 -0.195958
C112  C     C_R   0.447535 0.152173 0.507252 -0.196007
C113  C     C_R   0.922060 0.309752 0.470972 -0.197405
C114  C     C_R   0.078263 0.690151 0.529001 -0.197432
C115  C     C_R   0.575034 0.809818 0.529066 -0.197534
C116  C     C_R   0.425120 0.190106 0.470965 -0.197548
H29   H     H_    0.887459 0.221755 0.466303 0.141052
H30   H     H_    0.113009 0.778130 0.533668 0.141074
H31   H     H_    0.608481 0.721864 0.533752 0.140861
H32   H     H_    0.391745 0.278072 0.466280 0.140866
H33   H     H_    0.966102 0.342181 0.581861 0.097810
H34   H     H_    0.033490 0.657817 0.418127 0.097843
H35   H     H_    0.532355 0.842105 0.418166 0.097822
H36   H     H_    0.467457 0.157776 0.581859 0.097922
H37   H     H_    0.110581 0.616260 0.653300 0.108025
H38   H     H_    0.889933 0.383651 0.346662 0.106648
H39   H     H_    0.394541 0.116317 0.346639 0.106045
H40   H     H_    0.605588 0.883659 0.653399 0.104210
H41   H     H_    0.873190 0.255055 0.399909 0.128329
H42   H     H_    0.127395 0.744827 0.600055 0.128274
H43   H     H_    0.621380 0.755078 0.600161 0.127844
H44   H     H_    0.378827 0.244874 0.399877 0.127807
H45   H     H_    0.927638 0.284589 0.528415 0.129976
H46   H     H_    0.072723 0.715309 0.471561 0.129965
H47   H     H_    0.570443 0.784707 0.471620 0.130005
H48   H     H_    0.429739 0.215223 0.528409 0.129978
Br1   Br    Br    0.036671 0.900767 0.161661 -0.578737
Br2   Br    Br    0.972751 0.038193 0.856345 -0.542257
Br3   Br    Br    0.615188 0.399168 0.839319 -0.570148
Br4   Br    Br    0.412653 0.540367 0.141834 -0.535732

loop_
_geom_bond_atom_site_label_1
_geom_bond_atom_site_label_2
_ccdc_geom_bond_type
C26   C30   A    
C103  C115  A    
C107  C108  A    
C94   H33   S    
O1    C5    A    
C96   C100  A    
O13   V1    S    
C105  C106  A    
O3    C7    A    
C10   N2    A    
C17   H18   S    
C83   C95   A    
C11   N3    A    
C16   O27   S    
C28   C56   A    
C7    C81   S    
C62   C77   A    
C11   C43   A    
C18   C22   A    
C17   C33   A    
C61   C78   A    
C32   C36   A    
C47   H11   S    
O20   V1    S    
O9    C4    A    
C2    C55   S    
O10   C3    A    
N2    C14   A    
O4    C8    A    
O11   C2    A    
C87   C103  A    
C24   C56   A    
C57   C65   A    
C113  H29   S    
C86   C102  A    
C31   H7    S    
C101  C113  A    
C58   C61   A    
C59   C67   A    
C84   C96   A    
C87   H43   S    
C5    C83   S    
C85   C89   A    
C86   H42   S    
C61   C65   A    
C12   C44   A    
C85   H41   S    
C98   C102  A    
C88   C92   A    
C77   H25   S    
C98   C106  A    
C46   H10   S    
C105  C110  A    
C14   O25   S    
C45   H9    S    
C59   C64   A    
C102  C114  A    
C15   C51   A    
C83   C91   A    
C110  C114  A    
C115  H31   S    
O4    V1    S    
C20   C36   A    
C108  C111  A    
O9    V1    S    
C97   C105  A    
O17   V4    S    
O7    C3    A    
C40   C67   A    
O15   V3    S    
O18   V3    S    
O8    C4    A    
C60   C72   A    
O12   V4    S    
O19   V2    S    
C23   C55   A    
C74   Br2   S    
C112  H48   S    
C73   Br1   S    
C26   C54   A    
C12   N4    A    
C88   C104  A    
C95   H36   S    
O16   V4    S    
C39   C51   A    
C89   H38   S    
C28   H4    S    
O17   V1    S    
C48   H12   S    
C31   C35   A    
C40   C52   A    
O7    V3    S    
C88   H44   S    
C107  C112  A    
C109  H45   S    
O8    V4    S    
C14   C50   A    
C12   O24   S    
C75   Br3   S    
C93   H34   S    
C32   H8    S    
C27   C55   A    
C60   C68   A    
C30   C34   A    
O15   C7    A    
C19   C35   A    
C99   C107  A    
C48   C80   A    
C19   C23   A    
C104  C116  A    
O19   V3    S    
C49   C74   A    
C78   H26   S    
O1    V4    S    
O13   C5    A    
C16   C52   A    
O2    V3    S    
C51   C76   A    
O3    V2    S    
C11   O23   S    
C38   C42   A    
C59   C71   A    
C58   C70   A    
C38   C65   A    
C29   C33   A    
O6    C2    A    
C18   C34   A    
C19   H20   S    
O10   V2    S    
C82   C90   A    
O20   V4    S    
C99   C103  A    
C39   C68   A    
C58   C66   A    
C85   C101  A    
C40   C44   A    
C79   H27   S    
C37   C41   A    
C80   H28   S    
C111  H47   S    
C70   C74   A    
C25   H1    S    
C26   H2    S    
C3    C54   S    
C69   C73   A    
C100  C104  A    
C9    C41   A    
O6    V2    S    
C90   H37   S    
C10   C42   A    
O18   V2    S    
C110  H46   S    
C71   C75   A    
C30   H6    S    
C86   C90   A    
O14   V2    S    
C76   Br4   S    
C95   C99   A    
C27   H3    S    
N4    C36   S    
C46   C78   A    
O5    V1    S    
C93   C97   A    
C45   C77   A    
C22   C54   A    
C62   C66   A    
C64   C68   A    
C57   C62   A    
C100  C108  A    
C47   C79   A    
N1    C13   A    
C10   O22   S    
C63   C67   A    
C22   H13   S    
C13   C49   A    
C44   C48   A    
C6    C84   S    
N3    C15   A    
C18   H17   S    
C63   C80   A    
C111  C115  A    
C25   C29   A    
C82   C94   A    
C13   O26   S    
C114  H30   S    
C81   C93   A    
C37   C66   A    
C27   C31   A    
C87   C91   A    
C50   C73   A    
C28   C32   A    
C9    N1    A    
O14   C6    A    
C81   C89   A    
N4    C16   A    
C8    C82   S    
O2    C6    A    
C39   C43   A    
C15   O28   S    
C4    C53   S    
C20   C24   A    
C52   C75   A    
C17   C21   A    
O5    C1    A    
C1    C56   S    
C25   C53   A    
C69   H21   S    
C70   H22   S    
C64   C79   A    
N1    C33   S    
C57   C69   A    
C38   C50   A    
C9    O21   S    
C24   H15   S    
C37   C49   A    
C91   H40   S    
C94   C98   A    
O11   V3    S    
C92   H39   S    
C72   C76   A    
C112  C116  A    
O12   C1    A    
N3    C35   S    
C23   H16   S    
C42   C46   A    
N2    C34   S    
C20   H19   S    
C41   C45   A    
C21   C53   A    
C21   H14   S    
C84   C92   A    
C96   H35   S    
C109  C113  A    
C71   H23   S    
C29   H5    S    
C43   C47   A    
O16   C8    A    
C60   C63   A    
C97   C101  A    
C116  H32   S    
C72   H24   S    
C106  C109  A    
