data_mof_unit_26499.cif
_audit_creation_date              2013-03-05T16:12:26-0500
_audit_creation_method            fapswitch 2.2
_symmetry_space_group_name_H-M    P1
_symmetry_Int_Tables_number       1
_space_group_crystal_system       triclinic
_cell_length_a                    10.85388
_cell_length_b                    9.979508
_cell_length_c                    23.435236
_cell_angle_alpha                 87.951145
_cell_angle_beta                  91.428454
_cell_angle_gamma                 87.783389
_cell_volume                      2534.018977

loop_
_atom_site_label
_atom_site_type_symbol
_atom_site_description
_atom_site_fract_x
_atom_site_fract_y
_atom_site_fract_z
_atom_type_partial_charge
O1    O     O_R   0.316770 0.614620 0.500000 -0.584604
O2    O     O_R   0.683230 0.385380 0.500000 -0.583097
O3    O     O_R   0.683230 0.614620 0.500000 -0.602814
O4    O     O_R   0.316770 0.385380 0.500000 -0.592651
C1    C     C_R   0.260216 0.501822 0.502636 0.928162
C2    C     C_R   0.739566 0.497247 0.498367 0.907269
O5    O     O_R   0.499970 0.614690 0.416160 -0.601079
O6    O     O_R   0.500030 0.385310 0.583840 -0.612460
O7    O     O_R   0.500030 0.614690 0.583840 -0.598034
O8    O     O_R   0.499970 0.385310 0.416160 -0.616616
C3    C     C_R   0.503554 0.501341 0.389647 0.935970
C4    C     C_R   0.500552 0.498000 0.610254 0.927874
Zn1   Zn    Zn3+2 0.500000 0.653120 0.500000 1.066778
Zn2   Zn    Zn3+2 0.500000 0.346880 0.500000 1.056553
C5    C     C_R   0.646580 0.470029 0.882977 0.597175
C6    C     C_R   0.421926 0.526068 0.115528 0.588406
N1    N     N_R   0.543892 0.513987 0.851547 -0.347392
N2    N     N_R   0.530083 0.518394 0.147059 -0.347741
C7    C     C_R   0.440534 0.563436 0.877168 0.587812
C8    C     C_R   0.641824 0.508867 0.121275 0.589700
C9    C     C_R   0.434376 0.560029 0.936458 -0.065554
C10   C     C_R   0.646802 0.501978 0.061950 -0.066942
C11   C     C_R   0.541664 0.524862 0.969243 -0.042256
C12   C     C_R   0.537467 0.525091 0.029090 -0.041759
C13   C     C_R   0.652440 0.487975 0.942269 -0.119902
C14   C     C_R   0.423745 0.546746 0.056052 -0.113624
C15   C     C_R   0.323566 0.591751 0.963246 -0.158734
C16   C     C_R   0.758510 0.474863 0.035070 -0.151863
C17   C     C_R   0.316542 0.584672 0.022649 0.323224
C18   C     C_R   0.762623 0.466263 0.975721 0.321763
O9    O     O_2   0.740440 0.406656 0.856949 -0.478003
O10   O     O_2   0.313874 0.510948 0.141804 -0.477304
O11   O     O_2   0.343322 0.614212 0.845172 -0.505849
O12   O     O_2   0.747585 0.505670 0.152934 -0.503850
H1    H     H_    0.241473 0.622194 0.938066 0.239256
H2    H     H_    0.843519 0.459972 0.060128 0.241895
C19   C     C_R   0.586579 0.411428 0.239962 -0.115946
C20   C     C_R   0.444037 0.432890 0.765963 -0.127194
H3    H     H_    0.638041 0.334908 0.217805 0.196114
H4    H     H_    0.377362 0.386771 0.793356 0.196046
C21   C     C_R   0.588004 0.407965 0.299536 -0.046346
C22   C     C_R   0.423410 0.438063 0.707076 -0.126154
C23   C     C_R   0.513502 0.503397 0.327548 -0.094540
C24   C     C_R   0.512724 0.494214 0.672154 -0.090332
C25   C     C_R   0.444741 0.601805 0.295544 -0.247201
C26   C     C_R   0.615571 0.552669 0.696504 -0.168222
H5    H     H_    0.382167 0.668417 0.316845 0.221766
H6    H     H_    0.683354 0.595271 0.668899 0.176401
C27   C     C_R   0.457595 0.616984 0.236733 0.003861
C28   C     C_R   0.626750 0.565738 0.755451 0.002853
C29   C     C_R   0.525633 0.516982 0.208280 0.194963
C30   C     C_R   0.540719 0.502135 0.790701 0.188239
C31   C     C_R   0.069295 0.381868 0.521557 -0.119240
C32   C     C_R   0.930754 0.607170 0.475087 -0.096027
C33   C     C_R   0.941676 0.378050 0.517949 -0.134856
C34   C     C_R   0.055504 0.619652 0.487712 -0.124807
C35   C     C_R   0.872467 0.491418 0.495191 -0.149931
C36   C     C_R   0.126815 0.503393 0.506379 -0.163570
C37   C     C_R   0.539639 0.065452 0.547093 -0.081597
C38   C     C_R   0.457328 0.934878 0.453511 -0.060882
C39   C     C_R   0.453690 0.077805 0.454070 -0.027607
C40   C     C_R   0.546281 0.922705 0.545865 -0.005506
N3    N     N_R   0.500000 0.857200 0.500000 -0.153193
N4    N     N_R   0.500000 0.142800 0.500000 -0.152127
N5    N     N_R   0.203017 0.627297 0.047887 0.255453
O13   O     O_R   0.098327 0.591605 0.026163 -0.305241
O14   O     O_R   0.202874 0.722297 0.084517 -0.286947
N6    N     N_R   0.880535 0.445059 0.950425 0.263767
O15   O     O_R   0.958751 0.354449 0.972585 -0.304219
O16   O     O_R   0.918702 0.532610 0.913040 -0.273743
C41   C     C_2   0.673500 0.309050 0.330419 1.005110
O17   O     O_2   0.691045 0.197157 0.311771 -0.545404
O18   O     O_R   0.738700 0.345646 0.379209 -0.782882
H7    H     H_    0.796657 0.270825 0.395290 0.379688
C42   C     C_2   0.300281 0.405144 0.684689 1.031316
O19   O     O_2   0.247561 0.309062 0.704966 -0.522726
O20   O     O_R   0.240161 0.491321 0.643684 -0.780543
H8    H     H_    0.150982 0.468619 0.636651 0.365083
C43   C     C_2   0.402189 0.739642 0.206936 0.989803
O21   O     O_2   0.450567 0.788035 0.164787 -0.581439
O22   O     O_R   0.296338 0.802469 0.228190 -0.747233
H9    H     H_    0.268098 0.885725 0.204638 0.384685
C44   C     C_2   0.723618 0.652799 0.777753 1.027222
O23   O     O_2   0.707797 0.714140 0.821388 -0.575368
O24   O     O_R   0.831851 0.668569 0.747463 -0.768032
H10   H     H_    0.890263 0.731306 0.766427 0.385124
C45   C     C_2   0.139196 0.255577 0.541469 1.034978
O25   O     O_2   0.207144 0.254088 0.583808 -0.565871
O26   O     O_R   0.125247 0.138227 0.511591 -0.749268
H11   H     H_    0.179654 0.060982 0.528192 0.373359
C46   C     C_2   0.861134 0.714703 0.440453 1.047180
O27   O     O_2   0.812194 0.687717 0.394941 -0.563276
O28   O     O_R   0.847380 0.844124 0.461020 -0.744571
H12   H     H_    0.795636 0.906781 0.434217 0.368855
C47   C     C_2   0.884676 0.254721 0.540591 1.029258
O29   O     O_2   0.896372 0.224310 0.591500 -0.543390
O30   O     O_R   0.830429 0.167094 0.503034 -0.749423
H13   H     H_    0.802792 0.082312 0.523176 0.370555
C48   C     C_2   0.106650 0.755700 0.483448 1.036304
O31   O     O_2   0.153602 0.803037 0.525808 -0.574228
O32   O     O_R   0.094694 0.832217 0.432322 -0.728714
H14   H     H_    0.126471 0.925804 0.435972 0.384005
C49   C     C_2   0.565943 0.127793 0.601673 0.995327
O33   O     O_2   0.662543 0.183367 0.609500 -0.585871
O34   O     O_R   0.480910 0.118453 0.645307 -0.712447
H15   H     H_    0.510029 0.161832 0.681437 0.356477
C50   C     C_2   0.424005 0.873324 0.399918 0.963407
O35   O     O_2   0.328492 0.813709 0.395494 -0.605034
O36   O     O_R   0.498982 0.893253 0.352941 -0.729805
H16   H     H_    0.457307 0.872630 0.315410 0.356152
C51   C     C_2   0.387566 0.154668 0.406829 0.966959
O37   O     O_2   0.431142 0.159662 0.359248 -0.586635
O38   O     O_R   0.272796 0.216790 0.416054 -0.764036
H17   H     H_    0.236348 0.265717 0.380524 0.352751
C52   C     C_2   0.618448 0.848042 0.591502 0.956171
O39   O     O_2   0.579285 0.840743 0.639934 -0.585531
O40   O     O_R   0.736058 0.795804 0.579981 -0.764072
H18   H     H_    0.781675 0.756223 0.615252 0.352286

loop_
_geom_bond_atom_site_label_1
_geom_bond_atom_site_label_2
_geom_bond_distance
_ccdc_geom_bond_type
C45   O25   1.220759 D    
O28   H12   1.013966 S    
C15   C17   1.395517 A    
C21   C23   1.415432 A    
O18   H7    1.013405 S    
C47   O29   1.222791 D    
O3    C2    1.302430 A    
C27   C29   1.414570 A    
O22   H9    1.013898 S    
O24   H10   1.013906 S    
O5    C3    1.309633 A    
C22   C42   1.476658 S    
O32   H14   1.013756 S    
C1    C36   1.452265 S    
C38   N3    1.374443 A    
O1    C1    1.303112 A    
C7    C9    1.392020 A    
C12   C14   1.413335 A    
C20   C22   1.391347 A    
C19   C29   1.401471 A    
C5    C13   1.407531 A    
C20   C30   1.403289 A    
C52   O39   1.222604 D    
C40   C52   1.472650 S    
O7    Zn1   1.988376 S    
C49   O34   1.397510 S    
C44   O23   1.222827 D    
N6    O15   1.301204 A    
N5    O14   1.301474 A    
N2    C29   1.436340 S    
C28   C30   1.415639 A    
C11   C12   1.404492 A    
C3    C23   1.461473 S    
O3    Zn1   2.010885 S    
C21   C41   1.484565 S    
C8    O12   1.349883 S    
C25   H5    1.076145 S    
C9    C15   1.401163 A    
C10   C16   1.401799 A    
O4    Zn2   2.010886 S    
C50   O36   1.398332 S    
C2    C35   1.445298 S    
O2    C2    1.293282 A    
C22   C24   1.404388 A    
C31   C45   1.499370 S    
N1    C30   1.434715 S    
C24   C26   1.398016 A    
C28   C44   1.486334 S    
O30   H13   1.013309 S    
C26   H6    1.081102 S    
C31   C33   1.387713 A    
C6    C14   1.402446 A    
C32   C34   1.390006 A    
C33   C47   1.485819 S    
O8    Zn2   1.988378 S    
C46   O27   1.222968 D    
C43   O22   1.398672 S    
C15   H1    1.083727 S    
O20   H8    1.013452 S    
C27   C43   1.486133 S    
C38   C39   1.425898 A    
C39   N4    1.371174 A    
C42   O19   1.223135 D    
C40   N3    1.372478 A    
C46   O28   1.398539 S    
C42   O20   1.398245 S    
C48   O31   1.222810 D    
Zn1   N3    2.036618 S    
C25   C27   1.392228 A    
O6    C4    1.303077 A    
Zn2   N4    2.036618 S    
C37   N4    1.374277 A    
C51   O38   1.395035 S    
C23   C25   1.395238 A    
C38   C50   1.461263 S    
C17   N5    1.436254 S    
C6    N2    1.369568 A    
C44   O24   1.398778 S    
C8    C10   1.396731 A    
C33   C35   1.414153 A    
C7    O11   1.350669 S    
C10   C12   1.405375 A    
O1    Zn1   2.040068 S    
C50   O35   1.219082 D    
C39   C51   1.478600 S    
C41   O18   1.396800 S    
O38   H17   1.013806 S    
C13   C18   1.418727 A    
C5    N1    1.369443 A    
C52   O40   1.396401 S    
C37   C40   1.424943 A    
O6    Zn2   2.015296 S    
C51   O37   1.222172 D    
C48   O32   1.398094 S    
O4    C1    1.297222 A    
C31   C36   1.423335 A    
C47   O30   1.398247 S    
C5    O9    1.348565 S    
C6    O10   1.349242 S    
O34   H15   1.013742 S    
C26   C28   1.394952 A    
C37   C49   1.468710 S    
C9    C11   1.404993 A    
C32   C46   1.491916 S    
C19   H3    1.083770 S    
O36   H16   1.010384 S    
C20   H4    1.084190 S    
C16   C18   1.398272 A    
N1    C7    1.369120 A    
C34   C36   1.419120 A    
N2    C8    1.369968 A    
C11   C13   1.414587 A    
C19   C21   1.395015 A    
O2    Zn2   2.040067 S    
O7    C4    1.298871 A    
O8    C3    1.296773 A    
C43   O21   1.223112 D    
O5    Zn1   2.015299 S    
C41   O17   1.223409 D    
C16   H2    1.083706 S    
C14   C17   1.417498 A    
N6    O16   1.301528 A    
N5    O13   1.301030 A    
C49   O33   1.217876 D    
C45   O26   1.397037 S    
C4    C24   1.452385 S    
C34   C48   1.487570 S    
O26   H11   1.013012 S    
O40   H18   1.012699 S    
C18   N6    1.435254 S    
C32   C35   1.410332 A    
