data_mof_unit_52540.cif
_audit_creation_date              2013-03-05T16:03:26-0500
_audit_creation_method            fapswitch 2.2
_symmetry_space_group_name_H-M    P1
_symmetry_Int_Tables_number       1
_space_group_crystal_system       triclinic
_cell_length_a                    6.952218
_cell_length_b                    18.23295
_cell_length_c                    20.17682
_cell_angle_alpha                 68.437821
_cell_angle_beta                  91.040076
_cell_angle_gamma                 90.650225
_cell_volume                      2378.19763209

loop_
_atom_site_label
_atom_site_type_symbol
_atom_site_description
_atom_site_fract_x
_atom_site_fract_y
_atom_site_fract_z
_atom_type_partial_charge
O1    O     O_R   0.488960 0.443750 0.941980 -0.587889
O2    O     O_R   0.823890 0.406510 0.087590 -0.593689
O3    O     O_R   0.999680 0.556250 0.058020 -0.587943
C1    C     C_R   0.656384 0.384777 0.115863 0.955539
O4    O     O_R   0.818360 0.434410 0.944340 -0.591503
O5    O     O_R   0.994110 0.584350 0.913750 -0.590183
C2    C     C_R   0.648499 0.420194 0.923940 0.977699
O6    O     O_R   0.494530 0.415650 0.086250 -0.589997
O7    O     O_3   0.662590 0.549160 0.990130 -0.272190
V1    V     V_3+5 0.935320 0.490880 0.001830 1.175593
O8    O     O_R   0.324180 0.593490 0.912410 -0.591852
C3    C     C_R   0.154712 0.615015 0.883957 0.958923
O9    O     O_R   0.329720 0.565590 0.055660 -0.591303
C4    C     C_R   0.162630 0.579523 0.076233 0.977708
V2    V     V_3+5 0.435990 0.509120 0.998170 1.175570
O10   O     O_3   0.158850 0.450840 0.009870 -0.272426
C5    C     C_3   0.024893 0.710661 0.306101 -0.134692
C6    C     C_3   0.213003 0.678094 0.286788 -0.283100
H1    H     H_    0.278779 0.619835 0.316821 0.159580
H2    H     H_    0.937291 0.677672 0.353190 0.188151
C7    C     C_1   0.158017 0.624968 0.121918 -0.300258
C8    C     C_1   0.109387 0.874662 0.378079 -0.262058
C9    C     C_3   0.957894 0.739913 0.226502 -0.086479
C10   C     C_3   0.146533 0.708361 0.207751 0.124496
C11   C     C_3   0.060489 0.819596 0.213536 0.047924
C12   C     C_3   0.124699 0.791132 0.292227 0.014370
C13   C     C_3   0.248254 0.788607 0.193270 -0.346706
C14   C     C_3   0.308363 0.758993 0.272599 0.406166
C15   C     C_1   0.153811 0.662565 0.160580 0.025697
C16   C     C_1   0.115658 0.836946 0.339513 0.115325
H3    H     H_    0.342091 0.820577 0.147604 0.153299
H4    H     H_    0.811472 0.732329 0.206953 0.137534
H5    H     H_    0.152950 0.528318 0.672031 0.119639
C17   C     C_R   0.133594 0.773744 0.878985 -0.172339
C18   C     C_R   0.122548 0.849917 0.879252 -0.172426
C19   C     C_R   0.110767 0.914413 0.815280 0.128963
C20   C     C_R   0.110426 0.902714 0.750690 -0.233978
C21   C     C_R   0.121504 0.825938 0.748931 0.099212
C22   C     C_R   0.133053 0.759999 0.814257 0.122966
C23   C     C_R   0.121113 0.814588 0.683299 -0.282150
C24   C     C_R   0.131516 0.737276 0.682614 0.105781
C25   C     C_R   0.140771 0.669844 0.747868 0.057013
C26   C     C_R   0.143057 0.682121 0.814240 -0.302463
C27   C     C_R   0.132431 0.726452 0.616706 -0.139145
C28   C     C_R   0.141047 0.651867 0.613775 -0.117721
C29   C     C_R   0.147817 0.585998 0.676020 -0.154420
C30   C     C_R   0.147197 0.593270 0.742678 0.012709
H6    H     H_    0.142166 0.725891 0.930251 0.100842
H7    H     H_    0.122963 0.858427 0.929665 0.124795
H8    H     H_    0.101149 0.954278 0.701984 0.117291
H9    H     H_    0.126474 0.775675 0.566288 0.094198
H10   H     H_    0.141538 0.645069 0.562673 0.131418
H11   H     H_    0.547024 0.373420 0.426133 0.127890
C31   C     C_R   0.632233 0.098170 0.254676 -0.163758
C32   C     C_R   0.644060 0.084431 0.191452 -0.095539
C33   C     C_R   0.659203 0.147283 0.126865 -0.117005
C34   C     C_R   0.661354 0.224388 0.125071 -0.155728
C35   C     C_R   0.647661 0.240402 0.188482 0.117978
C36   C     C_R   0.632811 0.175931 0.254609 0.115778
C37   C     C_R   0.648927 0.319062 0.186357 -0.299800
C38   C     C_R   0.633590 0.333925 0.251047 0.058826
C39   C     C_R   0.597348 0.268765 0.316478 0.062591
C40   C     C_R   0.611789 0.189535 0.318835 -0.296324
C41   C     C_R   0.649667 0.411532 0.253882 0.006808
C42   C     C_R   0.635231 0.422185 0.318528 -0.164265
C43   C     C_R   0.579971 0.360777 0.379072 -0.167168
C44   C     C_R   0.546218 0.286228 0.377317 -0.006381
H12   H     H_    0.618852 0.047014 0.303329 0.131740
H13   H     H_    0.639763 0.024622 0.192688 0.158327
H14   H     H_    0.668627 0.136297 0.077819 0.121791
H15   H     H_    0.673124 0.271102 0.073314 0.093006
H16   H     H_    0.651361 0.480373 0.321074 0.135110
O11   O     O_R   0.770540 0.084530 0.414050 -0.588155
O12   O     O_R   0.445710 0.065660 0.555720 -0.593512
O13   O     O_R   0.270420 0.915650 0.586190 -0.590535
C45   C     C_R   0.615392 0.079482 0.576633 0.977929
O14   O     O_R   0.441140 0.093540 0.412470 -0.589233
O15   O     O_R   0.265820 0.943740 0.441930 -0.583324
C46   C     C_R   0.609043 0.120231 0.387742 0.941048
O16   O     O_R   0.775150 0.056440 0.558310 -0.595317
O17   O     O_3   0.602370 0.950960 0.510050 -0.266467
V3    V     V_3+5 0.329450 0.009140 0.498150 1.180059
O18   O     O_R   0.935790 0.934280 0.444060 -0.584063
C47   C     C_R   0.103260 0.920322 0.423632 0.966181
O19   O     O_R   0.940370 0.906390 0.587310 -0.590965
C48   C     C_R   0.109843 0.883867 0.615057 0.937647
V4    V     V_3+5 0.828810 0.990710 0.501460 1.183331
O20   O     O_3   0.105780 0.049100 0.489960 -0.274243
C49   C     C_3   0.700625 0.322034 0.715565 -0.159541
C50   C     C_3   0.520057 0.285416 0.693290 -0.162635
H17   H     H_    0.427928 0.315053 0.645569 0.117326
H18   H     H_    0.757388 0.382378 0.686755 0.119666
H19   H     H_    0.302361 0.258193 0.788750 0.120483
C51   C     C_1   0.625629 0.124995 0.622346 -0.281460
C52   C     C_1   0.637924 0.374197 0.878647 -0.283033
C53   C     C_3   0.812270 0.244371 0.730125 -0.153382
C54   C     C_3   0.631759 0.208375 0.708468 0.223153
C55   C     C_3   0.743515 0.213001 0.808352 -0.155963
C56   C     C_3   0.631798 0.290052 0.793159 0.218462
C57   C     C_3   0.562963 0.176364 0.786065 -0.144739
C58   C     C_3   0.451288 0.254032 0.771514 -0.158324
C59   C     C_1   0.629977 0.162671 0.661038 -0.030784
C60   C     C_1   0.633517 0.336107 0.840303 -0.035664
H20   H     H_    0.506479 0.115983 0.814898 0.127530
H21   H     H_    0.835664 0.183340 0.856061 0.123570
H22   H     H_    0.961185 0.240132 0.712917 0.121187
C61   C     C_1   0.098544 0.993077 0.815716 0.015399
N1    N     N_1   0.088623 0.056299 0.815958 -0.100458
C62   C     C_1   0.150253 0.519261 0.802593 0.020512
N2    N     N_1   0.152269 0.459091 0.849608 -0.037829
C63   C     C_1   0.674389 0.483927 0.193380 0.034210
N3    N     N_1   0.691342 0.543240 0.146064 -0.034751
C64   C     C_1   0.412191 0.239394 0.429790 0.035790
N4    N     N_1   0.298758 0.205192 0.471132 -0.038796
N5    N     N_R   0.498395 0.769918 0.298939 0.227029
O21   O     O_R   0.582365 0.711298 0.348418 -0.451608
O22   O     O_R   0.573663 0.840149 0.279612 -0.438791
C65   C     C_1   0.977991 0.896861 0.172118 0.118276
N6    N     N_1   0.913608 0.957872 0.139058 -0.100587

loop_
_geom_bond_atom_site_label_1
_geom_bond_atom_site_label_2
_geom_bond_distance
_ccdc_geom_bond_type
O18   V4    1.969154 S    
V4    O20   2.164056 S    
C24   C25   1.434619 A    
C31   C32   1.391412 A    
C56   C60   1.482078 S    
C63   N3    1.156362 T    
C10   C13   1.547903 S    
C1    O6    1.297225 A    
C11   C65   1.465446 S    
O17   V3    2.150579 S    
C50   H17   1.110127 S    
C40   C46   1.496391 S    
C28   C29   1.382884 A    
C5    C9    1.558751 S    
C55   H21   1.110113 S    
O12   C45   1.298659 A    
C39   C44   1.428378 A    
C49   C56   1.539450 S    
C6    C10   1.547051 S    
C5    C12   1.547454 S    
C4    C7    1.449247 S    
C19   C20   1.395748 A    
C6    H1    1.110184 S    
C3    C26   1.488422 S    
O5    C3    1.297607 A    
C21   C22   1.422238 A    
C31   H12   1.081958 S    
C35   C37   1.418933 A    
V2    O10   2.163993 S    
C57   H20   1.110131 S    
C5    H2    1.108175 S    
C33   C34   1.392871 A    
C17   C18   1.393838 A    
C23   C48   1.489142 S    
C65   N6    1.156648 T    
O11   V4    1.993256 S    
C45   C51   1.450283 S    
C10   C15   1.480694 S    
O8    V2    1.996649 S    
C39   C40   1.432418 A    
C18   C19   1.392219 A    
N5    O22   1.300299 A    
C53   C55   1.550658 S    
C18   H7    1.083798 S    
C9    C10   1.545675 S    
O1    V2    1.964664 S    
O7    V1    2.150603 S    
C50   C54   1.539448 S    
C54   C59   1.481850 S    
O14   C46   1.295431 A    
C43   C44   1.389857 A    
O9    C4    1.299222 A    
C19   C61   1.441009 S    
H5    C29   1.084862 S    
O12   V3    1.972667 S    
C52   C60   1.214644 T    
C31   C36   1.417260 A    
O19   V4    1.996619 S    
C13   H3    1.110305 S    
C17   C22   1.417354 A    
C6    C14   1.539972 S    
H19   C58   1.110385 S    
O4    C2    1.298061 A    
C41   C63   1.442268 S    
C22   C26   1.422555 A    
C28   H10   1.082855 S    
C11   C12   1.537331 S    
C30   C62   1.443422 S    
C7    C15   1.213945 T    
C37   C38   1.433245 A    
C8    C47   1.450631 S    
C38   C41   1.440015 A    
O2    C1    1.298490 A    
C50   C58   1.550626 S    
C20   C21   1.416278 A    
C14   N5    1.453924 S    
O15   V3    1.966809 S    
O13   C48   1.296980 A    
O18   C47   1.300562 A    
C61   N1    1.157368 T    
C53   C54   1.539076 S    
C1    C37   1.486611 S    
C32   C33   1.388207 A    
C5    C6    1.555932 S    
O11   C46   1.306551 A    
C32   H13   1.081661 S    
C34   H15   1.081873 S    
C49   H18   1.110220 S    
H11   C43   1.085002 S    
O19   C48   1.299347 A    
O17   V4    1.710349 S    
O3    C4    1.298875 A    
C27   H9    1.081808 S    
C23   C24   1.417429 A    
C56   C58   1.539207 S    
C12   C16   1.483625 S    
O6    V2    1.997925 S    
C33   H14   1.082629 S    
O9    V2    1.969187 S    
C11   C13   1.548035 S    
C24   C27   1.414442 A    
C17   H6    1.081825 S    
C25   C26   1.436390 A    
O2    V1    2.006444 S    
C54   C57   1.539447 S    
C27   C28   1.384744 A    
C64   N4    1.156271 T    
C53   H22   1.110375 S    
C29   C30   1.399201 A    
C8    C16   1.214712 T    
O1    C2    1.299053 A    
C12   C14   1.528575 S    
C45   O16   1.298626 A    
O5    V1    2.003547 S    
O8    C3    1.300785 A    
O13   V3    2.003623 S    
O16   V4    1.981740 S    
C42   H16   1.085350 S    
C2    C52   1.450333 S    
C36   C40   1.416378 A    
C41   C42   1.393038 A    
C49   C53   1.550742 S    
C35   C36   1.422010 A    
O4    V1    1.972668 S    
C42   C43   1.376738 A    
O3    V1    1.966941 S    
V1    O10   1.704067 S    
C62   N2    1.156968 T    
C9    H4    1.110526 S    
C21   C23   1.413416 A    
C20   H8    1.083424 S    
C34   C35   1.418061 A    
O14   V3    2.006450 S    
V3    O20   1.704135 S    
C57   C58   1.550943 S    
C25   C30   1.439209 A    
C9    C11   1.546570 S    
C44   C64   1.439304 S    
C38   C39   1.438848 A    
C55   C57   1.550905 S    
O15   C47   1.298315 A    
C51   C59   1.214544 T    
C55   C56   1.539617 S    
C13   C14   1.540687 S    
C49   C50   1.550717 S    
N5    O21   1.299447 A    
O7    V2    1.713829 S    
