data_mof_unit_48895.cif
_audit_creation_date              2013-03-05T15:44:35-0500
_audit_creation_method            fapswitch 2.2
_symmetry_space_group_name_H-M    P1
_symmetry_Int_Tables_number       1
_space_group_crystal_system       triclinic
_cell_length_a                    18.97203
_cell_length_b                    11.098289
_cell_length_c                    18.752971
_cell_angle_alpha                 90.407609
_cell_angle_beta                  89.844206
_cell_angle_gamma                 89.988308
_cell_volume                      3948.4560476

loop_
_atom_site_label
_atom_site_type_symbol
_atom_site_description
_atom_site_fract_x
_atom_site_fract_y
_atom_site_fract_z
_atom_type_partial_charge
O1    O     O_R   0.787540 0.042690 0.170470 -0.476424
O2    O     O_R   0.212460 0.042690 0.829530 -0.484149
O3    O     O_R   0.287540 0.542690 0.170470 -0.476425
O4    O     O_R   0.712460 0.542690 0.829530 -0.484148
O5    O     O_R   0.765660 0.292160 0.175050 -0.507136
O6    O     O_R   0.234340 0.292160 0.824950 -0.513018
O7    O     O_R   0.265660 0.792160 0.175050 -0.507136
O8    O     O_R   0.734340 0.792160 0.824950 -0.513020
C1    C     C_R   0.730499 0.376933 0.146230 0.561353
C2    C     C_R   0.269340 0.377611 0.853558 0.554702
C3    C     C_R   0.230499 0.876933 0.146230 0.561353
C4    C     C_R   0.769340 0.877611 0.853558 0.554698
O9    O     O_R   0.670190 0.408980 0.168550 -0.510409
O10   O     O_R   0.329810 0.408980 0.831450 -0.506734
O11   O     O_R   0.170190 0.908980 0.168550 -0.510409
O12   O     O_R   0.829810 0.908980 0.831450 -0.506734
O13   O     O_R   0.556580 0.251450 0.175160 -0.469454
O14   O     O_R   0.443420 0.251450 0.824840 -0.470221
O15   O     O_R   0.056580 0.751450 0.175160 -0.469454
O16   O     O_R   0.943420 0.751450 0.824840 -0.470222
C5    C     C_R   0.531642 0.154737 0.146656 0.594694
C6    C     C_R   0.468996 0.155428 0.852935 0.580163
C7    C     C_R   0.031642 0.654737 0.146656 0.594694
C8    C     C_R   0.968996 0.655428 0.852935 0.580164
O17   O     O_R   0.545920 0.049510 0.170320 -0.518667
O18   O     O_R   0.454080 0.049510 0.829680 -0.528006
O19   O     O_R   0.045920 0.549510 0.170320 -0.518667
O20   O     O_R   0.954080 0.549510 0.829680 -0.528005
O21   O     O_R   0.681390 0.957840 0.176710 -0.512489
O22   O     O_R   0.318610 0.957840 0.823290 -0.519794
O23   O     O_R   0.181390 0.457840 0.176710 -0.512489
O24   O     O_R   0.818610 0.457840 0.823290 -0.519796
C9    C     C_R   0.740742 0.973109 0.146127 0.584842
C10   C     C_R   0.259169 0.973172 0.853732 0.571935
C11   C     C_R   0.240742 0.473109 0.146127 0.584842
C12   C     C_R   0.759169 0.473172 0.853732 0.571934
O25   O     O_R   0.787500 0.044280 0.330990 -0.438335
O26   O     O_R   0.212500 0.044280 0.669010 -0.438426
O27   O     O_R   0.287500 0.544280 0.330990 -0.438329
O28   O     O_R   0.712500 0.544280 0.669010 -0.438417
O29   O     O_R   0.765610 0.293630 0.323860 -0.433132
O30   O     O_R   0.234390 0.293630 0.676140 -0.436866
O31   O     O_R   0.265610 0.793630 0.323860 -0.433133
O32   O     O_R   0.734390 0.793630 0.676140 -0.436881
C13   C     C_R   0.713233 0.338522 0.361568 0.554345
C14   C     C_R   0.284949 0.344463 0.639195 0.610868
C15   C     C_R   0.213233 0.838523 0.361568 0.554344
C16   C     C_R   0.784950 0.844462 0.639195 0.610863
O33   O     O_R   0.670140 0.410570 0.329080 -0.424344
O34   O     O_R   0.329860 0.410570 0.670920 -0.428098
O35   O     O_R   0.170140 0.910570 0.329080 -0.424345
O36   O     O_R   0.829860 0.910570 0.670920 -0.428097
O37   O     O_R   0.556540 0.252920 0.323970 -0.462781
O38   O     O_R   0.443460 0.252920 0.676030 -0.462824
O39   O     O_R   0.056540 0.752920 0.323970 -0.462783
O40   O     O_R   0.943460 0.752920 0.676030 -0.462821
C17   C     C_R   0.533716 0.157143 0.353397 0.607528
C18   C     C_R   0.467726 0.156426 0.646608 0.588110
C19   C     C_R   0.033716 0.657143 0.353397 0.607531
C20   C     C_R   0.967726 0.656426 0.646608 0.588109
O41   O     O_R   0.545870 0.051100 0.330840 -0.432091
O42   O     O_R   0.454130 0.051100 0.669160 -0.438555
O43   O     O_R   0.045870 0.551100 0.330840 -0.432086
O44   O     O_R   0.954130 0.551100 0.669160 -0.438561
O45   O     O_R   0.681340 0.959300 0.325510 -0.472692
O46   O     O_R   0.318660 0.959300 0.674490 -0.430479
O47   O     O_R   0.181340 0.459300 0.325510 -0.472693
O48   O     O_R   0.818660 0.459300 0.674490 -0.430484
C21   C     C_R   0.741404 0.967898 0.352736 0.577461
C22   C     C_R   0.253590 0.958514 0.652699 0.651606
C23   C     C_R   0.241403 0.467899 0.352736 0.577463
C24   C     C_R   0.753590 0.458514 0.652699 0.651604
Cr1   Cr    Cr6+3 0.772000 0.169640 0.250110 1.162492
Cr2   Cr    Cr6+3 0.228000 0.169640 0.749890 1.172265
Cr3   Cr    Cr6+3 0.272000 0.669640 0.250110 1.162493
Cr4   Cr    Cr6+3 0.728000 0.669640 0.749890 1.172263
Cr5   Cr    Cr6+3 0.614960 0.323350 0.249260 1.173153
Cr6   Cr    Cr6+3 0.385040 0.323350 0.750740 1.189124
Cr7   Cr    Cr6+3 0.114960 0.823350 0.249260 1.173153
Cr8   Cr    Cr6+3 0.885040 0.823350 0.750740 1.189124
Cr9   Cr    Cr6+3 0.616670 0.010620 0.250840 1.130396
Cr10  Cr    Cr6+3 0.383330 0.010620 0.749160 1.145375
Cr11  Cr    Cr6+3 0.116670 0.510620 0.250840 1.130397
Cr12  Cr    Cr6+3 0.883330 0.510620 0.749160 1.145373
O49   O     O_3   0.667880 0.167870 0.250070 -0.356499
O50   O     O_3   0.332120 0.167870 0.749930 -0.340214
O51   O     O_3   0.167880 0.667870 0.250070 -0.356500
O52   O     O_3   0.832120 0.667870 0.749930 -0.340209
C25   C     C_R   0.500747 0.163465 0.924462 0.041816
C26   C     C_R   0.502446 0.161172 0.074064 0.038529
C27   C     C_R   0.000747 0.663465 0.924462 0.041817
C28   C     C_R   0.002446 0.661172 0.074064 0.038529
C29   C     C_R   0.505173 0.274298 0.962791 -0.021732
C30   C     C_R   0.493816 0.272481 0.037837 -0.023862
C31   C     C_R   0.005173 0.774298 0.962791 -0.021732
C32   C     C_R   0.993816 0.772481 0.037837 -0.023862
C33   C     C_R   0.505367 0.053632 0.034615 -0.156180
C34   C     C_R   0.504665 0.054767 0.961585 -0.153579
C35   C     C_R   0.005367 0.553632 0.034615 -0.156180
C36   C     C_R   0.004665 0.554767 0.961585 -0.153578
C37   C     C_R   0.519474 0.386487 0.929382 0.218615
C38   C     C_R   0.475785 0.381984 0.073421 0.215858
C39   C     C_R   0.019474 0.886487 0.929382 0.218616
C40   C     C_R   0.975785 0.881984 0.073421 0.215858
C41   C     C_R   0.008007 0.993686 0.967537 -0.172380
C42   C     C_R   0.984103 0.991376 0.037614 -0.170660
C43   C     C_R   0.508007 0.493686 0.967537 -0.172380
C44   C     C_R   0.484103 0.491376 0.037614 -0.170659
C45   C     C_R   0.698362 0.866189 0.037915 -0.137998
C46   C     C_R   0.301502 0.865953 0.961235 -0.135749
C47   C     C_R   0.198362 0.366189 0.037915 -0.137998
C48   C     C_R   0.801502 0.365953 0.961235 -0.135749
H1    H     H_    0.659657 0.816626 0.068522 0.126026
H2    H     H_    0.340870 0.817621 0.930377 0.128482
H3    H     H_    0.159657 0.316626 0.068522 0.126026
H4    H     H_    0.840870 0.317621 0.930377 0.128481
C49   C     C_R   0.699887 0.853638 0.964182 -0.138232
C50   C     C_R   0.299820 0.853076 0.034932 -0.136943
C51   C     C_R   0.199887 0.353638 0.964182 -0.138232
C52   C     C_R   0.799820 0.353076 0.034932 -0.136943
H5    H     H_    0.664690 0.789588 0.938978 0.125752
H6    H     H_    0.335625 0.790253 0.059799 0.124020
H7    H     H_    0.164690 0.289588 0.938978 0.125752
H8    H     H_    0.835625 0.290253 0.059799 0.124020
C53   C     C_R   0.749842 0.918083 0.924285 0.040579
C54   C     C_R   0.249359 0.916405 0.075270 0.042085
C55   C     C_R   0.249842 0.418083 0.924285 0.040579
C56   C     C_R   0.749359 0.416405 0.075270 0.042085
C57   C     C_R   0.794271 0.001187 0.957714 -0.127391
C58   C     C_R   0.204057 0.998022 0.042158 -0.127629
C59   C     C_R   0.294271 0.501187 0.957714 -0.127391
C60   C     C_R   0.704056 0.498022 0.042158 -0.127630
H9    H     H_    0.832607 0.053379 0.928106 0.143642
H10   H     H_    0.165166 0.049388 0.071979 0.143245
H11   H     H_    0.332607 0.553379 0.928106 0.143642
H12   H     H_    0.665166 0.549388 0.071979 0.143245
C61   C     C_R   0.794634 0.010021 0.030523 -0.120236
C62   C     C_R   0.203795 0.006993 0.969372 -0.117195
C63   C     C_R   0.294634 0.510021 0.030523 -0.120236
C64   C     C_R   0.703795 0.506993 0.969372 -0.117195
C65   C     C_R   0.747236 0.942162 0.071410 0.054439
C66   C     C_R   0.252184 0.941014 0.928102 0.058379
C67   C     C_R   0.247236 0.442162 0.071410 0.054439
C68   C     C_R   0.752184 0.441014 0.928102 0.058379
C69   C     C_R   0.444598 0.137742 0.448250 0.241120
C70   C     C_R   0.431178 0.137599 0.521626 0.213707
C71   C     C_R   0.944598 0.637745 0.448250 0.241121
C72   C     C_R   0.931179 0.637599 0.521626 0.213708
C73   C     C_R   0.485000 0.162423 0.571428 0.052545
C74   C     C_R   0.512915 0.166220 0.426385 0.065119
C75   C     C_R   0.985000 0.662423 0.571428 0.052538
C76   C     C_R   0.012916 0.666222 0.426386 0.065125
C77   C     C_R   0.553341 0.183752 0.548609 -0.068567
C78   C     C_R   0.567214 0.184300 0.476091 -0.092203
C79   C     C_R   0.053341 0.683753 0.548609 -0.068578
C80   C     C_R   0.067214 0.684303 0.476091 -0.092199
C81   C     C_R   0.820561 0.895812 0.444411 0.199355
C82   C     C_R   0.168536 0.920504 0.554998 0.132874
C83   C     C_R   0.320559 0.395808 0.444411 0.199364
C84   C     C_R   0.668536 0.420502 0.554999 0.132876
C85   C     C_R   0.831509 0.897026 0.518469 0.144464
C86   C     C_R   0.167916 0.918355 0.480177 0.133305
C87   C     C_R   0.331508 0.397023 0.518469 0.144463
C88   C     C_R   0.667915 0.418353 0.480178 0.133304
C89   C     C_R   0.772461 0.878847 0.564906 -0.033541
C90   C     C_R   0.221555 0.856665 0.441090 -0.072874
C91   C     C_R   0.272459 0.378849 0.564906 -0.033536
C92   C     C_R   0.721554 0.356663 0.441090 -0.072875
C93   C     C_R   0.703518 0.872722 0.537501 0.164117
C94   C     C_R   0.274922 0.796360 0.480803 0.137928
C95   C     C_R   0.203516 0.372731 0.537503 0.164111
C96   C     C_R   0.774922 0.296358 0.480803 0.137927
C97   C     C_R   0.692639 0.880501 0.464150 0.137888
C98   C     C_R   0.274573 0.801965 0.556739 0.173170
C99   C     C_R   0.192637 0.380506 0.464151 0.137884
C100  C     C_R   0.774572 0.301964 0.556740 0.173174
C101  C     C_R   0.751591 0.903099 0.419090 -0.037919
C102  C     C_R   0.229745 0.884074 0.590577 -0.017452
C103  C     C_R   0.251590 0.403099 0.419091 -0.037915
C104  C     C_R   0.729745 0.384073 0.590578 -0.017451
H13   H     H_    0.510772 0.966703 0.059970 0.147635
H14   H     H_    0.504146 0.968360 0.934310 0.148811
H15   H     H_    0.010772 0.466703 0.059970 0.147635
H16   H     H_    0.004146 0.468360 0.934310 0.148812
N1    N     N_R   0.878213 0.895647 0.393631 0.115991
O53   O     O_R   0.923574 0.983314 0.392979 -0.126311
O54   O     O_R   0.873674 0.828475 0.336666 -0.250328
N2    N     N_R   0.106982 0.955678 0.595931 0.110138
O55   O     O_R   0.062689 0.035755 0.573060 -0.112586
O56   O     O_R   0.094369 0.904869 0.657026 -0.285522
N3    N     N_R   0.378211 0.395640 0.393630 0.115991
O57   O     O_R   0.423573 0.483306 0.392977 -0.126309
O58   O     O_R   0.373670 0.328468 0.336666 -0.250331
N4    N     N_R   0.606981 0.455672 0.595932 0.110135
O59   O     O_R   0.562681 0.535733 0.573058 -0.112576
O60   O     O_R   0.594372 0.404866 0.657030 -0.285525
N5    N     N_R   0.900778 0.925230 0.545831 0.113883
O61   O     O_R   0.956647 0.886423 0.513253 -0.284126
O62   O     O_R   0.908918 0.016286 0.588790 -0.140991
N6    N     N_R   0.115992 0.988392 0.444748 0.148717
O63   O     O_R   0.060454 0.938020 0.417675 -0.216864
O64   O     O_R   0.119452 0.104756 0.449072 -0.168806
N7    N     N_R   0.400777 0.425226 0.545830 0.113878
O65   O     O_R   0.456646 0.386420 0.513250 -0.284127
O66   O     O_R   0.408918 0.516281 0.588789 -0.140995
N8    N     N_R   0.615992 0.488391 0.444749 0.148717
O67   O     O_R   0.560454 0.438019 0.417674 -0.216863
O68   O     O_R   0.619449 0.604755 0.449077 -0.168800
N9    N     N_R   0.643874 0.867678 0.584673 0.126658
O69   O     O_R   0.632044 0.955358 0.629573 -0.320634
O70   O     O_R   0.601988 0.775024 0.583669 -0.155671
N10   N     N_R   0.334462 0.744297 0.445324 0.128101
O71   O     O_R   0.358870 0.642520 0.467382 -0.240729
O72   O     O_R   0.375317 0.812157 0.406917 -0.160980
N11   N     N_R   0.143872 0.367701 0.584676 0.126637
O73   O     O_R   0.132070 0.455350 0.629602 -0.320631
O74   O     O_R   0.101965 0.275076 0.583657 -0.155651
N12   N     N_R   0.834463 0.244297 0.445325 0.128096
O75   O     O_R   0.858877 0.142527 0.467389 -0.240708
O76   O     O_R   0.875314 0.312157 0.406914 -0.160983
N13   N     N_R   0.621649 0.870346 0.436445 0.135770
O77   O     O_R   0.568741 0.920161 0.469537 -0.259615
O78   O     O_R   0.608408 0.801552 0.381589 -0.196178
N14   N     N_R   0.324570 0.737319 0.599496 0.122944
O79   O     O_R   0.392024 0.752597 0.590681 -0.124424
O80   O     O_R   0.302552 0.683170 0.656698 -0.311697
N15   N     N_R   0.121647 0.370353 0.436445 0.135776
O81   O     O_R   0.068741 0.420179 0.469533 -0.259645
O82   O     O_R   0.108406 0.301556 0.381590 -0.196171
N16   N     N_R   0.824567 0.237315 0.599497 0.122942
O83   O     O_R   0.892021 0.252612 0.590694 -0.124441
O84   O     O_R   0.802543 0.183146 0.656690 -0.311701
N17   N     N_R   0.552649 0.392939 0.860339 0.092660
O85   O     O_R   0.598061 0.311315 0.840515 -0.324323
O86   O     O_R   0.544114 0.487556 0.820666 -0.291978
N18   N     N_R   0.442332 0.382962 0.142438 0.093194
O87   O     O_R   0.398551 0.297749 0.159853 -0.303874
O88   O     O_R   0.448865 0.475878 0.184641 -0.285811
N19   N     N_R   0.052649 0.892938 0.860339 0.092659
O89   O     O_R   0.098061 0.811315 0.840515 -0.324322
O90   O     O_R   0.044114 0.987556 0.820666 -0.291979
N20   N     N_R   0.942332 0.882962 0.142438 0.093195
O91   O     O_R   0.898551 0.797749 0.159853 -0.303874
O92   O     O_R   0.948865 0.975878 0.184641 -0.285811
H17   H     H_    0.017719 0.080056 0.942889 0.143308
H18   H     H_    0.971851 0.075844 0.064108 0.143935
H19   H     H_    0.517719 0.580056 0.942889 0.143308
H20   H     H_    0.471851 0.575844 0.064108 0.143935
H21   H     H_    0.831477 0.072692 0.054424 0.136291
H22   H     H_    0.166402 0.068647 0.945847 0.140813
H23   H     H_    0.331477 0.572692 0.054424 0.136291
H24   H     H_    0.666402 0.568647 0.945847 0.140813
N21   N     N_R   0.390673 0.099941 0.397997 0.130830
O93   O     O_R   0.324446 0.122387 0.410350 -0.253528
O94   O     O_R   0.406600 0.040318 0.340224 -0.240707
N22   N     N_R   0.370961 0.076154 0.545271 0.064345
O95   O     O_R   0.373708 0.961169 0.536860 -0.256250
O96   O     O_R   0.310428 0.129928 0.550496 -0.390269
N23   N     N_R   0.890672 0.599946 0.397997 0.130832
O97   O     O_R   0.824445 0.622391 0.410352 -0.253532
O98   O     O_R   0.906598 0.540330 0.340222 -0.240708
N24   N     N_R   0.870961 0.576152 0.545270 0.064355
O99   O     O_R   0.873704 0.461169 0.536849 -0.256245
O100  O     O_R   0.810431 0.629929 0.550503 -0.390273
H25   H     H_    0.595841 0.195005 0.586438 0.165219
H26   H     H_    0.621168 0.191862 0.458309 0.059660
H27   H     H_    0.095841 0.695006 0.586438 0.165213
H28   H     H_    0.121169 0.691865 0.458309 0.059659

loop_
_geom_bond_atom_site_label_1
_geom_bond_atom_site_label_2
_geom_bond_distance
_ccdc_geom_bond_type
C18   O42   1.272154 A    
C82   C86   1.403231 A    
Cr11  O51   1.997712 S    
N7    O65   1.294141 A    
O4    C12   1.262315 A    
C10   C66   1.447791 S    
C37   C43   1.400600 A    
C29   C30   1.423440 A    
O39   C19   1.276381 A    
O20   Cr12  2.066406 S    
O29   C13   1.314018 A    
N4    O60   1.302184 A    
C31   C32   1.423440 A    
C64   H24   1.082550 S    
C72   C75   1.411529 A    
O8    Cr4   1.954101 S    
C97   N13   1.449011 S    
N14   O79   1.301205 A    
C46   C50   1.390692 A    
C40   C42   1.400305 A    
C69   C70   1.398702 A    
N1    O53   1.299177 A    
O23   Cr11  1.939631 S    
O32   C16   1.311696 A    
C19   C76   1.426337 S    
O15   Cr7   1.946131 S    
O7    C3    1.277181 A    
N7    O66   1.297399 A    
C33   H13   1.083559 S    
C87   N7    1.445641 S    
O36   Cr8   2.074194 S    
O24   C12   1.273433 A    
C99   C103  1.423316 A    
C43   H19   1.082746 S    
N19   O89   1.301637 A    
C81   N1    1.448274 S    
C59   H11   1.084125 S    
N11   O74   1.299742 A    
C50   H6    1.082218 S    
N21   O93   1.300729 A    
C40   N20   1.439928 S    
C60   H12   1.084045 S    
N1    O54   1.301358 A    
O47   C23   1.253326 A    
C54   C58   1.398345 A    
C86   N6    1.423596 S    
C28   C32   1.423683 A    
Cr8   O52   1.996556 S    
C99   N15   1.449011 S    
N18   O87   1.301614 A    
N2    O56   1.302184 A    
O30   C14   1.311695 A    
C81   C85   1.404788 A    
C23   C103  1.454970 S    
C91   C95   1.408106 A    
C46   C66   1.402050 A    
C73   C77   1.385200 A    
C84   C104  1.401783 A    
C1    O9    1.267277 A    
C71   C72   1.398703 A    
C21   C101  1.454967 S    
C86   C90   1.424834 A    
C3    O11   1.267277 A    
C39   C41   1.400601 A    
O11   Cr7   2.074654 S    
C16   C89   1.466945 S    
C4    O12   1.268410 A    
O21   C9    1.274181 A    
O33   Cr5   2.064429 S    
N6    O63   1.296004 A    
N22   O96   1.297278 A    
N20   O92   1.301581 A    
C43   C44   1.389445 A    
C38   C44   1.400303 A    
O6    Cr2   1.954101 S    
C7    O19   1.281430 A    
C27   C36   1.399170 A    
C15   O35   1.299358 A    
O3    Cr3   2.066397 S    
N17   O85   1.301636 A    
C98   C102  1.394603 A    
C26   C33   1.400715 A    
C35   H15   1.083558 S    
C69   C74   1.395374 A    
O2    Cr2   2.080915 S    
C18   C73   1.448572 S    
C47   C67   1.400434 A    
C33   C34   1.369769 A    
C95   N11   1.435769 S    
Cr6   O50   1.996556 S    
N4    O59   1.298842 A    
O42   Cr10  2.062925 S    
C93   N9    1.435758 S    
O18   Cr10  2.066406 S    
C17   C74   1.426337 S    
O31   Cr3   1.947565 S    
C69   N21   1.452773 S    
C58   H10   1.084046 S    
C63   C67   1.403011 A    
O34   Cr6   2.074194 S    
Cr7   O51   1.996388 S    
C31   C39   1.423637 A    
C14   O34   1.270835 A    
C26   C30   1.423683 A    
C55   C59   1.396114 A    
C5    C26   1.473276 S    
C89   C93   1.408098 A    
O24   Cr12  1.945746 S    
O9    Cr5   2.074654 S    
O30   Cr2   1.961453 S    
C1    C56   1.447932 S    
C14   C91   1.466947 S    
O22   C10   1.273433 A    
C45   C49   1.388944 A    
N3    O57   1.299178 A    
O48   Cr12  1.946488 S    
O14   Cr6   1.954035 S    
C76   C80   1.404629 A    
C2    C55   1.444484 S    
C88   C92   1.424837 A    
C3    C54   1.447932 S    
C98   N14   1.438548 S    
N9    O69   1.301340 A    
C79   H27   1.082082 S    
C2    O10   1.268410 A    
C29   C37   1.423637 A    
C48   C52   1.390692 A    
C15   C90   1.512087 S    
O16   Cr8   1.954035 S    
N8    O67   1.296004 A    
C22   C102  1.494538 S    
O7    Cr3   1.967953 S    
C4    C53   1.444484 S    
O26   Cr2   2.072488 S    
C78   H26   1.079183 S    
Cr10  O50   1.997186 S    
C95   C99   1.394787 A    
C25   C29   1.422860 A    
O13   C5    1.286499 A    
Cr4   O52   1.975464 S    
O40   C20   1.285780 A    
N14   O80   1.301227 A    
O48   C24   1.301457 A    
O12   Cr8   2.064566 S    
C20   C75   1.448572 S    
Cr12  O52   1.997186 S    
O41   Cr9   2.058153 S    
C34   H14   1.083702 S    
C87   C91   1.432245 A    
N11   O73   1.301307 A    
N3    O58   1.301356 A    
O5    C1    1.277181 A    
N13   O77   1.299931 A    
C83   N3    1.448277 S    
O46   Cr10  1.946488 S    
C70   C73   1.411532 A    
O39   Cr7   1.951871 S    
O25   C21   1.285689 A    
C100  C104  1.394598 A    
N12   O76   1.300636 A    
N15   O81   1.299928 A    
C80   H28   1.079183 S    
O3    C11   1.261135 A    
O8    C4    1.274008 A    
C100  N16   1.438545 S    
N22   O95   1.285763 A    
O13   Cr5   1.946131 S    
C13   O33   1.299362 A    
C61   C65   1.403011 A    
C57   C61   1.368250 A    
N19   O90   1.301585 A    
C81   C101  1.395730 A    
O47   Cr11  1.952164 S    
C42   H18   1.082744 S    
N16   O84   1.301234 A    
C45   H1    1.083326 S    
N17   O86   1.301584 A    
O35   Cr7   2.064429 S    
C41   H17   1.082746 S    
C6    O18   1.282814 A    
C77   H25   1.082081 S    
C57   H9    1.084125 S    
C47   C51   1.388944 A    
Cr3   O51   1.975472 S    
O26   C22   1.265530 A    
N15   O82   1.301762 A    
N10   O72   1.300634 A    
O21   Cr9   1.939631 S    
C90   C94   1.427797 A    
O27   Cr3   2.086844 S    
C32   C40   1.423483 A    
C53   C57   1.396113 A    
C37   N17   1.440343 S    
O37   Cr5   1.951871 S    
O38   C18   1.285779 A    
C83   C87   1.404785 A    
O38   Cr6   1.943691 S    
C60   C64   1.369312 A    
C24   C104  1.494538 S    
C49   H5    1.082469 S    
N23   O97   1.300728 A    
C58   C62   1.369312 A    
C8    C27   1.474023 S    
C84   C88   1.403236 A    
C38   N18   1.439928 S    
C48   H4    1.083282 S    
C96   N12   1.429230 S    
O15   C7    1.286499 A    
C8    O20   1.282814 A    
N21   O94   1.300347 A    
Cr1   O49   1.975472 S    
C92   C96   1.427802 A    
C7    C28   1.473276 S    
C5    O17   1.281430 A    
C56   C60   1.398345 A    
O37   C17   1.276385 A    
O22   Cr10  1.945746 S    
O28   C24   1.265531 A    
C70   N22   1.403104 S    
O14   C6    1.287585 A    
C19   O43   1.268651 A    
O5    Cr1   1.967953 S    
C63   H23   1.081999 S    
C64   C68   1.402040 A    
C83   C103  1.395724 A    
C62   H22   1.082550 S    
O17   Cr9   2.070773 S    
C82   N2    1.447776 S    
O6    C2    1.274008 A    
C61   H21   1.081999 S    
C52   C56   1.403898 A    
C17   O41   1.268648 A    
N24   O99   1.285758 A    
C94   C98   1.424950 A    
C51   H7    1.082469 S    
Cr2   O50   1.975464 S    
C41   C42   1.389445 A    
C44   H20   1.082745 S    
O25   Cr1   2.086844 S    
C75   C79   1.385202 A    
O40   Cr8   1.943691 S    
C35   C36   1.369771 A    
C85   N5    1.445641 S    
C25   C34   1.399170 A    
C20   O44   1.272152 A    
C9    C65   1.445198 S    
C46   H2    1.083282 S    
C48   C68   1.402050 A    
N5    O62   1.297400 A    
C71   C76   1.395373 A    
C82   C102  1.401787 A    
O1    Cr1   2.066397 S    
N16   O83   1.301217 A    
N13   O78   1.301762 A    
N23   O98   1.300343 A    
C88   N8    1.423597 S    
C47   H3    1.083326 S    
C93   C97   1.394779 A    
O2    C10   1.262315 A    
N12   O75   1.291867 A    
O46   C22   1.301455 A    
C49   C53   1.404857 A    
Cr5   O49   1.996388 S    
O44   Cr12  2.062925 S    
O45   C21   1.253331 A    
N20   O91   1.301614 A    
C62   C66   1.402041 A    
N9    O70   1.299764 A    
C6    C25   1.474023 S    
N18   O88   1.301581 A    
O23   C11   1.274181 A    
O10   Cr6   2.064566 S    
C71   N23   1.452774 S    
N5    O61   1.294141 A    
C36   H16   1.083703 S    
C13   C92   1.512088 S    
Cr9   O49   1.997712 S    
C72   N24   1.403106 S    
O4    Cr4   2.080915 S    
C59   C63   1.368250 A    
C52   H8    1.082217 S    
O1    C9    1.261135 A    
O29   Cr1   1.947565 S    
O19   Cr11  2.070773 S    
O28   Cr4   2.072488 S    
C16   O36   1.270833 A    
N24   O100  1.297274 A    
C94   N10   1.429225 S    
N10   O71   1.291863 A    
C30   C38   1.423483 A    
C27   C31   1.422860 A    
C39   N19   1.440340 S    
C74   C78   1.404626 A    
C84   N4    1.447778 S    
O43   Cr11  2.058153 S    
C79   C80   1.384518 A    
O27   C23   1.285694 A    
O45   Cr9   1.952164 S    
N2    O55   1.298842 A    
C45   C65   1.400434 A    
C50   C54   1.403898 A    
O32   Cr4   1.961453 S    
C97   C101  1.423315 A    
C12   C68   1.447791 S    
N8    O68   1.295103 A    
O31   C15   1.314018 A    
O16   C8    1.287585 A    
N6    O64   1.295102 A    
C85   C89   1.432245 A    
C96   C100  1.424949 A    
C28   C35   1.400714 A    
C11   C67   1.445198 S    
C77   C78   1.384518 A    
C51   C55   1.404856 A    
