data_mof_unit_50236.cif
_audit_creation_date              2012-12-10T19:06:14-0500
_audit_creation_method            fapswitch 2.2
_symmetry_space_group_name_H-M    P1
_symmetry_Int_Tables_number       1
_space_group_crystal_system       triclinic
_cell_length_a                    13.060856
_cell_length_b                    13.654121
_cell_length_c                    15.733946
_cell_angle_alpha                 89.99406
_cell_angle_beta                  93.709499
_cell_angle_gamma                 85.915339
_cell_volume                      2792.88320777

loop_
_atom_site_label
_atom_site_type_symbol
_atom_type_description
_atom_site_fract_x
_atom_site_fract_y
_atom_site_fract_z
_atom_type_partial_charge
C1    C     C_R   0.481298 0.684969 0.498901 0.899004
C2    C     C_1   0.144722 0.488764 0.479010 0.079543
C3    C     C_R   0.500299 0.500176 0.662297 0.906799
C4    C     C_R   0.499716 0.500092 0.337691 0.907185
C5    C     C_3   0.421087 0.562717 0.020888 0.011826
C6    C     C_3   0.581051 0.442357 0.979028 0.012934
C7    C     C_3   0.514756 0.594671 0.976056 0.011237
C8    C     C_3   0.487393 0.410287 0.023832 0.011632
C9    C     C_1   0.501657 0.502019 0.750937 -0.204812
C10   C     C_1   0.498537 0.500041 0.249020 -0.206710
C11   C     C_3   0.414262 0.473371 0.960750 -0.256065
C12   C     C_R   0.518700 0.315030 0.501106 0.901025
C13   C     C_3   0.587849 0.531655 0.039273 -0.257403
C14   C     C_3   0.508629 0.505571 0.916878 0.096449
C15   C     C_3   0.493424 0.499416 0.083071 0.097902
C16   C     C_1   0.505152 0.504010 0.826164 -0.104107
C17   C     C_1   0.495868 0.499691 0.173777 -0.104330
C18   C     C_1   0.533655 0.212359 0.503492 -0.211111
C19   C     C_1   0.466330 0.787636 0.496532 -0.214493
C20   C     C_R   0.534407 0.700221 0.958899 0.120696
C21   C     C_R   0.542020 0.765274 0.027863 -0.145681
C22   C     C_R   0.562799 0.862930 0.014711 -0.144851
C23   C     C_2   0.544723 0.021357 0.506997 0.190925
C24   C     C_R   0.575512 0.896731 0.932558 -0.114209
C25   C     C_R   0.567179 0.832938 0.863465 -0.139164
C26   C     C_R   0.546906 0.735030 0.876409 -0.156361
C27   C     C_R   0.467723 0.304593 0.040445 0.117555
C28   C     C_R   0.460875 0.239882 0.971176 -0.142697
C29   C     C_R   0.440060 0.142122 0.983720 -0.143367
C30   C     C_R   0.426534 0.107856 0.065571 -0.116196
C31   C     C_R   0.434061 0.171295 0.134966 -0.141697
C32   C     C_R   0.454365 0.269308 0.122626 -0.155317
C33   C     C_R   0.326557 0.629721 0.033986 0.119214
C34   C     C_2   0.455236 0.978636 0.493052 0.192277
C35   C     C_R   0.275749 0.678981 0.963140 -0.158220
C36   C     C_R   0.187216 0.740694 0.972577 -0.146045
C37   C     C_R   0.148452 0.753670 0.052785 -0.107179
C38   C     C_R   0.198146 0.704800 0.123574 -0.134555
C39   C     C_R   0.286769 0.642958 0.114380 -0.154108
C40   C     C_R   0.676275 0.376518 0.965343 0.115867
C41   C     C_R   0.725861 0.324375 0.035169 -0.153946
C42   C     C_R   0.815675 0.264612 0.025304 -0.145939
C43   C     C_R   0.857036 0.256618 0.945727 -0.112031
C44   C     C_R   0.808710 0.308565 0.876007 -0.148041
C45   C     C_1   0.457216 0.874714 0.494524 0.007223
C46   C     C_R   0.718844 0.368469 0.885635 -0.150497
C47   C     C_3   0.352902 0.036152 0.475224 -0.926510
C48   C     C_3   0.647054 0.963837 0.524823 -0.922786
C49   C     C_R   0.011897 0.526201 0.621506 0.139554
C50   C     C_R   0.980439 0.468544 0.687843 -0.148545
C51   C     C_R   0.020815 0.480231 0.771457 -0.138984
C52   C     C_R   0.092410 0.549830 0.789763 -0.115172
C53   C     C_R   0.123172 0.608429 0.724592 -0.134115
C54   C     C_R   0.082775 0.597220 0.640897 -0.130365
C55   C     C_R   0.987386 0.483675 0.377918 0.138304
C56   C     C_1   0.542751 0.125279 0.505512 0.009248
C57   C     C_R   0.018515 0.400570 0.330748 -0.145273
C58   C     C_R   0.977351 0.388124 0.247439 -0.138549
C59   C     C_R   0.905437 0.458715 0.210294 -0.114502
C60   C     C_R   0.875020 0.542209 0.256182 -0.131794
C61   C     C_R   0.916115 0.555078 0.339418 -0.137062
C62   C     C_2   0.031246 0.496344 0.466605 -0.100526
C63   C     C_2   0.968414 0.513268 0.532701 -0.100349
C64   C     C_1   0.855112 0.514509 0.520812 0.082073
H1    H     H_    0.659501 0.555545 0.072447 0.145756
H2    H     H_    0.409879 0.032291 0.075208 0.130353
H3    H     H_    0.423598 0.144645 0.198400 0.131055
H4    H     H_    0.458888 0.316436 0.177419 0.138806
H5    H     H_    0.304642 0.669328 0.900451 0.129617
H6    H     H_    0.148537 0.778216 0.917634 0.130334
H7    H     H_    0.079789 0.801356 0.060058 0.124356
H8    H     H_    0.167772 0.714577 0.185649 0.134286
H9    H     H_    0.322716 0.605610 0.170069 0.144994
H10   H     H_    0.695151 0.330426 0.097434 0.136410
H11   H     H_    0.853426 0.224843 0.079467 0.127870
H12   H     H_    0.342545 0.449498 0.927674 0.151543
H13   H     H_    0.926740 0.210532 0.938160 0.124043
H14   H     H_    0.841239 0.302874 0.814489 0.126118
H15   H     H_    0.684426 0.408846 0.830940 0.145022
H16   H     H_    0.289448 0.986365 0.465867 0.243730
H17   H     H_    0.336155 0.085226 0.529647 0.246374
H18   H     H_    0.354715 0.080963 0.416490 0.240398
H19   H     H_    0.710510 0.013620 0.534185 0.244669
H20   H     H_    0.645236 0.919023 0.583556 0.241520
H21   H     H_    0.663802 0.914764 0.470399 0.244438
H22   H     H_    0.925440 0.413857 0.674731 0.123635
H23   H     H_    0.532610 0.740043 0.091984 0.130048
H24   H     H_    0.996700 0.435172 0.822066 0.134880
H25   H     H_    0.123744 0.558571 0.854476 0.135451
H26   H     H_    0.178104 0.662793 0.738987 0.126207
H27   H     H_    0.106331 0.644251 0.591397 0.126875
H28   H     H_    0.073775 0.344932 0.358780 0.128387
H29   H     H_    0.001094 0.323628 0.211700 0.128490
H30   H     H_    0.873585 0.448929 0.145873 0.134617
H31   H     H_    0.819762 0.597126 0.227159 0.128302
H32   H     H_    0.892692 0.620848 0.373671 0.125934
H33   H     H_    0.569572 0.912238 0.068299 0.131330
H34   H     H_    0.592152 0.972210 0.922450 0.130300
H35   H     H_    0.576982 0.859237 0.799797 0.131805
H36   H     H_    0.541684 0.687582 0.821844 0.137665
H37   H     H_    0.470911 0.265460 0.907272 0.132834
H38   H     H_    0.433875 0.093102 0.929887 0.131592
N1    N     N_1   0.234530 0.484780 0.486590 -0.091519
N2    N     N_1   0.765470 0.515220 0.513410 -0.091370
O1    O     O_R   0.402510 0.634760 0.495090 -0.612054
O2    O     O_R   0.597490 0.365240 0.504910 -0.608007
O3    O     O_R   0.572960 0.644530 0.503700 -0.606571
O4    O     O_R   0.427040 0.355470 0.496300 -0.605923
O5    O     O_R   0.414790 0.495120 0.618920 -0.604237
O6    O     O_R   0.585210 0.504880 0.381080 -0.604521
O7    O     O_R   0.585240 0.504900 0.627530 -0.615782
O8    O     O_R   0.414760 0.495100 0.372470 -0.614654
Zn1   Zn    Zn3+2 0.386190 0.493480 0.494250 0.969043
Zn2   Zn    Zn3+2 0.613810 0.506520 0.505750 0.970738

loop_
_geom_bond_atom_site_label_1
_geom_bond_atom_site_label_2
_ccdc_geom_bond_type
C21   H23   S    
C49   C63   S    
C57   H28   S    
C41   C42   A    
C35   C36   A    
C61   H32   S    
C23   C56   S    
C37   H7    S    
C13   H1    S    
C53   C54   A    
C31   H3    S    
C42   H11   S    
C62   C63   D    
O2    Zn2   S    
C24   H34   S    
O1    Zn1   S    
C36   C37   A    
N1    Zn1   S    
C9    C16   T    
C5    C11   S    
C11   H12   S    
C38   C39   A    
C11   C14   S    
C1    O1    A    
C10   C17   T    
C49   C54   A    
C55   C62   S    
C64   N2    T    
C47   H18   S    
C41   H10   S    
C28   H37   S    
C25   H35   S    
C7    C14   S    
C46   H15   S    
C3    O7    A    
C5    C33   S    
C59   H30   S    
C29   C30   A    
O6    Zn2   S    
C18   C56   T    
C32   H4    S    
C39   H9    S    
C4    O8    A    
C59   C60   A    
C22   H33   S    
C21   C22   A    
C52   H25   S    
C47   H16   S    
O8    Zn1   S    
C36   H6    S    
C14   C16   S    
C38   H8    S    
C1    C19   S    
C51   C52   A    
C24   C25   A    
C12   O4    A    
C6    C8    S    
C44   C46   A    
C25   C26   A    
C48   H20   S    
C60   C61   A    
O4    Zn1   S    
C40   C46   A    
C43   C44   A    
O3    Zn2   S    
C37   C38   A    
C3    C9    S    
C6    C14   S    
C31   C32   A    
C23   C34   D    
C50   C51   A    
C34   C45   S    
C33   C39   A    
C30   H2    S    
C1    O3    A    
N2    Zn2   S    
C40   C41   A    
C49   C50   A    
C8    C15   S    
C55   C57   A    
C22   C24   A    
C42   C43   A    
C4    C10   S    
C27   C28   A    
C52   C53   A    
C5    C7    S    
C15   C17   S    
C4    O6    A    
C28   C29   A    
C23   C48   S    
C27   C32   A    
C58   H29   S    
C51   H24   S    
C19   C45   T    
O5    Zn1   S    
C43   H13   S    
C48   H19   S    
C13   C15   S    
C58   C59   A    
C54   H27   S    
C6    C13   S    
C12   O2    A    
C57   C58   A    
C30   C31   A    
C20   C26   A    
C2    N1    T    
C3    O5    A    
C8    C11   S    
C55   C61   A    
C44   H14   S    
C33   C35   A    
C29   H38   S    
O7    Zn2   S    
C6    C40   S    
C47   H17   S    
C5    C15   S    
C50   H22   S    
C63   C64   S    
C60   H31   S    
C7    C13   S    
C20   C21   A    
C35   H5    S    
C7    C20   S    
C12   C18   S    
C53   H26   S    
C8    C27   S    
C48   H21   S    
C34   C47   S    
C2    C62   S    
C26   H36   S    
