data_mof_unit_63623.cif
_audit_creation_date              2012-12-10T21:09:11-0500
_audit_creation_method            fapswitch 2.2
_symmetry_space_group_name_H-M    P1
_symmetry_Int_Tables_number       1
_space_group_crystal_system       triclinic
_cell_length_a                    10.829688
_cell_length_b                    17.613139
_cell_length_c                    16.749001
_cell_angle_alpha                 90.16466
_cell_angle_beta                  104.005521
_cell_angle_gamma                 90.076862
_cell_volume                      3099.79196178

loop_
_atom_site_label
_atom_site_type_symbol
_atom_type_description
_atom_site_fract_x
_atom_site_fract_y
_atom_site_fract_z
_atom_type_partial_charge
C1    C     C_R   0.499771 0.353247 0.499860 0.901243
C2    C     C_R   0.500126 0.646751 0.500124 0.909195
C3    C     C_R   0.498783 0.886386 0.501351 0.020561
C4    C     C_R   0.497525 0.113618 0.498068 0.020740
C5    C     C_1   0.498053 0.966339 0.500174 0.081888
C6    C     C_1   0.497638 0.033663 0.499147 0.081926
C7    C     C_R   0.422829 0.449990 0.820171 0.558342
C8    C     C_R   0.576660 0.550207 0.179712 0.557843
C9    C     C_R   0.424001 0.450718 0.736208 -0.120039
C10   C     C_R   0.575534 0.549506 0.263684 -0.120189
C11   C     C_R   0.576303 0.549632 0.759763 -0.063867
C12   C     C_R   0.424117 0.450114 0.240333 -0.065594
C13   C     C_R   0.578291 0.550994 0.844302 0.281271
C14   C     C_R   0.422101 0.448714 0.155790 0.281529
C15   C     C_R   0.500601 0.500499 0.875645 -0.138841
C16   C     C_R   0.499322 0.499437 0.124340 -0.139259
C17   C     C_1   0.500099 0.500097 0.963474 0.209419
C18   C     C_1   0.499789 0.499817 0.036505 0.209446
C19   C     C_R   0.258607 0.497887 0.465955 0.956535
C20   C     C_R   0.741394 0.497961 0.534033 0.955030
C21   C     C_2   0.122491 0.489578 0.446358 -0.348548
C22   C     C_2   0.877460 0.489619 0.553564 -0.346271
C23   C     C_2   0.067690 0.474717 0.507578 -0.137939
C24   C     C_2   0.932144 0.474858 0.492207 -0.135504
C25   C     C_R   0.499479 0.847366 0.574148 0.420538
C26   C     C_R   0.497887 0.152642 0.425437 0.420369
C27   C     C_R   0.500110 0.768607 0.573513 -0.213406
C28   C     C_R   0.498595 0.231401 0.426282 -0.214519
C29   C     C_R   0.500022 0.729176 0.500571 -0.120979
C30   C     C_R   0.498979 0.270829 0.499272 -0.117865
C31   C     C_R   0.499583 0.769022 0.428158 -0.170527
C32   C     C_R   0.498369 0.230983 0.571520 -0.171246
C33   C     C_R   0.498940 0.847638 0.428680 -0.166724
C34   C     C_R   0.497673 0.152366 0.570787 -0.167307
H1    H     H_    0.877226 0.468434 0.428880 0.195978
H2    H     H_    0.122565 0.468036 0.570826 0.193611
H3    H     H_    0.932641 0.496303 0.616715 0.173287
H4    H     H_    0.067363 0.496469 0.383281 0.173287
H5    H     H_    0.500580 0.738495 0.629904 0.199809
H6    H     H_    0.498898 0.261517 0.370014 0.199474
H7    H     H_    0.499623 0.739606 0.371278 0.184769
H8    H     H_    0.498493 0.260400 0.628426 0.184667
H9    H     H_    0.498510 0.878226 0.372533 0.195268
H10   H     H_    0.497402 0.121776 0.626824 0.195277
H11   H     H_    0.363791 0.411664 0.694023 0.169062
H12   H     H_    0.635399 0.588768 0.305784 0.174461
H13   H     H_    0.636035 0.588430 0.735894 0.181590
H14   H     H_    0.364737 0.411144 0.264283 0.181896
N1    N     N_R   0.500030 0.500030 0.707240 -0.143933
N2    N     N_R   0.499970 0.499970 0.292760 -0.145139
O1    O     O_R   0.500000 0.389130 0.566570 -0.620440
O2    O     O_R   0.500000 0.610870 0.433430 -0.617590
O3    O     O_R   0.499990 0.389100 0.433480 -0.622295
O4    O     O_R   0.500010 0.610900 0.566520 -0.618754
O5    O     O_R   0.317810 0.500010 0.541690 -0.616868
O6    O     O_R   0.682190 0.499990 0.458310 -0.618177
O7    O     O_R   0.317800 0.499990 0.408610 -0.604650
O8    O     O_R   0.682200 0.500010 0.591390 -0.604834
Zn1   Zn    Zn3+2 0.500010 0.500020 0.588860 0.971810
Zn2   Zn    Zn3+2 0.499990 0.499980 0.411140 0.970629
Cl1   Cl    Cl    0.678652 0.616328 0.908884 -0.474611
Cl2   Cl    Cl    0.322294 0.383049 0.091340 -0.474949
Cl3   Cl    Cl    0.499512 0.895384 0.666605 -0.539164
Cl4   Cl    Cl    0.497649 0.104628 0.332946 -0.539455
F1    F     F_    0.346087 0.400185 0.846947 -0.606090
F2    F     F_    0.652935 0.600243 0.152829 -0.605175

loop_
_geom_bond_atom_site_label_1
_geom_bond_atom_site_label_2
_ccdc_geom_bond_type
C10   H12   S    
C4    C26   A    
C23   C24   S    
C31   C33   A    
C8    F2    S    
C11   N1    A    
C30   C32   A    
O5    Zn1   S    
C7    F1    S    
C11   C13   A    
C26   C28   A    
N1    Zn1   S    
C12   H14   S    
C20   O6    A    
N2    Zn2   S    
C1    O3    A    
C28   C30   A    
C17   C18   T    
C9    N1    A    
C8    C16   A    
C16   C18   S    
C31   H7    S    
C19   O7    A    
C9    H11   S    
C1    O1    A    
C2    O2    A    
C2    C29   S    
C22   C24   D    
C7    C15   A    
C1    C30   S    
C19   C21   S    
O3    Zn2   S    
C20   C22   S    
C23   H2    S    
C4    C34   A    
O4    Zn1   S    
C13   C15   A    
C21   C23   D    
C2    O4    A    
C5    C6    T    
C14   C16   A    
C27   H5    S    
C24   H1    S    
O1    Zn1   S    
C28   H6    S    
C20   O8    A    
C33   H9    S    
C10   N2    A    
C3    C25   A    
C13   Cl1   S    
C27   C29   A    
C29   C31   A    
C4    C6    S    
C25   Cl3   S    
C19   O5    A    
C7    C9    A    
C34   H10   S    
C26   Cl4   S    
C3    C33   A    
O7    Zn2   S    
C32   H8    S    
O2    Zn2   S    
C32   C34   A    
O8    Zn1   S    
C15   C17   S    
C22   H3    S    
C11   H13   S    
C8    C10   A    
C21   H4    S    
O6    Zn2   S    
C12   C14   A    
C12   N2    A    
C3    C5    S    
C25   C27   A    
C14   Cl2   S    
