data_mof_unit_22184.cif
_audit_creation_date              2012-10-26T18:29:35-0400
_audit_creation_method            fapswitch 2.2
_symmetry_space_group_name_H-M    P1
_symmetry_Int_Tables_number       1
_space_group_crystal_system       triclinic
_cell_length_a                    11.669762
_cell_length_b                    12.95278
_cell_length_c                    11.812838
_cell_angle_alpha                 99.025898
_cell_angle_beta                  92.325125
_cell_angle_gamma                 95.866013
_cell_volume                      1751.32159972

loop_
_atom_site_label
_atom_site_type_symbol
_atom_type_description
_atom_site_fract_x
_atom_site_fract_y
_atom_site_fract_z
_atom_type_partial_charge
C1    C     C_R   0.495746 0.299313 0.478998 0.551994
C2    C     C_R   0.440679 0.495785 0.975839 -0.064596
C3    C     C_R   0.284256 0.499441 0.500931 0.555460
C4    C     C_R   0.715472 0.497929 0.498929 0.575944
C5    C     C_1   0.162549 0.499125 0.502364 0.059061
C6    C     C_1   0.837159 0.497706 0.497437 0.037597
C7    C     C_1   0.059850 0.498622 0.501124 0.031120
C8    C     C_1   0.939841 0.498009 0.498621 0.016766
C9    C     C_R   0.492475 0.813399 0.534971 -0.054045
C10   C     C_R   0.482371 0.185297 0.468219 -0.048653
C11   C     C_R   0.410755 0.013903 0.361289 0.255476
C12   C     C_R   0.498414 0.700327 0.521288 0.571710
C13   C     C_R   0.526408 0.985099 0.654123 0.253272
C14   C     C_R   0.428670 0.122955 0.369190 -0.092038
C15   C     C_R   0.524673 0.876459 0.641043 -0.083783
C16   C     C_R   0.514838 0.139698 0.561853 -0.070066
C17   C     C_R   0.451396 0.857915 0.443394 -0.070071
C18   C     C_R   0.497871 0.031204 0.557385 -0.005851
C19   C     C_R   0.452188 0.966915 0.453181 -0.002787
C20   C     C_R   0.351108 0.460598 0.044212 0.246965
C21   C     C_R   0.616667 0.611743 0.964941 0.228466
C22   C     C_R   0.380103 0.435176 0.151665 0.058582
C23   C     C_R   0.615155 0.575184 0.846871 0.047927
C24   C     C_R   0.553476 0.552000 0.158034 0.366190
C25   C     C_R   0.432943 0.475695 0.851974 0.379981
C26   C     C_R   0.538794 0.555825 0.034892 -0.060188
Cu1   Cu    Cu3+1 0.508350 0.507730 0.615930 1.101116
Cu2   Cu    Cu3+1 0.491650 0.492270 0.384070 1.088853
H1    H     H_    0.421515 0.806772 0.364264 0.223037
H2    H     H_    0.768193 0.724106 0.388094 0.364606
H3    H     H_    0.101235 0.580279 0.157097 0.394533
H4    H     H_    0.733416 0.861565 0.880747 0.399143
H5    H     H_    0.556041 0.189940 0.637214 0.217412
H6    H     H_    0.549825 0.840934 0.713678 0.228531
H7    H     H_    0.397974 0.159860 0.299372 0.191025
H8    H     H_    0.680395 0.607412 0.796026 0.198680
H9    H     H_    0.313456 0.399180 0.198452 0.176488
H10   H     H_    0.234375 0.974285 0.091034 0.402459
H11   H     H_    0.576359 0.027577 0.966935 0.398518
H12   H     H_    0.246532 0.274784 0.634938 0.360102
N1    N     N_R   0.520920 0.519350 0.790130 -0.284904
N2    N     N_R   0.479080 0.480650 0.209870 -0.292466
O1    O     O_R   0.505930 0.354460 0.582000 -0.443181
O2    O     O_2   0.226107 0.878293 0.282648 -0.245983
O3    O     O_3   0.277653 0.021620 0.156240 -0.496041
O4    O     O_2   0.681274 0.114110 0.796951 -0.268264
O5    O     O_2   0.477475 0.139950 0.818670 -0.230940
O6    O     O_3   0.553211 0.980483 0.893367 -0.462214
O7    O     O_2   0.277705 0.307375 0.862930 -0.226929
O8    O     O_2   0.210638 0.447928 0.770370 -0.220265
O9    O     O_3   0.324148 0.312553 0.658029 -0.497039
O10   O     O_2   0.773779 0.631367 0.176089 -0.253504
O11   O     O_2   0.627302 0.753619 0.223633 -0.204267
O12   O     O_R   0.494070 0.645540 0.418000 -0.437339
O13   O     O_3   0.703396 0.667061 0.376326 -0.504022
O14   O     O_2   0.214442 0.590834 0.961873 -0.199355
O15   O     O_2   0.122951 0.416429 0.986878 -0.183272
O16   O     O_3   0.178030 0.555804 0.167852 -0.513156
O17   O     O_2   0.567456 0.810256 0.035315 -0.150060
O18   O     O_2   0.771521 0.781118 0.061731 -0.170674
O19   O     O_3   0.690383 0.790613 0.860326 -0.555689
O20   O     O_R   0.491820 0.341410 0.386200 -0.522078
O21   O     O_R   0.508180 0.658590 0.613800 -0.498975
O22   O     O_R   0.344250 0.506540 0.597900 -0.431728
O23   O     O_R   0.655750 0.493460 0.402100 -0.425475
O24   O     O_R   0.330140 0.493480 0.402100 -0.509644
O25   O     O_R   0.669860 0.506520 0.597900 -0.523771
O26   O     O_2   0.398902 0.867022 0.172922 -0.195518
S1    S     S_3+6 0.326874 0.940956 0.241076 0.054012
S2    S     S_3+6 0.560908 0.059370 0.793091 0.030798
S3    S     S_3+6 0.310439 0.385697 0.785183 0.118199
S4    S     S_3+6 0.664576 0.648617 0.236065 0.106607
S5    S     S_3+6 0.212838 0.505691 0.035061 0.101538
S6    S     S_3+6 0.662657 0.750760 0.986476 0.106664

loop_
_geom_bond_atom_site_label_1
_geom_bond_atom_site_label_2
_ccdc_geom_bond_type
H4    O19   S    
C4    O25   A    
Cu2   O24   S    
O8    S3    D    
C11   S1    S    
O5    S2    D    
O10   S4    D    
O19   S6    S    
C2    C20   A    
H12   O9    S    
C17   H1    S    
H2    O13   S    
Cu1   N1    S    
C15   H6    S    
O13   S4    S    
C23   N1    A    
C21   C26   A    
C1    O20   A    
C25   N1    A    
C21   C23   A    
Cu2   O23   S    
C9    C15   A    
O2    S1    D    
C2    C26   A    
C10   C16   A    
C3    O22   A    
O11   S4    D    
O17   S6    D    
C11   C19   A    
C22   N2    A    
O9    S3    S    
C13   C18   A    
C25   S3    S    
C13   S2    S    
H3    O16   S    
C9    C17   A    
C17   C19   A    
O15   S5    D    
C20   C22   A    
C20   S5    S    
C23   H8    S    
C2    C25   A    
C13   C15   A    
O26   S1    D    
C10   C14   A    
C4    O23   A    
C16   H5    S    
C11   C14   A    
O4    S2    D    
C3    O24   A    
Cu1   O25   S    
Cu1   O22   S    
O3    S1    S    
Cu1   O1    S    
C7    C8    S    
O6    S2    S    
C24   N2    A    
C24   S4    S    
C16   C18   A    
C18   C19   A    
O7    S3    D    
O18   S6    D    
C14   H7    S    
C5    C7    T    
C12   O21   A    
Cu2   O12   S    
Cu1   O21   S    
H10   O3    S    
C6    C8    T    
O14   S5    D    
Cu2   N2    S    
C3    C5    S    
C9    C12   S    
C22   H9    S    
C4    C6    S    
C21   S6    S    
C1    O1    A    
C12   O12   A    
C1    C10   S    
O16   S5    S    
C24   C26   A    
H11   O6    S    
Cu1   Cu2   S    
Cu2   O20   S    
