data_mof_unit_66558.cif
_audit_creation_date              2012-12-11T17:17:04-0500
_audit_creation_method            fapswitch 2.2
_symmetry_space_group_name_H-M    P1
_symmetry_Int_Tables_number       1
_space_group_crystal_system       triclinic
_cell_length_a                    6.996286
_cell_length_b                    13.325044
_cell_length_c                    14.711625
_cell_angle_alpha                 99.143328
_cell_angle_beta                  90.796947
_cell_angle_gamma                 89.784684
_cell_volume                      1353.94421097

loop_
_atom_site_label
_atom_site_type_symbol
_atom_type_description
_atom_site_fract_x
_atom_site_fract_y
_atom_site_fract_z
_atom_type_partial_charge
O1    O     O_R   0.354890 0.151580 0.148210 -0.553908
O2    O     O_R   0.645110 0.848420 0.851790 -0.552632
O3    O     O_R   0.682370 0.152980 0.336770 -0.516204
O4    O     O_R   0.317630 0.847020 0.663230 -0.506463
O5    O     O_R   0.854980 0.348430 0.351800 -0.521547
O6    O     O_R   0.145020 0.651570 0.648200 -0.520337
C1    C     C_R   0.515751 0.124519 0.360210 0.815450
C2    C     C_R   0.485560 0.878641 0.643620 0.808963
O7    O     O_R   0.684450 0.139580 0.148000 -0.544132
O8    O     O_R   0.315550 0.860420 0.852000 -0.543175
O9    O     O_R   0.857080 0.334940 0.161680 -0.515969
O10   O     O_R   0.142920 0.665060 0.838320 -0.518870
C3    C     C_R   0.515122 0.112622 0.114355 0.728189
C4    C     C_R   0.484773 0.886904 0.886020 0.726994
O11   O     O_R   0.352790 0.165070 0.338330 -0.537936
O12   O     O_R   0.647210 0.834930 0.661670 -0.546371
O13   O     O_3   0.522170 0.314120 0.254710 -0.348920
O14   O     O_3   0.477830 0.685880 0.745290 -0.349940
V1    V     V_3+5 0.796120 0.238110 0.249130 1.527621
V2    V     V_3+5 0.203880 0.761890 0.750870 1.542085
O15   O     O_R   0.186930 0.347040 0.163240 -0.523668
O16   O     O_R   0.813070 0.652960 0.836760 -0.523689
C5    C     C_R   0.017781 0.368099 0.133369 0.743004
C6    C     C_R   0.982164 0.632368 0.866989 0.738025
O17   O     O_R   0.184850 0.360440 0.352010 -0.534707
O18   O     O_R   0.815150 0.639560 0.647990 -0.534880
C7    C     C_R   0.016438 0.387020 0.385971 0.740080
C8    C     C_R   0.983529 0.613159 0.613898 0.750247
V3    V     V_3+5 0.296410 0.261900 0.250880 1.517589
V4    V     V_3+5 0.703590 0.738100 0.749120 1.520409
O19   O     O_3   0.020490 0.185890 0.245290 -0.396771
O20   O     O_3   0.979510 0.814110 0.754710 -0.395399
C9    C     C_1   0.005886 0.466976 0.466240 -0.147953
C10   C     C_1   0.993960 0.533581 0.533346 -0.137919
C11   C     C_3   0.170182 0.541834 0.993425 0.528475
C12   C     C_3   0.829642 0.459446 0.007517 0.521870
C13   C     C_3   0.053193 0.553035 0.082631 -0.281604
C14   C     C_3   0.946586 0.448004 0.918237 -0.288812
H1    H     H_    0.100856 0.595831 0.150027 0.152885
H2    H     H_    0.899914 0.404972 0.850765 0.163955
C15   C     C_3   0.008897 0.438101 0.062389 -0.134855
C16   C     C_3   0.990980 0.562963 0.938430 -0.136432
C17   C     C_3   0.128538 0.426371 0.973700 -0.183655
C18   C     C_3   0.871529 0.574824 0.027146 -0.183492
H3    H     H_    0.230846 0.364155 0.950456 0.187405
H4    H     H_    0.769307 0.637110 0.050267 0.186620
C19   C     C_3   0.338978 0.997016 0.455987 0.358791
C20   C     C_3   0.668221 0.010365 0.551694 0.389668
C21   C     C_3   0.462805 0.905008 0.473559 0.126514
C22   C     C_3   0.544903 0.102048 0.533959 0.147445
C23   C     C_3   0.489293 0.952802 0.575938 -0.354053
C24   C     C_3   0.517990 0.054395 0.431844 -0.377825
C25   C     C_3   0.363177 0.045377 0.557749 0.321479
C26   C     C_3   0.643556 0.962045 0.448980 0.342278
C27   C     C_1   0.504260 0.032675 0.034136 -0.181329
C28   C     C_1   0.495267 0.966265 0.966727 -0.190403
Cl1   Cl    Cl    0.390996 0.605824 0.986997 -0.652215
Cl2   Cl    Cl    0.606776 0.398354 0.016366 -0.663903
Cl3   Cl    Cl    0.381841 0.775680 0.445900 -0.730715
Cl4   Cl    Cl    0.611817 0.233598 0.558962 -0.740766
O21   O     O_3   0.173705 0.990939 0.398336 -0.510240
C29   C     C_3   0.211321 0.926139 0.313455 0.207417
H5    H     H_    0.164072 0.848217 0.318237 0.177957
H6    H     H_    0.364641 0.922981 0.294839 0.032866
C30   C     C_3   0.107706 0.961577 0.232338 -0.314800
H7    H     H_    0.956842 0.981846 0.248824 0.223722
H8    H     H_    0.181680 0.029392 0.217617 0.218175
C31   C     C_3   0.118114 0.882097 0.145136 -0.866807
H9    H     H_    0.269405 0.867805 0.124887 0.248690
H10   H     H_    0.040521 0.910507 0.087932 0.239612
H11   H     H_    0.052823 0.809156 0.155720 0.230058
O22   O     O_3   0.847369 0.021592 0.598856 -0.517282
C32   C     C_3   0.835661 0.042915 0.697168 0.166334
H12   H     H_    0.983660 0.044356 0.725183 0.176299
H13   H     H_    0.768467 0.982629 0.727501 0.104512
C33   C     C_3   0.739563 0.143516 0.737192 -0.408932
H14   H     H_    0.804346 0.207545 0.709445 0.256487
H15   H     H_    0.584700 0.138882 0.720637 0.219560
C34   C     C_3   0.761607 0.165163 0.841801 -0.830291
H16   H     H_    0.700287 0.102201 0.873014 0.232210
H17   H     H_    0.684204 0.236225 0.868544 0.283316
H18   H     H_    0.914708 0.174737 0.862229 0.226483
O23   O     O_3   0.217915 0.087504 0.617270 -0.557154
C35   C     C_3   0.164110 0.185699 0.600620 0.189571
H19   H     H_    0.009059 0.185518 0.585339 0.203019
H20   H     H_    0.229676 0.209805 0.539081 0.145257
C36   C     C_3   0.205090 0.263352 0.687362 -0.340965
H21   H     H_    0.127967 0.241708 0.746708 0.187218
H22   H     H_    0.359518 0.263931 0.704889 0.244991
C37   C     C_3   0.145527 0.370270 0.674468 -0.785021
H23   H     H_    0.227610 0.394313 0.617595 0.256776
H24   H     H_    0.176616 0.424234 0.738543 0.231952
H25   H     H_    0.989987 0.372783 0.658760 0.237742
O24   O     O_3   0.801493 0.922919 0.395461 -0.524194
C38   C     C_3   0.756443 0.831177 0.336318 0.102763
H26   H     H_    0.831049 0.830311 0.270757 0.111484
H27   H     H_    0.604574 0.824222 0.314802 0.133215
C39   C     C_3   0.825034 0.738431 0.377614 -0.251209
H28   H     H_    0.982913 0.739114 0.384239 0.220040
H29   H     H_    0.767757 0.740484 0.447825 0.236454
C40   C     C_3   0.763470 0.640014 0.316427 -0.757391
H30   H     H_    0.605223 0.634521 0.312168 0.274971
H31   H     H_    0.819495 0.573780 0.345280 0.220578
H32   H     H_    0.820018 0.637085 0.245984 0.209959

loop_
_geom_bond_atom_site_label_1
_geom_bond_atom_site_label_2
_ccdc_geom_bond_type
C4    C28   S    
C36   H21   S    
C40   H30   S    
C6    C16   S    
C32   H12   S    
C38   H26   S    
C33   C34   S    
O4    C2    A    
V1    O19   S    
C38   C39   S    
C19   C21   S    
C7    C9    S    
C20   C26   S    
O9    V1    S    
C11   C13   S    
C33   H15   S    
C1    C24   S    
C14   C16   S    
O3    C1    A    
O12   V4    S    
C21   C26   S    
O13   V3    S    
C11   C16   S    
O7    C3    A    
C29   H6    S    
O5    C7    A    
O7    V1    S    
C20   C23   S    
O6    C8    A    
C18   H4    S    
C31   H9    S    
C30   H8    S    
C22   C24   S    
C35   C36   S    
O3    V1    S    
O14   V4    S    
V4    O20   S    
C11   C17   S    
C19   C25   S    
C20   C22   S    
C8    C10   S    
C2    O12   A    
C15   C17   S    
C12   C15   S    
O24   C38   S    
C16   C18   S    
C20   O22   S    
C24   C26   S    
O11   V3    S    
O17   V3    S    
C22   C25   S    
C33   H14   S    
C25   O23   S    
O8    C4    A    
O8    V2    S    
C34   H17   S    
C1    O11   A    
C21   C23   S    
O15   V3    S    
C23   C25   S    
C29   H5    S    
C37   H24   S    
O23   C35   S    
V3    O19   S    
C30   C31   S    
O10   V2    S    
C27   C28   T    
O1    V3    S    
C9    C10   T    
C35   H19   S    
C17   H3    S    
C2    C23   S    
C31   H10   S    
O18   V4    S    
C40   H32   S    
C39   H29   S    
O15   C5    A    
C32   C33   S    
O16   C6    A    
C12   C18   S    
O1    C3    A    
C32   H13   S    
C37   H25   S    
V2    O20   S    
O16   V4    S    
C29   C30   S    
O18   C8    A    
C35   H20   S    
O22   C32   S    
C5    C15   S    
C19   O21   S    
C34   H18   S    
C38   H27   S    
C19   C24   S    
O5    V1    S    
O17   C7    A    
C39   C40   S    
O6    V2    S    
O10   C6    A    
C12   Cl2   S    
C21   Cl3   S    
O2    V4    S    
C11   Cl1   S    
C22   Cl4   S    
C13   C18   S    
C12   C14   S    
C14   C17   S    
C13   H1    S    
C14   H2    S    
C37   H23   S    
C31   H11   S    
O9    C5    A    
O13   V1    S    
O14   V2    S    
C30   H7    S    
C13   C15   S    
O21   C29   S    
O2    C4    A    
C26   O24   S    
C34   H16   S    
O4    V2    S    
C40   H31   S    
C39   H28   S    
C36   C37   S    
C36   H22   S    
C3    C27   S    
