data_mof_unit_50208.cif
_audit_creation_date              2012-12-10T16:55:03-0500
_audit_creation_method            fapswitch 2.2
_symmetry_space_group_name_H-M    P1
_symmetry_Int_Tables_number       1
_space_group_crystal_system       triclinic
_cell_length_a                    9.703758
_cell_length_b                    10.932371
_cell_length_c                    15.459422
_cell_angle_alpha                 89.590656
_cell_angle_beta                  74.108329
_cell_angle_gamma                 89.718022
_cell_volume                      1577.28681405

loop_
_atom_site_label
_atom_site_type_symbol
_atom_type_description
_atom_site_fract_x
_atom_site_fract_y
_atom_site_fract_z
_atom_type_partial_charge
C1    C     C_R   0.000670 0.265377 0.499122 0.855756
C2    C     C_R   0.677399 0.487520 0.909597 0.101762
C3    C     C_R   0.772053 0.525907 0.959324 0.142680
C4    C     C_R   0.530217 0.464704 0.955028 0.051484
C5    C     C_R   0.480956 0.483537 0.049697 0.068255
C6    C     C_R   0.582595 0.511252 0.097097 -0.212586
C7    C     C_R   0.724701 0.533138 0.052492 -0.224145
C8    C     C_R   0.429804 0.426902 0.909142 -0.183596
C9    C     C_R   0.285930 0.411156 0.953948 -0.159425
C10   C     C_R   0.235312 0.435628 0.045386 0.145504
C11   C     C_R   0.331748 0.473600 0.094016 0.087854
C12   C     C_R   0.917406 0.505218 0.672243 0.831260
C13   C     C_R   0.088553 0.423003 0.088790 -0.205118
C14   C     C_R   0.036136 0.446828 0.180486 -0.195691
C15   C     C_R   0.274779 0.502495 0.185328 -0.234546
C16   C     C_2   0.887337 0.933570 0.498608 -0.158264
C17   C     C_2   0.999225 0.866478 0.506328 -0.292421
C18   C     C_2   0.886020 0.067492 0.502667 -0.160622
C19   C     C_2   0.004996 0.133369 0.494986 -0.288044
C20   C     C_2   0.400169 0.431726 0.554032 0.073757
C21   C     C_2   0.553105 0.440134 0.558577 -0.104787
C22   C     C_R   0.999330 0.734591 0.501261 0.867311
C23   C     C_R   0.082921 0.498143 0.327717 0.786604
C24   C     C_R   0.872477 0.514881 0.771262 -0.124702
C25   C     C_R   0.129730 0.485449 0.229359 -0.046801
C26   C     C_R   0.912758 0.560614 0.915592 -0.270588
C27   C     C_R   0.961901 0.562224 0.821757 -0.015796
C28   C     C_R   0.732944 0.477201 0.815883 -0.257159
Cu1   Cu    Cu3+1 0.138640 0.500020 0.499980 1.000151
Cu2   Cu    Cu3+1 0.861360 0.499980 0.500020 0.947776
H1    H     H_    0.797584 0.558537 0.091378 0.146801
H2    H     H_    0.014677 0.392903 0.051981 0.142938
H3    H     H_    0.791764 0.889523 0.490191 0.174595
H4    H     H_    0.093752 0.906873 0.518395 0.166752
H5    H     H_    0.783339 0.112659 0.510667 0.177836
H6    H     H_    0.109917 0.092012 0.483448 0.170243
H7    H     H_    0.409716 0.565073 0.462711 0.185433
H8    H     H_    0.582130 0.390384 0.612058 0.154871
H9    H     H_    0.628386 0.539403 0.446938 0.188955
H10   H     H_    0.340882 0.539496 0.224287 0.147720
H11   H     H_    0.923486 0.432753 0.213320 0.154505
H12   H     H_    0.213041 0.381794 0.916145 0.174142
H13   H     H_    0.981536 0.594423 0.954846 0.171276
H14   H     H_    0.668955 0.441460 0.775176 0.152721
H15   H     H_    0.556512 0.516660 0.169257 0.139833
H16   H     H_    0.457882 0.408462 0.838190 0.161977
N1    N     N_2   0.346430 0.498660 0.500980 -0.319956
N2    N     N_2   0.652550 0.498630 0.501000 -0.286552
O1    O     O_R   0.117050 0.321960 0.499980 -0.552426
O2    O     O_R   0.882890 0.321920 0.500020 -0.580979
O3    O     O_R   0.052910 0.500040 0.629810 -0.535970
O4    O     O_R   0.818750 0.499990 0.629840 -0.585593
O5    O     O_R   0.117110 0.678080 0.499980 -0.560432
O6    O     O_R   0.882950 0.678040 0.500020 -0.576900
O7    O     O_R   0.181250 0.500010 0.370160 -0.588040
O8    O     O_R   0.947090 0.499960 0.370190 -0.585355
C29   C     C_2   0.310712 0.342172 0.615695 0.899642
O9    O     O_2   0.300893 0.237883 0.590176 -0.607303
O10   O     O_R   0.247660 0.373876 0.705164 -0.772297
H17   H     H_    0.191240 0.304135 0.741620 0.318142
C30   C     C_2   0.101086 0.623078 0.780568 0.909489
O11   O     O_2   0.115171 0.690528 0.715295 -0.589038
O12   O     O_R   0.213967 0.608833 0.819857 -0.760945
H18   H     H_    0.302916 0.655421 0.786422 0.338047

loop_
_geom_bond_atom_site_label_1
_geom_bond_atom_site_label_2
_ccdc_geom_bond_type
C8    C9    A    
C2    C4    A    
C23   O7    A    
Cu1   Cu2   S    
C6    H15   S    
C16   H3    S    
H7    N1    S    
Cu1   O7    S    
C9    C10   A    
C12   C24   S    
C13   H2    S    
C17   C22   S    
C24   C27   A    
C4    C8    A    
C21   N2    D    
C10   C11   A    
C30   O11   D    
C11   C15   A    
C2    C3    A    
C9    H12   S    
C23   O8    A    
C22   O6    A    
Cu1   O1    S    
C13   C14   A    
Cu2   O6    S    
C29   O9    D    
C6    C7    A    
Cu1   O5    S    
Cu1   N1    S    
C14   H11   S    
C18   H5    S    
Cu2   N2    S    
C12   O4    A    
Cu1   O3    S    
C26   H13   S    
C5    C11   A    
C22   O5    A    
C3    C7    A    
C19   H6    S    
C23   C25   S    
C14   C25   A    
C26   C27   A    
C5    C6    A    
Cu2   O2    S    
C8    H16   S    
C15   H10   S    
C29   O10   S    
C20   N1    D    
C15   C25   A    
C17   H4    S    
O12   H18   S    
O10   H17   S    
C12   O3    A    
C7    H1    S    
C20   C21   S    
C16   C18   S    
C18   C19   D    
C1    O2    A    
C30   O12   S    
Cu2   O4    S    
C16   C17   D    
C2    C28   A    
C27   C30   S    
C20   C29   S    
C1    C19   S    
Cu2   O8    S    
C28   H14   S    
C3    C26   A    
C21   H8    S    
C24   C28   A    
C4    C5    A    
H9    N2    S    
C10   C13   A    
C1    O1    A    
