data_mof_unit_31411.cif
_audit_creation_date              2013-03-05T16:47:21-0500
_audit_creation_method            fapswitch 2.2
_symmetry_space_group_name_H-M    P1
_symmetry_Int_Tables_number       1
_space_group_crystal_system       triclinic
_cell_length_a                    10.89903
_cell_length_b                    10.915793
_cell_length_c                    9.796429
_cell_angle_alpha                 90.240479
_cell_angle_beta                  91.076798
_cell_angle_gamma                 90.278969
_cell_volume                      1165.26604087

loop_
_atom_site_label
_atom_site_type_symbol
_atom_site_description
_atom_site_fract_x
_atom_site_fract_y
_atom_site_fract_z
_atom_type_partial_charge
O1    O     O_R   0.500020 0.321960 0.617040 -0.593778
O2    O     O_R   0.499980 0.321920 0.382900 -0.593632
C1    C     C_R   0.501349 0.265693 0.499874 0.840352
O3    O     O_R   0.319660 0.500030 0.617070 -0.539872
O4    O     O_R   0.319620 0.499990 0.382930 -0.597662
C2    C     C_R   0.262051 0.507704 0.498535 0.856047
Cu1   Cu    Cu3+1 0.500020 0.500020 0.638630 1.081593
Cu2   Cu    Cu3+1 0.499980 0.499980 0.361370 1.006788
O5    O     O_R   0.500020 0.678080 0.617100 -0.512146
O6    O     O_R   0.499980 0.678040 0.382960 -0.565821
O7    O     O_R   0.680380 0.500010 0.617070 -0.572124
O8    O     O_R   0.680340 0.499970 0.382930 -0.555701
C3    C     C_R   0.498070 0.734324 0.500243 0.880182
C4    C     C_R   0.737472 0.503916 0.501274 0.841945
H1    H     H_    0.244986 0.543569 0.875915 0.227766
C5    C     C_R   0.200529 0.648779 0.051557 -0.068180
H2    H     H_    0.232765 0.733738 0.007931 0.217368
C6    C     C_R   0.159212 0.646893 0.184647 0.004922
C7    C     C_R   0.111305 0.537449 0.237699 0.072224
C8    C     C_R   0.104625 0.430362 0.155502 -0.094898
C9    C     C_R   0.155174 0.431067 0.023838 0.254471
C10   C     C_R   0.202747 0.541354 0.974341 -0.106038
C11   C     C_R   0.929534 0.557800 0.382839 0.302202
C12   C     C_R   0.871063 0.520408 0.502914 -0.230844
C13   C     C_R   0.943138 0.502386 0.622310 -0.090363
C14   C     C_R   0.065698 0.541029 0.620168 0.337705
C15   C     C_R   0.127062 0.525334 0.496157 -0.219558
C16   C     C_R   0.056353 0.538058 0.373931 -0.139712
C17   C     C_R   0.845987 0.471499 0.849948 0.024909
H3    H     H_    0.836662 0.569369 0.860548 0.234166
C18   C     C_R   0.797753 0.395081 0.950021 -0.138326
H4    H     H_    0.751571 0.433756 0.036605 0.177490
C19   C     C_R   0.807759 0.268307 0.938203 -0.147681
H5    H     H_    0.770592 0.209606 0.016187 0.166206
C20   C     C_R   0.866546 0.217214 0.826517 -0.084513
H6    H     H_    0.875412 0.118555 0.819677 0.171449
C21   C     C_R   0.913757 0.292746 0.724574 0.003097
C22   C     C_R   0.902149 0.421542 0.734764 0.045910
C23   C     C_2   0.498807 0.932519 0.387943 -0.113407
C24   C     C_2   0.490973 0.866456 0.502520 -0.251315
H7    H     H_    0.507948 0.887478 0.289575 0.200234
H8    H     H_    0.476315 0.907849 0.601375 0.173866
C25   C     C_2   0.493192 0.066605 0.387788 -0.127202
C26   C     C_2   0.507410 0.133569 0.501920 -0.279313
H9    H     H_    0.479041 0.110884 0.289660 0.176231
H10   H     H_    0.526285 0.092861 0.600551 0.155396
C27   C     C_2   0.460297 0.410811 0.924840 -0.029553
N1    N     N_2   0.498640 0.498660 0.846910 -0.068339
H11   H     H_    0.429496 0.326640 0.875915 0.174956
C28   C     C_2   0.446405 0.416834 0.076962 -0.082566
N2    N     N_2   0.498610 0.498630 0.153040 -0.264908
H12   H     H_    0.388501 0.348820 0.124503 0.170073
H13   H     H_    0.573269 0.543807 0.115616 0.266155
C29   C     C_1   0.978059 0.236049 0.613828 0.292993
N3    N     N_1   0.030772 0.189776 0.526359 -0.214950
N4    N     N_R   0.529289 0.612706 0.901987 0.225934
O9    O     O_R   0.630711 0.665143 0.865644 -0.330859
O10   O     O_R   0.445346 0.680855 0.955194 -0.381051
C30   C     C_1   0.163802 0.758702 0.264163 0.312706
N5    N     N_1   0.167575 0.848118 0.328022 -0.203319
C31   C     C_1   0.038319 0.323940 0.202463 0.353446
N6    N     N_1   0.984256 0.238916 0.238460 -0.230419
N7    N     N_R   0.161901 0.321800 0.940546 0.096918
O11   O     O_R   0.160190 0.213393 0.995228 -0.350211
O12   O     O_R   0.186420 0.330238 0.811452 -0.400380
N8    N     N_R   0.863250 0.624132 0.277966 0.141382
O13   O     O_R   0.880171 0.602788 0.149095 -0.385983
O14   O     O_R   0.793842 0.715533 0.312230 -0.330159
N9    N     N_R   0.102769 0.640516 0.709628 0.113276
O15   O     O_R   0.027301 0.681878 0.800049 -0.354434
O16   O     O_R   0.198402 0.707380 0.682214 -0.351146

loop_
_geom_bond_atom_site_label_1
_geom_bond_atom_site_label_2
_geom_bond_distance
_ccdc_geom_bond_type
C17   C22   1.403336 A    
O1    C1    1.299889 A    
O4    Cu2   1.981006 S    
N8    O14   1.301707 A    
C11   C12   1.409290 A    
N7    O12   1.301043 A    
C21   C22   1.415475 A    
C13   C22   1.488218 S    
C28   H12   1.084328 S    
C18   H4    1.079890 S    
Cu2   O8    1.973112 S    
C5    C10   1.393337 A    
Cu1   N1    2.040853 S    
C8    C9    1.412103 A    
C7    C8    1.417457 A    
C18   C19   1.393163 A    
C28   N2    1.284507 D    
O8    C4    1.306091 A    
N9    O16   1.302301 A    
C30   N5    1.157256 T    
C27   H11   1.083444 S    
C5    C6    1.387553 A    
C11   C16   1.404213 A    
N4    O9    1.298706 A    
Cu1   O7    1.981005 S    
C7    C16   1.473051 S    
C25   H9    1.086540 S    
Cu2   N2    2.040655 S    
C14   C15   1.408000 A    
C17   H3    1.078405 S    
O3    Cu1   1.973113 S    
O4    C2    1.307589 A    
C11   N8    1.443998 S    
C24   H8    1.081841 S    
C19   C20   1.394053 A    
C26   H10   1.081843 S    
C9    C10   1.400552 A    
N8    O13   1.299555 A    
C27   C28   1.501943 S    
O2    C1    1.302086 A    
N9    O15   1.301038 A    
H1    C10   1.076572 S    
C25   C26   1.339385 D    
C31   N6    1.156789 T    
O7    C4    1.304806 A    
C1    C26   1.444278 S    
C9    N7    1.445233 S    
O3    C2    1.312867 A    
Cu1   Cu2   2.716149 S    
C21   C29   1.441672 S    
N2    H13   1.023987 S    
N7    O11   1.301202 A    
C27   N1    1.300494 D    
Cu1   O5    1.955956 S    
C6    C30   1.445288 S    
C23   C24   1.340521 D    
C19   H5    1.082370 S    
C12   C13   1.411664 A    
C23   H7    1.086458 S    
C17   C18   1.398313 A    
C6    C7    1.406878 A    
C4    C12   1.466006 S    
C8    C31   1.446442 S    
N1    N4    1.391412 S    
C14   N9    1.443984 S    
O5    C3    1.301158 A    
C29   N3    1.156349 T    
C3    C24   1.444873 S    
C23   C25   1.465243 S    
C20   C21   1.401432 A    
C13   C14   1.399398 A    
O1    Cu1   1.954257 S    
O6    C3    1.301192 A    
Cu2   O6    1.954257 S    
O2    Cu2   1.955955 S    
C2    C15   1.484472 S    
N4    O10   1.297456 A    
C5    H2    1.082570 S    
C15   C16   1.419400 A    
C20   H6    1.083643 S    
