data_mof_unit_15638.cif
_audit_creation_date              2012-10-26T18:35:15-0400
_audit_creation_method            fapswitch 2.2
_symmetry_space_group_name_H-M    P1
_symmetry_Int_Tables_number       1
_space_group_crystal_system       triclinic
_cell_length_a                    11.104675
_cell_length_b                    14.41024
_cell_length_c                    13.097456
_cell_angle_alpha                 89.151837
_cell_angle_beta                  90.446822
_cell_angle_gamma                 89.353737
_cell_volume                      2095.43897916

loop_
_atom_site_label
_atom_site_type_symbol
_atom_type_description
_atom_site_fract_x
_atom_site_fract_y
_atom_site_fract_z
_atom_type_partial_charge
C1    C     C_R   0.495960 0.328733 0.500355 0.622900
C2    C     C_R   0.743895 0.496994 0.500934 0.672689
C3    C     C_R   0.497565 0.671380 0.499489 0.613729
C4    C     C_3   0.081261 0.396857 0.505611 0.437008
C5    C     C_3   0.067189 0.554012 0.390266 0.408121
C6    C     C_3   0.935236 0.392339 0.490006 0.389357
C7    C     C_3   0.922119 0.563375 0.402850 0.432325
C8    C     C_3   0.072059 0.564951 0.596448 0.443075
C9    C     C_3   0.930049 0.543878 0.609134 0.462012
C10   C     C_3   0.120187 0.507260 0.498576 -0.084180
C11   C     C_3   0.881662 0.499152 0.502376 -0.091931
C12   C     C_1   0.503746 0.957589 0.499097 0.003438
C13   C     C_1   0.498027 0.227122 0.500981 0.016660
C14   C     C_1   0.500057 0.142302 0.500660 -0.016848
C15   C     C_1   0.502353 0.042423 0.499837 0.013625
C16   C     C_3   0.142786 0.259624 0.408156 0.079058
C17   C     C_3   0.165500 0.235325 0.297332 -0.403659
C18   C     C_3   0.186446 0.481214 0.248337 0.100898
C19   C     C_3   0.152947 0.465943 0.137152 -0.402459
C20   C     C_3   0.808577 0.328328 0.349580 0.077926
C21   C     C_3   0.831007 0.243240 0.284649 -0.379655
C22   C     C_3   0.855567 0.566084 0.222519 0.088735
C23   C     C_1   0.504018 0.857714 0.498482 -0.039093
C24   C     C_3   0.830540 0.497069 0.138624 -0.409494
C25   C     C_3   0.160845 0.577873 0.773456 0.067036
C26   C     C_3   0.166946 0.515342 0.867847 -0.344361
C27   C     C_3   0.195441 0.707540 0.612244 0.045475
C28   C     C_3   0.213520 0.803926 0.565286 -0.323989
C29   C     C_3   0.810813 0.469627 0.749338 0.079443
C30   C     C_3   0.838215 0.451417 0.861821 -0.401222
C31   C     C_3   0.862181 0.668952 0.723822 0.052669
C32   C     C_3   0.899319 0.770443 0.722075 -0.337988
C33   C     C_1   0.501988 0.772900 0.498547 0.008428
C34   C     C_1   0.499560 0.500150 0.173519 0.085035
C35   C     C_1   0.499739 0.500118 0.826478 0.083045
C36   C     C_1   0.499405 0.500231 0.050676 -0.063197
C37   C     C_1   0.499481 0.500219 0.949303 -0.068878
C38   C     C_R   0.257049 0.508537 0.499287 0.650787
Cu1   Cu    Cu3+1 0.500000 0.499990 0.592680 1.059349
Cu2   Cu    Cu3+1 0.500000 0.499990 0.407320 1.053034
H1    H     H_    0.138141 0.318940 0.784402 0.346903
H2    H     H_    0.240492 0.419939 0.272749 0.178249
H3    H     H_    0.248270 0.539983 0.250280 0.213059
H4    H     H_    0.101389 0.400965 0.129395 0.135359
H5    H     H_    0.098583 0.525375 0.106899 0.167539
H6    H     H_    0.236060 0.459440 0.091144 0.096718
H7    H     H_    0.762807 0.379574 0.299149 0.178005
H8    H     H_    0.741379 0.311007 0.406935 0.183170
H9    H     H_    0.885390 0.262446 0.216965 0.134621
H10   H     H_    0.879132 0.188268 0.329422 0.187184
H11   H     H_    0.743718 0.215332 0.257688 0.100676
H12   H     H_    0.113538 0.815156 0.345053 0.360899
H13   H     H_    0.938355 0.602985 0.202497 0.219029
H14   H     H_    0.776721 0.614123 0.222831 0.196188
H15   H     H_    0.741058 0.465382 0.149055 0.139372
H16   H     H_    0.830769 0.534018 0.063935 0.089239
H17   H     H_    0.899416 0.440966 0.139114 0.172980
H18   H     H_    0.096018 0.633945 0.787460 0.103763
H19   H     H_    0.253529 0.605558 0.768513 0.115415
H20   H     H_    0.238298 0.461480 0.859385 0.175712
H21   H     H_    0.189610 0.557813 0.935183 0.081607
H22   H     H_    0.079970 0.481561 0.881694 0.173373
H23   H     H_    0.863833 0.236110 0.723922 0.358156
H24   H     H_    0.276660 0.664904 0.600162 0.147281
H25   H     H_    0.187285 0.727445 0.692552 0.078429
H26   H     H_    0.126740 0.842733 0.559415 0.201007
H27   H     H_    0.274829 0.844618 0.614551 0.073815
H28   H     H_    0.257886 0.800044 0.490394 0.195053
H29   H     H_    0.759217 0.409564 0.724126 0.228033
H30   H     H_    0.746989 0.527721 0.743559 0.131703
H31   H     H_    0.879717 0.513189 0.895981 0.108102
H32   H     H_    0.753517 0.436594 0.903175 0.099901
H33   H     H_    0.899683 0.390593 0.871415 0.194930
H34   H     H_    0.861109 0.813706 0.487072 0.353709
H35   H     H_    0.913142 0.629511 0.782024 0.122389
H36   H     H_    0.767735 0.671835 0.750910 0.116411
H37   H     H_    0.834065 0.812692 0.675998 0.168665
H38   H     H_    0.898955 0.797170 0.801168 0.080535
H39   H     H_    0.990327 0.779527 0.691361 0.193332
H40   H     H_    0.057307 0.227725 0.430366 0.224580
H41   H     H_    0.218668 0.228576 0.453059 0.175974
H42   H     H_    0.257369 0.256734 0.274711 0.132512
H43   H     H_    0.158273 0.159160 0.287618 0.106032
H44   H     H_    0.098182 0.270617 0.246932 0.179832
N1    N     N_1   0.500000 0.500020 0.268070 -0.194875
N2    N     N_1   0.500000 0.500020 0.731930 -0.192296
O1    O     O_R   0.500000 0.376050 0.578280 -0.408765
O2    O     O_2   0.277965 0.330607 0.618449 -0.292215
O3    O     O_3   0.102591 0.365371 0.736063 -0.416440
O4    O     O_2   0.270493 0.666706 0.367879 -0.340538
O5    O     O_2   0.122694 0.675793 0.232458 -0.330129
O6    O     O_3   0.085177 0.765996 0.392514 -0.440410
O7    O     O_2   0.729813 0.315972 0.579607 -0.378889
O8    O     O_2   0.881875 0.207481 0.527396 -0.303824
O9    O     O_3   0.907721 0.290260 0.696160 -0.444421
O10   O     O_2   0.881769 0.737109 0.308097 -0.282809
O11   O     O_2   0.723632 0.679301 0.412815 -0.296247
O12   O     O_R   0.500000 0.376050 0.421720 -0.532828
O13   O     O_3   0.902342 0.753340 0.500346 -0.421319
O14   O     O_3   0.141072 0.357385 0.418838 -0.533732
O15   O     O_3   0.079768 0.487886 0.308339 -0.486841
O16   O     O_3   0.920883 0.363546 0.385303 -0.497644
O17   O     O_3   0.865932 0.518523 0.317447 -0.520417
O18   O     O_3   0.136878 0.526608 0.684101 -0.469703
O19   O     O_3   0.087442 0.663925 0.578079 -0.492923
O20   O     O_3   0.920329 0.478082 0.693186 -0.482435
O21   O     O_3   0.862021 0.628480 0.625037 -0.484715
O22   O     O_R   0.317680 0.499980 0.578260 -0.434995
O23   O     O_R   0.317680 0.499980 0.421740 -0.485782
O24   O     O_R   0.682320 0.499980 0.578260 -0.489008
O25   O     O_R   0.682320 0.499980 0.421740 -0.451041
O26   O     O_R   0.500000 0.623940 0.578240 -0.527079
O27   O     O_R   0.500000 0.623940 0.421760 -0.404561
O28   O     O_2   0.109556 0.229655 0.615346 -0.274030
S1    S     S_3+6 0.143631 0.330236 0.620027 0.088014
S2    S     S_3+6 0.138010 0.666305 0.346320 0.026880
S3    S     S_3+6 0.862796 0.301055 0.574044 0.018187
S4    S     S_3+6 0.857078 0.684633 0.405750 0.079488

loop_
_geom_bond_atom_site_label_1
_geom_bond_atom_site_label_2
_ccdc_geom_bond_type
C1    O1    A    
H1    O3    S    
O3    S1    S    
C4    S1    S    
C8    O18   S    
Cu1   O1    S    
C8    O19   S    
C21   H9    S    
O28   S1    D    
C19   H6    S    
C22   H14   S    
O9    S3    S    
C24   H15   S    
C7    C11   S    
C12   C23   S    
O10   S4    D    
C36   C37   T    
C28   H28   S    
C26   H21   S    
C18   C19   S    
C18   H2    S    
Cu2   O12   S    
O8    S3    D    
C21   H11   S    
C20   O16   S    
C3    C33   S    
H23   O9    S    
O5    S2    D    
C17   H42   S    
O11   S4    D    
C32   H37   S    
Cu1   O24   S    
Cu2   O27   S    
C8    C9    S    
C23   C33   T    
O4    S2    D    
C22   H13   S    
C6    S3    S    
C7    O17   S    
C13   C14   T    
C7    S4    S    
O7    S3    D    
C2    C11   S    
C21   H10   S    
C25   C26   S    
C30   H31   S    
Cu2   O25   S    
C29   H29   S    
Cu1   O22   S    
C5    O15   S    
C2    O25   A    
C28   H27   S    
C4    C6    S    
C3    O27   A    
H34   O13   S    
C6    C11   S    
C5    C7    S    
C30   H33   S    
C16   O14   S    
C9    O20   S    
C22   O17   S    
C17   H43   S    
C18   O15   S    
Cu2   N1    S    
C28   H26   S    
C29   C30   S    
C27   H25   S    
C9    C11   S    
C31   H35   S    
C31   C32   S    
C12   C15   T    
C3    O26   A    
C38   O23   A    
O6    S2    S    
C20   H8    S    
Cu1   O26   S    
C4    O14   S    
C5    S2    S    
C22   C24   S    
C29   O20   S    
H12   O6    S    
C1    C13   S    
C25   H18   S    
C4    C10   S    
Cu1   Cu2   S    
C19   H4    S    
C29   H30   S    
C24   H17   S    
C2    O24   A    
C35   C37   S    
C14   C15   S    
C31   O21   S    
C1    O12   A    
C30   H32   S    
C19   H5    S    
C25   O18   S    
Cu2   O23   S    
C24   H16   S    
C10   C38   S    
C17   H44   S    
O2    S1    D    
C26   H22   S    
C5    C10   S    
C18   H3    S    
C32   H39   S    
C31   H36   S    
C16   C17   S    
C16   H41   S    
C35   N2    T    
C34   C36   S    
C6    O16   S    
C38   O22   A    
C20   H7    S    
C27   H24   S    
C32   H38   S    
C20   C21   S    
C8    C10   S    
C27   C28   S    
C27   O19   S    
C9    O21   S    
C25   H19   S    
Cu1   N2    S    
C16   H40   S    
C26   H20   S    
C34   N1    T    
O13   S4    S    
