data_mof_unit_28826.cif
_audit_creation_date              2012-10-26T21:00:17-0400
_audit_creation_method            fapswitch 2.2
_symmetry_space_group_name_H-M    P1
_symmetry_Int_Tables_number       1
_space_group_crystal_system       triclinic
_cell_length_a                    19.24575
_cell_length_b                    8.757157
_cell_length_c                    7.520375
_cell_angle_alpha                 102.958897
_cell_angle_beta                  95.24717
_cell_angle_gamma                 94.369597
_cell_volume                      1223.89084214

loop_
_atom_site_label
_atom_site_type_symbol
_atom_type_description
_atom_site_fract_x
_atom_site_fract_y
_atom_site_fract_z
_atom_type_partial_charge
C1    C     C_R   0.497306 0.200357 0.454079 0.580079
C2    C     C_R   0.806399 0.361290 0.393380 0.104497
C3    C     C_R   0.146991 0.512188 0.503418 0.014919
C4    C     C_R   0.853094 0.489731 0.495454 0.014774
C5    C     C_R   0.173688 0.378463 0.403535 -0.097690
C6    C     C_R   0.826317 0.622314 0.597336 -0.097800
C7    C     C_R   0.245648 0.371037 0.402981 0.079162
C8    C     C_R   0.754341 0.629178 0.598301 0.079187
C9    C     C_R   0.292099 0.499634 0.502255 0.009755
C10   C     C_R   0.707940 0.501021 0.497643 0.009569
C11   C     C_R   0.929471 0.491449 0.497711 0.355180
C12   C     C_R   0.502703 0.799645 0.545910 0.579818
C13   C     C_R   0.070643 0.510839 0.500969 0.355211
C14   C     C_2   0.487896 0.033274 0.431715 0.194109
C15   C     C_2   0.512141 0.966726 0.568234 0.194048
C16   C     C_R   0.367741 0.498087 0.500377 0.542048
C17   C     C_R   0.632269 0.502082 0.499630 0.542044
C18   C     C_R   0.265899 0.633133 0.603321 -0.101473
C19   C     C_R   0.734210 0.368662 0.394537 -0.101669
C20   C     C_R   0.193715 0.641096 0.603915 0.104650
Cl1   Cl    Cl    0.435334 0.929773 0.226794 -0.501686
Cl2   Cl    Cl    0.564798 0.070252 0.773054 -0.501720
Cu1   Cu    Cu3+1 0.507710 0.517380 0.684380 1.166786
Cu2   Cu    Cu3+1 0.492290 0.482620 0.315620 1.166626
H1    H     H_    0.301733 0.732853 0.678525 0.167464
H2    H     H_    0.698413 0.269236 0.318042 0.167943
H3    H     H_    0.138388 0.277623 0.328463 0.174399
H4    H     H_    0.861555 0.722733 0.673636 0.174537
I1    I     I_    0.160698 0.856513 0.746420 -0.191473
I2    I     I_    0.839408 0.147119 0.247139 -0.191103
I3    I     I_    0.279934 0.157698 0.261243 -0.173100
I4    I     I_    0.719957 0.841632 0.741998 -0.172698
I5    I     I_    0.401261 0.286487 0.897075 -0.024196
I6    I     I_    0.598700 0.713529 0.103121 -0.024391
N1    N     N_R   0.028266 0.447247 0.343093 -0.191685
N2    N     N_R   0.971861 0.555105 0.655582 -0.192049
N3    N     N_R   0.958914 0.438846 0.341191 -0.161570
N4    N     N_R   0.041213 0.563547 0.657481 -0.161616
N5    N     N_2   0.480680 0.456420 0.038530 -0.022725
N6    N     N_2   0.519320 0.543580 0.961470 -0.022668
O1    O     O_R   0.505010 0.286130 0.619770 -0.483744
O2    O     O_R   0.494990 0.713870 0.380230 -0.483774
O3    O     O_R   0.491990 0.256780 0.308370 -0.453659
O4    O     O_R   0.508010 0.743220 0.691630 -0.453673
O5    O     O_R   0.406650 0.514660 0.655750 -0.506720
O6    O     O_R   0.593350 0.485340 0.344250 -0.507008
O7    O     O_R   0.393640 0.485310 0.344340 -0.478533
O8    O     O_R   0.606360 0.514690 0.655660 -0.478380

loop_
_geom_bond_atom_site_label_1
_geom_bond_atom_site_label_2
_ccdc_geom_bond_type
C16   O5    A    
C2    C4    A    
Cu1   Cu2   S    
C17   O8    A    
Cu1   O5    S    
Cu2   O2    S    
Cu1   O1    S    
C12   C15   S    
C10   C19   A    
C2    I2    S    
Cu2   O6    S    
N2    N4    A    
C5    C7    A    
C3    C20   A    
C12   O4    A    
Cu1   O8    S    
C4    C11   S    
C13   N4    A    
I5    N5    S    
C18   H1    S    
I6    N6    S    
C6    C8    A    
C14   Cl1   S    
C4    C6    A    
C11   N2    A    
N1    N3    A    
C9    C16   S    
C13   N1    A    
C18   C20   A    
C20   I1    S    
Cu2   O3    S    
C7    I3    S    
C10   C17   S    
Cu1   N6    S    
C8    I4    S    
C7    C9    A    
C9    C18   A    
Cu2   N5    S    
C17   O6    A    
C16   O7    A    
C8    C10   A    
C1    O1    A    
N5    N6    D    
C11   N3    A    
C19   H2    S    
C14   C15   D    
C12   O2    A    
C1    C14   S    
C2    C19   A    
C5    H3    S    
Cu2   O7    S    
C1    O3    A    
C15   Cl2   S    
C6    H4    S    
Cu1   O4    S    
C3    C5    A    
C3    C13   S    
