data_mof_unit_59998.cif
_audit_creation_date              2012-12-10T16:50:55-0500
_audit_creation_method            fapswitch 2.2
_symmetry_space_group_name_H-M    P1
_symmetry_Int_Tables_number       1
_space_group_crystal_system       triclinic
_cell_length_a                    7.960744
_cell_length_b                    8.5712
_cell_length_c                    10.726624
_cell_angle_alpha                 93.251008
_cell_angle_beta                  84.467527
_cell_angle_gamma                 93.170936
_cell_volume                      726.413647813

loop_
_atom_site_label
_atom_site_type_symbol
_atom_type_description
_atom_site_fract_x
_atom_site_fract_y
_atom_site_fract_z
_atom_type_partial_charge
C1    C     C_R   0.543738 0.793396 0.498925 0.907759
C2    C     C_R   0.940787 0.394895 0.026290 -0.141194
C3    C     C_R   0.037812 0.517546 0.081498 -0.088422
C4    C     C_R   0.962190 0.482496 0.918496 -0.088420
C5    C     C_R   0.181185 0.472044 0.131734 -0.178344
C6    C     C_R   0.818814 0.527999 0.868264 -0.178345
C7    C     C_R   0.343553 0.496116 0.070921 0.093161
C8    C     C_R   0.656449 0.503918 0.929078 0.093163
C9    C     C_R   0.359233 0.558298 0.952815 0.089791
C10   C     C_R   0.640770 0.441733 0.047181 0.089786
C11   C     C_R   0.489670 0.457408 0.124131 -0.245795
C12   C     C_R   0.456262 0.206604 0.501074 0.907765
C13   C     C_R   0.510331 0.542617 0.875866 -0.245800
C14   C     C_1   0.678616 0.012892 0.609306 0.169678
C15   C     C_1   0.321387 0.987109 0.390691 0.169679
C16   C     C_3   0.994073 0.298046 0.438914 -0.482819
C17   C     C_3   0.005931 0.701955 0.561079 -0.482824
C18   C     C_2   0.559484 0.956288 0.519969 -0.229704
C19   C     C_2   0.440517 0.043712 0.480030 -0.229705
C20   C     C_R   0.503664 0.519122 0.739784 0.868192
C21   C     C_R   0.496336 0.480885 0.260214 0.868190
C22   C     C_R   0.222200 0.634636 0.915787 -0.188133
C23   C     C_R   0.777807 0.365397 0.084206 -0.188132
C24   C     C_R   0.059218 0.605145 0.973703 -0.141195
H1    H     H_    0.033986 0.421457 0.840383 0.186021
H2    H     H_    0.898603 0.237359 0.382293 0.177622
H3    H     H_    0.114874 0.291094 0.381027 0.189899
H4    H     H_    0.003833 0.763155 0.472836 0.209750
H5    H     H_    0.885130 0.708918 0.618963 0.189897
H6    H     H_    0.101396 0.762640 0.617698 0.177624
H7    H     H_    0.966012 0.578585 0.159608 0.186017
H8    H     H_    0.239040 0.713298 0.839386 0.149115
H9    H     H_    0.760971 0.286727 0.160602 0.149117
H10   H     H_    0.997411 0.716180 0.983749 0.151050
H11   H     H_    0.002599 0.283862 0.016242 0.151049
H12   H     H_    0.160192 0.394664 0.207093 0.151462
H13   H     H_    0.839798 0.605379 0.792904 0.151453
H14   H     H_    0.996176 0.236841 0.527156 0.209752
N1    N     N_2   0.950330 0.457950 0.466250 -0.019948
N2    N     N_2   0.049670 0.542050 0.533750 -0.019950
N3    N     N_1   0.772715 0.057219 0.680801 -0.226188
N4    N     N_1   0.227291 0.942782 0.319194 -0.226188
O1    O     O_R   0.389250 0.738570 0.508280 -0.611379
O2    O     O_R   0.610750 0.261430 0.491720 -0.611376
O3    O     O_R   0.678390 0.711630 0.486650 -0.638248
O4    O     O_R   0.321610 0.288370 0.513350 -0.638245
O5    O     O_R   0.355430 0.513480 0.694040 -0.618516
O6    O     O_R   0.644570 0.486520 0.305960 -0.618515
O7    O     O_R   0.644570 0.486540 0.672410 -0.613249
O8    O     O_R   0.355430 0.513460 0.327590 -0.613256
Zn1   Zn    Zn3+2 0.306940 0.517990 0.514440 0.938447
Zn2   Zn    Zn3+2 0.693060 0.482010 0.485560 0.938450

loop_
_geom_bond_atom_site_label_1
_geom_bond_atom_site_label_2
_ccdc_geom_bond_type
C2    H11   S    
C3    H7    S    
C8    C13   A    
C10   C23   A    
C12   O4    A    
N2    Zn1   S    
C17   H5    S    
C14   C18   S    
C2    C4    A    
C13   C20   S    
C3    C5    A    
C21   O6    A    
O1    Zn1   S    
O2    Zn2   S    
C16   H3    S    
C2    C3    A    
C1    C18   S    
C6    H13   S    
C12   O2    A    
C15   C19   S    
C17   H6    S    
C1    O3    A    
C3    C24   A    
C20   O7    A    
C22   H8    S    
C14   N3    T    
C6    C8    A    
C12   C19   S    
C8    C10   A    
C21   O8    A    
C11   C21   S    
C7    C11   A    
C5    C7    A    
C2    C23   A    
C16   H2    S    
C4    C24   A    
C22   C24   A    
C9    C22   A    
C20   O5    A    
C10   C11   A    
C16   N1    S    
C5    H12   S    
C4    H1    S    
O6    Zn2   S    
C15   N4    T    
C4    C6    A    
C18   C19   D    
C16   H14   S    
N1    N2    D    
C7    C9    A    
C9    C13   A    
O5    Zn1   S    
O3    Zn2   S    
O8    Zn1   S    
C17   H4    S    
O4    Zn1   S    
C1    O1    A    
C24   H10   S    
O7    Zn2   S    
N1    Zn2   S    
C23   H9    S    
C17   N2    S    
