data_mof_unit_35459.cif
_audit_creation_date              2012-12-11T15:54:47-0500
_audit_creation_method            fapswitch 2.2
_symmetry_space_group_name_H-M    P1
_symmetry_Int_Tables_number       1
_space_group_crystal_system       triclinic
_cell_length_a                    6.907375
_cell_length_b                    14.715467
_cell_length_c                    16.038111
_cell_angle_alpha                 90.065248
_cell_angle_beta                  89.494517
_cell_angle_gamma                 90.392702
_cell_volume                      1630.09510548

loop_
_atom_site_label
_atom_site_type_symbol
_atom_type_description
_atom_site_fract_x
_atom_site_fract_y
_atom_site_fract_z
_atom_type_partial_charge
O1    O     O_R   0.638180 0.333920 0.163320 -0.537745
O2    O     O_R   0.361820 0.666080 0.836680 -0.537745
O3    O     O_R   0.308470 0.344960 0.336080 -0.535731
O4    O     O_R   0.691530 0.655040 0.663920 -0.535732
O5    O     O_R   0.138140 0.166110 0.336680 -0.538270
O6    O     O_R   0.861860 0.833890 0.663320 -0.538270
C1    C     C_R   0.478422 0.365665 0.366295 0.717262
C2    C     C_R   0.521578 0.634335 0.633706 0.717264
O7    O     O_R   0.308460 0.344950 0.163930 -0.530361
O8    O     O_R   0.691540 0.655050 0.836070 -0.530361
O9    O     O_R   0.138140 0.166100 0.163310 -0.528482
O10   O     O_R   0.861860 0.833900 0.836690 -0.528483
C3    C     C_R   0.478826 0.366296 0.134277 0.732718
C4    C     C_R   0.521174 0.633704 0.865723 0.732717
O11   O     O_R   0.638180 0.333930 0.336700 -0.529940
O12   O     O_R   0.361820 0.666070 0.663300 -0.529940
O13   O     O_3   0.471670 0.191340 0.250000 -0.371922
O14   O     O_3   0.528330 0.808660 0.750000 -0.371922
V1    V     V_3+5 0.196830 0.260900 0.250000 1.508487
V2    V     V_3+5 0.803170 0.739100 0.750000 1.508487
O15   O     O_R   0.808420 0.155070 0.163920 -0.537382
O16   O     O_R   0.191580 0.844930 0.836080 -0.537382
C5    C     C_R   0.978248 0.134637 0.133453 0.755172
C6    C     C_R   0.021752 0.865363 0.866547 0.755173
O17   O     O_R   0.808420 0.155080 0.336070 -0.550452
O18   O     O_R   0.191580 0.844920 0.663930 -0.550452
C7    C     C_R   0.975345 0.133468 0.365414 0.711954
C8    C     C_R   0.024655 0.866533 0.634586 0.711954
V3    V     V_3+5 0.696830 0.239130 0.250000 1.489524
V4    V     V_3+5 0.303170 0.760870 0.750000 1.489524
O19   O     O_3   0.971850 0.308690 0.250010 -0.357356
O20   O     O_3   0.028150 0.691310 0.749990 -0.357356
H1    H     H_    0.447080 0.900170 0.290388 0.128333
H2    H     H_    0.552920 0.099830 0.709612 0.128333
C9    C     C_R   0.712608 0.136795 0.512310 -0.113564
C10   C     C_R   0.287391 0.863205 0.487690 -0.113565
C11   C     C_R   0.601557 0.145996 0.584584 -0.109913
C12   C     C_R   0.398442 0.854004 0.415417 -0.109914
C13   C     C_R   0.635182 0.090571 0.652487 -0.109912
C14   C     C_R   0.364818 0.909429 0.347513 -0.109914
C15   C     C_R   0.775868 0.023698 0.647524 -0.125179
C16   C     C_R   0.224132 0.976302 0.352477 -0.125178
C17   C     C_R   0.883713 0.008826 0.573003 0.058933
C18   C     C_R   0.116287 0.991174 0.426997 0.058934
C19   C     C_R   0.858571 0.069667 0.504901 0.077583
C20   C     C_R   0.141429 0.930333 0.495099 0.077584
C21   C     C_R   0.019281 0.936841 0.567201 -0.193584
C22   C     C_R   0.980719 0.063159 0.432799 -0.193584
H3    H     H_    0.680258 0.184190 0.463697 0.147603
H4    H     H_    0.319741 0.815810 0.536304 0.147604
H5    H     H_    0.491668 0.198007 0.588471 0.134248
H6    H     H_    0.508330 0.801994 0.411530 0.134249
H7    H     H_    0.801182 0.985652 0.703871 0.117017
H8    H     H_    0.198818 0.014348 0.296129 0.117017
C23   C     C_R   0.156819 0.997822 0.944705 -0.182988
C24   C     C_R   0.843181 0.002178 0.055295 -0.182988
H9    H     H_    0.278238 0.998045 0.901483 0.159067
H10   H     H_    0.721762 0.001955 0.098517 0.159067
C25   C     C_R   0.149996 0.064370 0.007255 0.177952
C26   C     C_R   0.850004 0.935630 0.992745 0.177952
C27   C     C_R   0.991577 0.066992 0.064212 -0.118126
C28   C     C_R   0.008423 0.933008 0.935788 -0.118125
C29   C     C_R   0.340361 0.494402 0.447759 -0.159177
C30   C     C_R   0.659639 0.505598 0.552242 -0.159177
H11   H     H_    0.216554 0.492152 0.406846 0.174548
H12   H     H_    0.783446 0.507848 0.593155 0.174548
C31   C     C_R   0.344236 0.559519 0.511404 0.158626
C32   C     C_R   0.655764 0.440480 0.488597 0.158626
C33   C     C_R   0.506987 0.566389 0.564788 -0.118748
C34   C     C_R   0.493013 0.433611 0.435213 -0.118748
C35   C     C_R   0.337687 0.493635 0.052212 -0.164130
C36   C     C_R   0.662313 0.506365 0.947788 -0.164130
H13   H     H_    0.211615 0.490229 0.092925 0.132663
H14   H     H_    0.788385 0.509771 0.907075 0.132663
C37   C     C_R   0.343535 0.559135 0.988758 -0.032493
C38   C     C_R   0.656465 0.440865 0.011242 -0.032493
C39   C     C_R   0.507439 0.566001 0.935012 -0.087517
C40   C     C_R   0.492561 0.433999 0.064988 -0.087517
C41   C     C_1   0.180840 0.619924 0.982912 0.317385
N1    N     N_1   0.050250 0.668490 0.978537 -0.330735
C42   C     C_1   0.819160 0.380075 0.017088 0.317385
N2    N     N_1   0.949750 0.331510 0.021462 -0.330735
I1    I     I_    0.381904 0.160271 0.004570 -0.392483
I2    I     I_    0.618096 0.839729 0.995430 -0.392482
I3    I     I_    0.094538 0.642895 0.516804 -0.442885
I4    I     I_    0.905462 0.357105 0.483196 -0.442886

loop_
_geom_bond_atom_site_label_1
_geom_bond_atom_site_label_2
_ccdc_geom_bond_type
C7    C22   S    
V4    O20   S    
C29   H11   S    
C8    C21   S    
C23   C25   A    
O13   V3    S    
O4    C2    A    
V1    O19   S    
C1    C34   S    
C42   N2    T    
C13   C15   A    
O9    V1    S    
C2    C33   S    
C30   C32   A    
C9    C11   A    
C25   I1    S    
O3    C1    A    
C11   H5    S    
C12   H6    S    
O12   V4    S    
C23   C28   A    
C32   I4    S    
C26   C28   A    
C4    C39   S    
O7    C3    A    
C3    C40   S    
O7    V1    S    
O6    C8    A    
O8    V2    S    
C9    H3    S    
O3    V1    S    
O14   V4    S    
C36   C38   A    
C1    O11   A    
C2    O12   A    
C12   C14   A    
O5    C7    A    
C15   C17   A    
C16   C18   A    
C18   C20   A    
O11   V3    S    
O15   C5    A    
O17   V3    S    
C29   C31   A    
C31   I3    S    
H1    C14   S    
C25   C27   A    
H2    C13   S    
C36   H14   S    
O8    C4    A    
C35   H13   S    
O15   V3    S    
C24   C26   A    
C31   C33   A    
C30   H12   S    
C36   C39   A    
C37   C39   A    
C29   C34   A    
V3    O19   S    
O10   V2    S    
O1    V3    S    
C30   C33   A    
C10   C20   A    
C17   C19   A    
C15   H7    S    
O18   V4    S    
C23   H9    S    
O16   C6    A    
O1    C3    A    
C9    C19   A    
C10   H4    S    
V2    O20   S    
C19   C22   A    
C20   C21   A    
C6    C28   S    
O16   V4    S    
C38   C40   A    
C14   C16   A    
C38   C42   S    
O5    V1    S    
O17   C7    A    
O6    V2    S    
O10   C6    A    
O18   C8    A    
O2    V4    S    
C10   C12   A    
C11   C13   A    
C16   H8    S    
C35   C37   A    
C26   I2    S    
C17   C21   A    
O9    C5    A    
O13   V1    S    
C24   H10   S    
O14   V2    S    
O2    C4    A    
C41   N1    T    
O4    V2    S    
C5    C27   S    
C32   C34   A    
C24   C27   A    
C37   C41   S    
C35   C40   A    
C18   C22   A    
