data_mof_unit_6043.cif
_audit_creation_date              2012-12-11T16:28:29-0500
_audit_creation_method            fapswitch 2.2
_symmetry_space_group_name_H-M    P1
_symmetry_Int_Tables_number       1
_space_group_crystal_system       triclinic
_cell_length_a                    17.368379
_cell_length_b                    7.268927
_cell_length_c                    14.762899
_cell_angle_alpha                 89.999672
_cell_angle_beta                  94.558503
_cell_angle_gamma                 90.000383
_cell_volume                      1857.91252669

loop_
_atom_site_label
_atom_site_type_symbol
_atom_type_description
_atom_site_fract_x
_atom_site_fract_y
_atom_site_fract_z
_atom_type_partial_charge
O1    O     O_R   0.663460 0.361760 0.165970 -0.544223
O2    O     O_R   0.336540 0.638240 0.834030 -0.527804
O3    O     O_R   0.836540 0.861760 0.334030 -0.544228
O4    O     O_R   0.163460 0.138240 0.665970 -0.527812
O5    O     O_R   0.827100 0.689870 0.163730 -0.520529
O6    O     O_R   0.172900 0.310130 0.836270 -0.521607
O7    O     O_R   0.672900 0.189870 0.336270 -0.520502
O8    O     O_R   0.327100 0.810130 0.663730 -0.521623
C1    C     C_R   0.855494 0.523742 0.146370 0.790468
C2    C     C_R   0.144776 0.476701 0.854024 0.792979
C3    C     C_R   0.644506 0.023741 0.353629 0.790464
C4    C     C_R   0.355224 0.976702 0.645977 0.792988
O9    O     O_R   0.663490 0.691370 0.155500 -0.522466
O10   O     O_R   0.336510 0.308630 0.844500 -0.538552
O11   O     O_R   0.836510 0.191370 0.344500 -0.522475
O12   O     O_R   0.163490 0.808630 0.655500 -0.538555
O13   O     O_R   0.671770 0.863320 0.325740 -0.521405
O14   O     O_R   0.328230 0.136680 0.674260 -0.521770
O15   O     O_R   0.828230 0.363320 0.174260 -0.521373
O16   O     O_R   0.171770 0.636680 0.825740 -0.521787
C5    C     C_R   0.641454 0.522084 0.126401 0.787029
C6    C     C_R   0.358289 0.478101 0.873940 0.784304
C7    C     C_R   0.858545 0.022083 0.373600 0.787007
C8    C     C_R   0.141712 0.978102 0.626059 0.784296
O17   O     O_3   0.752910 0.528800 0.305860 -0.370954
O18   O     O_3   0.247090 0.471200 0.694140 -0.367424
O19   O     O_3   0.747090 0.028800 0.194140 -0.370945
O20   O     O_3   0.252910 0.971200 0.805860 -0.367426
V1    V     V_3+5 0.749460 0.803010 0.239640 1.682596
V2    V     V_3+5 0.250540 0.196990 0.760360 1.687370
V3    V     V_3+5 0.750540 0.303010 0.260360 1.682673
V4    V     V_3+5 0.249460 0.696990 0.739640 1.687334
C9    C     C_1   0.468697 0.995327 0.529924 0.234633
C10   C     C_1   0.530184 0.006827 0.468583 0.237664
C11   C     C_1   0.031305 0.495325 0.970078 0.234785
C12   C     C_1   0.969814 0.506827 0.031415 0.237829
C13   C     C_R   0.004163 0.975543 0.310505 -0.283783
C14   C     C_R   0.994939 0.955262 0.688159 -0.276900
C15   C     C_R   0.495835 0.475562 0.189498 -0.283789
C16   C     C_R   0.505065 0.455274 0.811840 -0.276888
C17   C     C_R   0.065662 0.043743 0.267389 0.348986
C18   C     C_R   0.935681 0.028987 0.733476 0.355563
C19   C     C_R   0.434335 0.543772 0.232609 0.349003
C20   C     C_R   0.564326 0.528996 0.766527 0.355622
C21   C     C_R   0.126224 0.125669 0.320519 0.268957
C22   C     C_R   0.877597 0.125774 0.683289 0.264399
C23   C     C_R   0.373772 0.625680 0.179473 0.268974
C24   C     C_R   0.622408 0.625787 0.816717 0.264324
C25   C     C_R   0.137149 0.077019 0.413323 0.308527
C26   C     C_R   0.865382 0.090708 0.589171 0.302927
C27   C     C_R   0.362849 0.577004 0.086675 0.308522
C28   C     C_R   0.634620 0.590708 0.910834 0.302949
C29   C     C_R   0.072344 0.016257 0.460501 -0.065717
C30   C     C_R   0.928450 0.026551 0.539894 -0.065035
C31   C     C_R   0.427655 0.516250 0.039499 -0.065697
C32   C     C_R   0.571550 0.526551 0.960108 -0.065005
C33   C     C_R   0.001247 0.995246 0.405277 -0.069796
C34   C     C_R   0.998487 0.984622 0.594127 -0.070767
C35   C     C_R   0.498752 0.495248 0.094725 -0.069795
C36   C     C_R   0.501514 0.484626 0.905873 -0.070776
C37   C     C_R   0.071503 0.986577 0.557403 -0.038976
C38   C     C_R   0.928581 0.010185 0.442174 -0.039918
C39   C     C_R   0.428498 0.486576 0.942596 -0.038980
C40   C     C_R   0.571418 0.510183 0.057829 -0.039923
C41   C     C_1   0.417111 0.986293 0.582571 -0.016854
C42   C     C_1   0.582098 0.015571 0.416390 -0.021306
C43   C     C_1   0.082891 0.486290 0.917431 -0.016790
C44   C     C_1   0.917900 0.515574 0.083607 -0.021226
H1    H     H_    0.955577 0.925611 0.267283 0.175867
H2    H     H_    0.041982 0.891915 0.729260 0.172581
H3    H     H_    0.544422 0.425638 0.232723 0.175852
H4    H     H_    0.458020 0.391933 0.770737 0.172569
S1    S     S_3+6 0.232786 0.077726 0.460192 0.034600
O21   O     O_2   0.242690 0.229477 0.528829 -0.337780
O22   O     O_2   0.249493 0.891967 0.501262 -0.358295
O23   O     O_3   0.294990 0.113884 0.381240 -0.416557
H5    H     H_    0.345681 0.125025 0.416048 0.399010
S2    S     S_3+6 0.769323 0.104968 0.543712 0.032909
O24   O     O_2   0.760259 0.269546 0.482619 -0.330012
O25   O     O_2   0.750104 0.928546 0.494398 -0.364549
O26   O     O_3   0.708081 0.128735 0.624789 -0.422026
H6    H     H_    0.656855 0.138776 0.591008 0.405707
S3    S     S_3+6 0.267212 0.577695 0.039804 0.034568
O27   O     O_2   0.257312 0.729446 0.971166 -0.337882
O28   O     O_2   0.250506 0.391936 0.998735 -0.358188
O29   O     O_3   0.205006 0.613853 0.118754 -0.416600
H7    H     H_    0.154343 0.625479 0.083927 0.398984
S4    S     S_3+6 0.730679 0.604947 0.956293 0.032773
O30   O     O_2   0.739748 0.769525 0.017385 -0.330133
O31   O     O_2   0.749893 0.428522 0.005607 -0.364440
O32   O     O_3   0.791921 0.628704 0.875216 -0.422186
H8    H     H_    0.843144 0.638813 0.908997 0.405622
S5    S     S_3+6 0.059960 0.031420 0.147441 0.071090
O33   O     O_2   0.046813 0.834208 0.120879 -0.354874
O34   O     O_2   0.991450 0.140957 0.110266 -0.340546
O35   O     O_3   0.139984 0.107360 0.102614 -0.398318
H9    H     H_    0.130628 0.085489 0.036430 0.403827
S6    S     S_3+6 0.940358 0.003846 0.852718 0.072933
O36   O     O_2   0.962744 0.809131 0.875077 -0.360827
O37   O     O_2   0.002058 0.128189 0.894699 -0.333200
O38   O     O_3   0.855872 0.050757 0.895762 -0.403191
H10   H     H_    0.865563 0.030757 0.962059 0.405423
S7    S     S_3+6 0.440032 0.531467 0.352559 0.071182
O39   O     O_2   0.453101 0.334233 0.379127 -0.354706
O40   O     O_2   0.508586 0.640866 0.389731 -0.340667
O41   O     O_3   0.360040 0.607594 0.397390 -0.398289
H11   H     H_    0.369384 0.585677 0.463571 0.403828
S8    S     S_3+6 0.559661 0.503855 0.647286 0.072986
O42   O     O_2   0.537252 0.309157 0.624915 -0.360640
O43   O     O_2   0.497982 0.628247 0.605301 -0.333318
O44   O     O_3   0.644160 0.550708 0.604263 -0.403223
H12   H     H_    0.634396 0.531465 0.537919 0.405471
S9    S     S_3+6 0.839790 0.327784 0.729885 0.180357
O45   O     O_2   0.901455 0.415978 0.792542 -0.298659
O46   O     O_2   0.816187 0.461343 0.655006 -0.258903
O47   O     O_3   0.763494 0.277022 0.788592 -0.375674
H13   H     H_    0.720886 0.355658 0.762484 0.403759
S10   S     S_3+6 0.167583 0.330702 0.281607 0.184237
O48   O     O_2   0.107054 0.433631 0.223512 -0.294112
O49   O     O_2   0.194402 0.450472 0.361009 -0.259388
O50   O     O_3   0.242401 0.281308 0.220159 -0.375433
H14   H     H_    0.286635 0.351615 0.248680 0.399505
S11   S     S_3+6 0.660215 0.827808 0.770132 0.180263
O51   O     O_2   0.598546 0.916031 0.707493 -0.298687
O52   O     O_2   0.683829 0.961343 0.845018 -0.258888
O53   O     O_3   0.736501 0.777052 0.711405 -0.375758
H15   H     H_    0.779137 0.855540 0.737570 0.403739
S12   S     S_3+6 0.332416 0.830733 0.218361 0.184125
O54   O     O_2   0.392947 0.933684 0.276440 -0.294203
O55   O     O_2   0.305599 0.950466 0.138944 -0.259413
O56   O     O_3   0.257598 0.781372 0.279816 -0.375487
H16   H     H_    0.213362 0.851642 0.251273 0.399491

loop_
_geom_bond_atom_site_label_1
_geom_bond_atom_site_label_2
_ccdc_geom_bond_type
C21   S10   S    
O17   V3    S    
C14   H2    S    
O18   V4    S    
C8    C37   S    
C16   C36   A    
C31   C35   A    
O19   V1    S    
O13   V1    S    
S1    O21   D    
O1    C5    A    
O3    C7    A    
O44   H12   S    
O15   V3    S    
S12   O54   D    
C10   C42   T    
C24   S11   S    
O26   H6    S    
C9    C41   T    
C23   S12   S    
C2    C43   S    
O47   H13   S    
O7    C3    A    
C35   C40   A    
C26   C30   A    
S11   O51   D    
C36   C39   A    
O9    V1    S    
C14   C18   A    
C13   H1    S    
C18   S6    S    
C30   C34   A    
O4    C8    A    
S2    O25   D    
S11   O52   D    
O41   H11   S    
O1    V3    S    
S8    O42   D    
O2    V4    S    
C18   C22   A    
O3    V1    S    
S10   O48   D    
C5    C40   S    
C6    C39   S    
C14   C34   A    
C29   C37   A    
C1    O15   A    
C7    C38   S    
C17   S5    S    
C11   C12   S    
C2    O16   A    
C31   C39   A    
O2    C6    A    
C32   C40   A    
O14   V2    S    
C11   C43   T    
C16   C20   A    
C3    C42   S    
S9    O47   S    
C34   C37   A    
O11   C7    A    
S5    O34   D    
S1    O22   D    
O10   V2    S    
C26   S2    S    
O5    V1    S    
C20   S8    S    
O7    V3    S    
O8    V4    S    
O38   H10   S    
C28   S4    S    
O23   H5    S    
O32   H8    S    
C29   C33   A    
S2    O24   D    
S11   O53   S    
C15   C19   A    
C30   C38   A    
C33   C38   A    
O4    V2    S    
C32   C36   A    
S10   O50   S    
O5    C1    A    
S3    O27   D    
S4    O32   S    
C21   C25   A    
O8    C4    A    
C15   C35   A    
O35   H9    S    
C9    C10   S    
O9    C5    A    
S7    O40   D    
S5    O33   D    
O50   H14   S    
O6    V2    S    
S4    O31   D    
S5    O35   S    
S6    O37   D    
S1    O23   S    
C25   S1    S    
O56   H16   S    
S12   O56   S    
C27   S3    S    
S9    O45   D    
O16   V4    S    
C3    O13   A    
C15   H3    S    
C16   H4    S    
C22   S9    S    
S3    O28   D    
O29   H7    S    
C19   S7    S    
S12   O55   D    
O6    C2    A    
C23   C27   A    
C12   C44   T    
O11   V3    S    
O12   V4    S    
S6    O38   S    
C4    C41   S    
C22   C26   A    
S8    O44   S    
O10   C6    A    
O20   V2    S    
C1    C44   S    
S2    O26   S    
O53   H15   S    
C25   C29   A    
S8    O43   D    
S7    O41   S    
C27   C31   A    
C13   C17   A    
S10   O49   D    
C28   C32   A    
C24   C28   A    
S3    O29   S    
S4    O30   D    
O12   C8    A    
S6    O36   D    
C4    O14   A    
S7    O39   D    
C17   C21   A    
C19   C23   A    
C13   C33   A    
C20   C24   A    
S9    O46   D    
