data_mof_unit_26324.cif
_audit_creation_date              2012-12-10T17:11:27-0500
_audit_creation_method            fapswitch 2.2
_symmetry_space_group_name_H-M    P1
_symmetry_Int_Tables_number       1
_space_group_crystal_system       triclinic
_cell_length_a                    14.996612
_cell_length_b                    13.040677
_cell_length_c                    11.77972
_cell_angle_alpha                 99.605504
_cell_angle_beta                  93.217755
_cell_angle_gamma                 90.691776
_cell_volume                      2267.29541305

loop_
_atom_site_label
_atom_site_type_symbol
_atom_type_description
_atom_site_fract_x
_atom_site_fract_y
_atom_site_fract_z
_atom_type_partial_charge
C1    C     C_R   0.498129 0.299493 0.479158 0.875798
C2    C     C_R   0.500001 0.700474 0.520805 0.862736
C3    C     C_R   0.041353 0.326860 0.563627 0.138983
C4    C     C_R   0.961087 0.682322 0.462762 0.123050
C5    C     C_R   0.498697 0.813605 0.531727 -0.286715
C6    C     C_R   0.496812 0.186310 0.467973 -0.280244
C7    C     C_R   0.500452 0.017920 0.346246 0.715614
C8    C     C_R   0.493094 0.981917 0.653215 0.711719
C9    C     C_R   0.499492 0.125399 0.358559 -0.382685
C10   C     C_R   0.495197 0.874473 0.641041 -0.379682
C11   C     C_R   0.493564 0.138669 0.566287 0.628878
C12   C     C_R   0.500568 0.861217 0.433208 0.632004
C13   C     C_R   0.494890 0.030450 0.555298 -0.241505
C14   C     C_R   0.498620 0.969393 0.444158 -0.246501
C15   C     C_R   0.428731 0.387721 0.022260 0.111043
C16   C     C_R   0.572297 0.611210 0.977915 0.106193
C17   C     C_R   0.425178 0.409357 0.144460 0.384006
C18   C     C_R   0.574217 0.591428 0.855421 0.338811
C19   C     C_R   0.539412 0.538664 0.155682 0.448073
C20   C     C_R   0.461151 0.460837 0.844426 0.422897
C21   C     C_R   0.528350 0.538116 0.033799 -0.127423
C22   C     C_R   0.473409 0.460292 0.966054 -0.193336
C23   C     C_R   0.329412 0.496956 0.500391 0.845323
C24   C     C_R   0.670768 0.502759 0.499703 0.838723
C25   C     C_R   0.813334 0.595161 0.478280 0.225852
C26   C     C_R   0.188015 0.408148 0.530474 0.228510
C27   C     C_R   0.767303 0.506717 0.500554 -0.115177
C28   C     C_R   0.233264 0.493985 0.501293 -0.116561
C29   C     C_R   0.812235 0.421524 0.529052 -0.243901
C30   C     C_R   0.188330 0.579158 0.473313 -0.245968
C31   C     C_R   0.904738 0.419210 0.531501 -0.002789
C32   C     C_R   0.096280 0.583526 0.477021 -0.002944
C33   C     C_R   0.953699 0.505019 0.506861 -0.092304
C34   C     C_R   0.047712 0.499528 0.506745 -0.095686
C35   C     C_R   0.908660 0.595789 0.482197 -0.039200
C36   C     C_R   0.093100 0.410092 0.534823 -0.035652
C37   C     C_R   0.948221 0.331510 0.558649 0.536538
C38   C     C_R   0.053161 0.672763 0.454158 0.544431
Cu1   Cu    Cu3+1 0.506660 0.507730 0.615930 1.000215
Cu2   Cu    Cu3+1 0.493340 0.492270 0.384070 1.005482
H1    H     H_    0.773884 0.355881 0.547842 0.203940
H2    H     H_    0.226452 0.643532 0.451122 0.204865
H3    H     H_    0.493675 0.838954 0.717768 0.206827
H4    H     H_    0.501622 0.160904 0.281881 0.213162
N1    N     N_R   0.516670 0.519360 0.790130 -0.217866
N2    N     N_R   0.483330 0.480640 0.209870 -0.235164
O1    O     O_R   0.504720 0.354460 0.582000 -0.512476
O2    O     O_R   0.495280 0.645540 0.418000 -0.508795
O3    O     O_R   0.493480 0.341410 0.386200 -0.594869
O4    O     O_R   0.506520 0.658590 0.613800 -0.595544
O5    O     O_R   0.375880 0.506510 0.597910 -0.551337
O6    O     O_R   0.624120 0.493490 0.402090 -0.550307
O7    O     O_R   0.364640 0.493450 0.402110 -0.571631
O8    O     O_R   0.635360 0.506550 0.597890 -0.572698
N3    N     N_2   0.761993 0.678055 0.445284 -0.421326
H5    H     H_    0.782073 0.709430 0.376056 0.267384
C39   C     C_3   0.728388 0.751353 0.538310 -0.621217
H6    H     H_    0.783417 0.785902 0.599782 0.233423
H7    H     H_    0.680543 0.712193 0.585900 0.228383
H8    H     H_    0.693367 0.814542 0.502699 0.224812
N4    N     N_2   0.240167 0.322419 0.553981 -0.422754
H9    H     H_    0.233474 0.297558 0.631363 0.286207
C40   C     C_3   0.254201 0.242044 0.456652 -0.638601
H10   H     H_    0.189380 0.211774 0.412855 0.233124
H11   H     H_    0.290538 0.176911 0.486668 0.228868
H12   H     H_    0.295768 0.273203 0.394870 0.229944
N5    N     N_2   0.411660 0.283493 0.963173 -0.405572
H13   H     H_    0.453790 0.258841 0.898281 0.326381
C41   C     C_3   0.320402 0.244675 0.938568 -0.645947
H14   H     H_    0.316971 0.182968 0.860904 0.252139
H15   H     H_    0.274603 0.306688 0.920736 0.207648
H16   H     H_    0.297434 0.208669 0.010819 0.238157
N6    N     N_2   0.588351 0.714626 0.039163 -0.388834
H17   H     H_    0.545276 0.768117 0.012514 0.291612
C42   C     C_3   0.679102 0.754925 0.062980 -0.646010
H18   H     H_    0.681742 0.813962 0.142810 0.263576
H19   H     H_    0.700525 0.794194 0.992193 0.218937
H20   H     H_    0.726291 0.693214 0.077330 0.214836
F1    F     F_    0.899821 0.249411 0.582129 -0.684357
F2    F     F_    0.101308 0.753284 0.426537 -0.682067
N7    N     N_2   0.081125 0.237178 0.596989 -0.412123
H21   H     H_    0.055148 0.168281 0.550263 0.291165
C43   C     C_3   0.084769 0.236529 0.720021 -0.664955
H22   H     H_    0.125119 0.170107 0.739528 0.225246
H23   H     H_    0.016554 0.228008 0.749954 0.270201
H24   H     H_    0.116689 0.309592 0.767984 0.207927
N8    N     N_2   0.923223 0.780469 0.454406 -0.422327
H25   H     H_    0.933595 0.804484 0.376978 0.277281
C44   C     C_3   0.945365 0.861752 0.552106 -0.593199
H26   H     H_    0.901167 0.928756 0.547271 0.233146
H27   H     H_    0.015737 0.889019 0.551496 0.265165
H28   H     H_    0.935644 0.833356 0.634514 0.210820
F3    F     F_    0.505113 0.802622 0.326863 -0.608127
F4    F     F_    0.489061 0.197353 0.672527 -0.634357
F5    F     F_    0.503701 0.962335 0.238293 -0.603194
F6    F     F_    0.489455 0.037500 0.761107 -0.612303
N9    N     N_2   0.380283 0.420982 0.784196 -0.360116
H29   H     H_    0.371116 0.341634 0.770364 0.285914
C45   C     C_3   0.302610 0.481182 0.819141 -0.671891
H30   H     H_    0.241949 0.447544 0.768085 0.212840
H31   H     H_    0.311633 0.562667 0.804858 0.246891
H32   H     H_    0.291691 0.482301 0.911730 0.209929
N10   N     N_2   0.618773 0.581425 0.217454 -0.349874
H33   H     H_    0.625588 0.661071 0.230668 0.310491
C46   C     C_3   0.698350 0.523943 0.184677 -0.672635
H34   H     H_    0.758021 0.561262 0.235037 0.217466
H35   H     H_    0.709169 0.520686 0.091748 0.207993
H36   H     H_    0.691950 0.442932 0.201498 0.246165
N11   N     N_2   0.633688 0.649006 0.799148 -0.378709
H37   H     H_    0.627351 0.728486 0.818260 0.239934
C47   C     C_3   0.725667 0.615588 0.804082 -0.646806
H38   H     H_    0.764696 0.653147 0.744510 0.220265
H39   H     H_    0.729461 0.529850 0.779069 0.250690
H40   H     H_    0.757649 0.636859 0.891701 0.203038
N12   N     N_2   0.363443 0.354592 0.200501 -0.376336
H41   H     H_    0.368121 0.274858 0.182890 0.252768
C48   C     C_3   0.272511 0.391108 0.192783 -0.659558
H42   H     H_    0.230355 0.353309 0.248935 0.221380
H43   H     H_    0.242698 0.373061 0.103684 0.204400
H44   H     H_    0.270576 0.476723 0.220339 0.251936

loop_
_geom_bond_atom_site_label_1
_geom_bond_atom_site_label_2
_ccdc_geom_bond_type
C24   O6    A    
Cu1   O5    S    
N3    H5    S    
C40   H11   S    
C16   C21   A    
C27   C29   A    
N6    H17   S    
C47   H38   S    
C8    F6    S    
C18   N11   S    
N8    H25   S    
C6    C9    A    
N7    H21   S    
C19   N2    A    
C4    N8    S    
Cu2   N2    S    
C46   H35   S    
C8    C13   A    
C19   C21   A    
C26   N4    S    
N11   C47   S    
C39   H7    S    
Cu1   O8    S    
C24   O8    A    
N12   H41   S    
N9    H29   S    
N4    C40   S    
C41   H15   S    
Cu2   O2    S    
C2    O4    A    
C13   C14   A    
N9    C45   S    
C19   N10   S    
C15   C22   A    
C20   N9    S    
C43   H22   S    
N12   C48   S    
C45   H32   S    
C3    N7    S    
C24   C27   S    
C32   C38   A    
C44   H27   S    
N10   H33   S    
C20   N1    A    
Cu1   N1    S    
C40   H12   S    
C21   C22   A    
N6    C42   S    
C41   H14   S    
N7    C43   S    
C23   O7    A    
C7    C14   A    
C46   H36   S    
N5    H13   S    
C17   N2    A    
C5    C12   A    
N10   C46   S    
C48   H44   S    
Cu1   Cu2   S    
C1    O1    A    
C39   H8    S    
C2    O2    A    
Cu2   O6    S    
C16   N6    S    
N5    C41   S    
C32   C34   A    
C41   H16   S    
C42   H18   S    
C37   F1    S    
C23   O5    A    
C45   H30   S    
C15   N5    S    
Cu1   O4    S    
C31   C33   A    
C33   C34   A    
C47   H39   S    
C16   C18   A    
C23   C28   S    
C44   H28   S    
C42   H19   S    
C25   C35   A    
C11   F4    S    
C26   C36   A    
C43   H23   S    
C4    C38   A    
N3    C39   S    
C12   F3    S    
C2    C5    S    
C18   N1    A    
C6    C11   A    
C17   N12   S    
Cu1   O1    S    
C7    C9    A    
C9    H4    S    
C29   H1    S    
C10   H3    S    
C25   N3    S    
C20   C22   A    
C15   C17   A    
C25   C27   A    
C7    F5    S    
C46   H34   S    
C26   C28   A    
C48   H43   S    
C12   C14   A    
C5    C10   A    
C29   C31   A    
C48   H42   S    
C30   C32   A    
C11   C13   A    
C39   H6    S    
C38   F2    S    
C3    C36   A    
C28   C30   A    
C33   C35   A    
C47   H40   S    
C34   C36   A    
N4    H9    S    
C42   H20   S    
C4    C35   A    
C40   H10   S    
C31   C37   A    
C43   H24   S    
C3    C37   A    
C8    C10   A    
Cu2   O7    S    
C1    C6    S    
N8    C44   S    
C30   H2    S    
C44   H26   S    
N11   H37   S    
C1    O3    A    
C45   H31   S    
Cu2   O3    S    
