data_mof_unit_58280.cif
_audit_creation_date              2012-12-10T17:16:38-0500
_audit_creation_method            fapswitch 2.2
_symmetry_space_group_name_H-M    P1
_symmetry_Int_Tables_number       1
_space_group_crystal_system       triclinic
_cell_length_a                    10.236361
_cell_length_b                    10.626545
_cell_length_c                    10.886343
_cell_angle_alpha                 88.97782
_cell_angle_beta                  95.867148
_cell_angle_gamma                 78.156152
_cell_volume                      1151.98674222

loop_
_atom_site_label
_atom_site_type_symbol
_atom_type_description
_atom_site_fract_x
_atom_site_fract_y
_atom_site_fract_z
_atom_type_partial_charge
C1    C     C_R   0.442447 0.504606 0.267672 0.848449
C2    C     C_R   0.491839 0.741945 0.485340 0.869573
C3    C     C_R   0.745396 0.060869 0.449916 -0.158949
C4    C     C_R   0.254084 0.938519 0.548080 -0.194028
C5    C     C_R   0.823838 0.992402 0.365524 -0.089039
C6    C     C_R   0.175577 0.006194 0.632629 -0.103795
C7    C     C_R   0.776007 0.895955 0.298218 0.408033
C8    C     C_R   0.222823 0.102866 0.700107 0.412191
C9    C     C_R   0.654181 0.865461 0.323758 -0.040388
C10   C     C_R   0.344489 0.134081 0.674713 -0.034855
C11   C     C_R   0.582683 0.926097 0.419230 -0.056864
C12   C     C_R   0.557589 0.495191 0.732332 0.850828
C13   C     C_R   0.416471 0.073703 0.579307 -0.055001
C14   C     C_R   0.618261 0.035925 0.469073 0.068448
C15   C     C_R   0.381066 0.963883 0.529283 0.079819
C16   C     C_R   0.475802 0.881163 0.465291 -0.168840
C17   C     C_R   0.523679 0.118625 0.533514 -0.178119
C18   C     C_1   0.946942 0.030389 0.342306 0.198598
C19   C     C_1   0.053290 0.966606 0.655769 0.158844
C20   C     C_1   0.590977 0.792143 0.234680 0.304447
C21   C     C_1   0.406993 0.207847 0.763907 0.311086
C22   C     C_1   0.868522 0.608337 0.591063 0.387097
C23   C     C_2   0.405245 0.514109 0.134639 0.184863
C24   C     C_1   0.116381 0.428374 0.379740 0.295325
C25   C     C_2   0.594943 0.484931 0.865331 0.189937
C26   C     C_2   0.502549 0.471077 0.062887 0.374979
C27   C     C_2   0.497960 0.528252 0.937302 0.378384
C28   C     C_2   0.070951 0.498136 0.485402 0.081023
C29   C     C_2   0.924560 0.512639 0.507725 0.008145
C30   C     C_R   0.508027 0.257940 0.514240 0.867123
H1    H     H_    0.787266 0.130870 0.503147 0.189034
H2    H     H_    0.198962 0.645179 0.686978 0.411603
H3    H     H_    0.212514 0.868308 0.494787 0.187166
H4    H     H_    0.070036 0.139751 0.798712 0.345995
H5    H     H_    0.928638 0.857950 0.199419 0.345011
H6    H     H_    0.383331 0.693883 0.952840 0.368429
H7    H     H_    0.617032 0.305343 0.048343 0.366343
H8    H     H_    0.776987 0.390983 0.848892 0.357194
H9    H     H_    0.222876 0.607493 0.150552 0.356189
H10   H     H_    0.957870 0.283828 0.465267 0.309816
N1    N     N_2   0.157300 0.551390 0.551120 0.010918
N2    N     N_2   0.842700 0.448610 0.448880 0.054554
N3    N     N_1   0.045086 0.061165 0.322512 -0.168113
N4    N     N_1   0.955842 0.934331 0.675235 -0.161872
N5    N     N_1   0.540339 0.736493 0.160316 -0.232602
N6    N     N_1   0.457002 0.263915 0.838343 -0.229221
N7    N     N_1   0.825080 0.684807 0.658760 -0.135608
N8    N     N_1   0.151354 0.371627 0.295042 -0.115115
O1    O     O_R   0.568940 0.489660 0.307530 -0.514876
O2    O     O_3   0.842722 0.830941 0.206040 -0.739739
O3    O     O_3   0.392711 0.626557 0.890700 -0.731154
O4    O     O_3   0.608317 0.373412 0.109782 -0.688815
O5    O     O_3   0.722334 0.423668 0.916018 -0.725950
O6    O     O_3   0.277687 0.574517 0.083622 -0.726243
O7    O     O_3   0.893338 0.335859 0.399836 -0.626150
O8    O     O_3   0.120418 0.610887 0.653465 -0.664705
O9    O     O_R   0.431060 0.510340 0.692470 -0.557955
O10   O     O_R   0.348880 0.522640 0.340350 -0.657866
O11   O     O_R   0.651120 0.477360 0.659650 -0.654937
O12   O     O_R   0.610030 0.300280 0.483580 -0.591183
O13   O     O_R   0.389970 0.699720 0.516420 -0.628854
O14   O     O_R   0.389970 0.333270 0.516400 -0.620589
O15   O     O_R   0.610030 0.666730 0.483600 -0.633828
O16   O     O_3   0.155731 0.167316 0.792341 -0.735801
Zn1   Zn    Zn3+2 0.646940 0.477980 0.478080 1.043673
Zn2   Zn    Zn3+2 0.353060 0.522020 0.521920 0.997938

loop_
_geom_bond_atom_site_label_1
_geom_bond_atom_site_label_2
_ccdc_geom_bond_type
N2    Zn1   S    
O15   Zn1   S    
N1    O8    S    
C1    C23   S    
N1    Zn2   S    
C6    C19   S    
C22   C29   S    
C26   O4    S    
N2    O7    S    
C25   C27   D    
C2    C16   S    
C11   C16   A    
O9    Zn2   S    
C9    C20   S    
C20   N5    T    
C2    O13   A    
C13   C17   A    
C12   C25   S    
C9    C11   A    
H10   O7    S    
H5    O2    S    
C13   C15   A    
C22   N7    T    
C1    O10   A    
O11   Zn1   S    
C3    H1    S    
C17   C30   S    
H8    O5    S    
C14   C17   A    
C26   C27   S    
H6    O3    S    
O1    Zn1   S    
C4    C15   A    
C12   O9    A    
H4    O16   S    
C28   C29   S    
C27   O3    S    
C8    O16   S    
O12   Zn1   S    
C3    C14   A    
C5    C7    A    
C30   O14   A    
C10   C21   S    
H2    O8    S    
C29   N2    D    
C11   C14   A    
H9    O6    S    
O14   Zn2   S    
C15   C16   A    
C24   N8    T    
C28   N1    D    
C19   N4    T    
C23   O6    S    
C4    C6    A    
C21   N6    T    
C23   C26   D    
C18   N3    T    
C7    C9    A    
H7    O4    S    
C2    O15   A    
C6    C8    A    
C5    C18   S    
C4    H3    S    
C12   O11   A    
C1    O1    A    
O13   Zn2   S    
O10   Zn2   S    
C8    C10   A    
C24   C28   S    
C7    O2    S    
C25   O5    S    
C3    C5    A    
C10   C13   A    
C30   O12   A    
