data_mof_unit_37051.cif
_audit_creation_date              2012-12-11T15:11:47-0500
_audit_creation_method            fapswitch 2.2
_symmetry_space_group_name_H-M    P1
_symmetry_Int_Tables_number       1
_space_group_crystal_system       triclinic
_cell_length_a                    20.150903
_cell_length_b                    7.097383
_cell_length_c                    13.474645
_cell_angle_alpha                 90.071379
_cell_angle_beta                  103.57988
_cell_angle_gamma                 89.918404
_cell_volume                      1873.24750011

loop_
_atom_site_label
_atom_site_type_symbol
_atom_type_description
_atom_site_fract_x
_atom_site_fract_y
_atom_site_fract_z
_atom_type_partial_charge
O1    O     O_R   0.449830 0.506740 0.599960 -0.535530
O2    O     O_R   0.550170 0.006740 0.400040 -0.535453
O3    O     O_R   0.588980 0.179860 0.596720 -0.546173
O4    O     O_R   0.411020 0.679860 0.403280 -0.545891
C1    C     C_R   0.616334 0.344547 0.619268 0.664706
C2    C     C_R   0.383634 0.844618 0.380841 0.665163
O5    O     O_R   0.452740 0.177340 0.612040 -0.539277
O6    O     O_R   0.547260 0.677340 0.387960 -0.538824
O7    O     O_R   0.412960 0.002070 0.415460 -0.541651
O8    O     O_R   0.587040 0.502070 0.584540 -0.541554
C3    C     C_R   0.436881 0.345995 0.639090 0.704509
C4    C     C_R   0.563102 0.845594 0.360865 0.705086
O9    O     O_3   0.487110 0.337570 0.435490 -0.372281
O10   O     O_3   0.512890 0.837570 0.564510 -0.372908
V1    V     V_3+5 0.502390 0.064650 0.511970 1.402522
V2    V     V_3+5 0.497610 0.564650 0.488030 1.404157
C5    C     C_R   0.606549 0.846778 0.103994 0.213658
C6    C     C_R   0.393364 0.375351 0.895505 0.213973
H1    H     H_    0.513692 0.840006 0.157882 0.101043
H2    H     H_    0.486263 0.371284 0.841639 0.104520
H3    H     H_    0.692492 0.843910 0.978096 0.153503
H4    H     H_    0.307546 0.378112 0.021556 0.152294
C7    C     C_R   0.602217 0.852498 0.282354 -0.062520
C8    C     C_R   0.397681 0.354933 0.717439 -0.062817
C9    C     C_R   0.930903 0.866520 0.318138 -0.169968
C10   C     C_R   0.068964 0.352105 0.681899 -0.170435
C11   C     C_R   0.895226 0.866652 0.394597 -0.125563
C12   C     C_R   0.104610 0.346455 0.605437 -0.125285
C13   C     C_R   0.824111 0.863349 0.369986 -0.159934
C14   C     C_R   0.175739 0.348436 0.629955 -0.160276
C15   C     C_R   0.786387 0.859230 0.266836 0.092846
C16   C     C_R   0.213509 0.355580 0.733027 0.092559
C17   C     C_R   0.823473 0.857398 0.188881 0.070191
C18   C     C_R   0.176469 0.360820 0.810992 0.071437
C19   C     C_R   0.713335 0.856900 0.238633 0.029173
C20   C     C_R   0.286558 0.358622 0.761136 0.029602
C21   C     C_R   0.678869 0.851375 0.133261 0.120819
C22   C     C_R   0.321052 0.369204 0.866374 0.121856
C23   C     C_R   0.717074 0.848891 0.058681 -0.179824
C24   C     C_R   0.282909 0.372359 0.941010 -0.184131
C25   C     C_R   0.787832 0.852297 0.085861 -0.212168
C26   C     C_R   0.212158 0.367872 0.913945 -0.210271
C27   C     C_R   0.673275 0.858934 0.311782 -0.225068
C28   C     C_R   0.326595 0.351150 0.688053 -0.224662
C29   C     C_R   0.568981 0.845657 0.179361 -0.202555
C30   C     C_R   0.430952 0.367319 0.820250 -0.206776
C31   C     C_R   0.895818 0.861668 0.215665 -0.074364
C32   C     C_R   0.104113 0.359391 0.784290 -0.074587
H5    H     H_    0.695415 0.863300 0.392678 0.096396
H6    H     H_    0.304436 0.341323 0.607305 0.096121
H7    H     H_    0.986210 0.870791 0.338897 0.097853
H8    H     H_    0.013635 0.351230 0.661193 0.097858
H9    H     H_    0.800591 0.864220 0.433890 0.101589
H10   H     H_    0.199233 0.345053 0.566040 0.101484
H11   H     H_    0.922917 0.870207 0.473852 0.117369
H12   H     H_    0.076877 0.341122 0.526234 0.117273
H13   H     H_    0.814473 0.850327 0.024833 0.114511
H14   H     H_    0.185548 0.370416 0.974997 0.113437
C33   C     C_3   0.240069 0.762072 0.132432 0.078025
C34   C     C_3   0.760154 0.259845 0.867263 0.078241
H15   H     H_    0.223554 0.613490 0.114723 0.090550
H16   H     H_    0.777101 0.111269 0.884241 0.091463
C35   C     C_3   0.312950 0.759074 0.205386 -0.314479
C36   C     C_3   0.687284 0.256663 0.794263 -0.313188
H17   H     H_    0.350330 0.833932 0.170439 0.141522
H18   H     H_    0.649683 0.329875 0.829674 0.142710
H19   H     H_    0.330702 0.610410 0.217115 0.114386
H20   H     H_    0.669986 0.107829 0.781619 0.113135
H21   H     H_    0.170609 0.601617 0.266346 0.143233
H22   H     H_    0.829951 0.103492 0.732359 0.142760
H23   H     H_    0.277246 0.594973 0.372557 0.140709
H24   H     H_    0.723334 0.096887 0.626024 0.139894
C37   C     C_3   0.188318 0.748554 0.285537 -0.394960
C38   C     C_3   0.811879 0.250451 0.714025 -0.394654
C39   C     C_3   0.214863 0.062578 0.218645 -0.283717
C40   C     C_3   0.784553 0.562603 0.782794 -0.284519
C41   C     C_3   0.188247 0.859825 0.186340 0.117884
C42   C     C_3   0.811699 0.359807 0.813875 0.117748
H25   H     H_    0.179738 0.134271 0.259265 0.124498
H26   H     H_    0.819446 0.635812 0.742524 0.125402
H27   H     H_    0.215761 0.148707 0.149993 0.163150
H28   H     H_    0.783488 0.647330 0.851960 0.161135
C43   C     C_3   0.312831 0.851664 0.309914 0.087530
C44   C     C_3   0.687119 0.351481 0.690289 0.087483
C45   C     C_3   0.260804 0.744107 0.357547 -0.333747
C46   C     C_3   0.739404 0.246016 0.641984 -0.334198
C47   C     C_3   0.287208 0.057658 0.289351 -0.317986
C48   C     C_3   0.712198 0.557583 0.712145 -0.317584
H29   H     H_    0.322715 0.138218 0.253315 0.148287
H30   H     H_    0.676491 0.636560 0.748732 0.147259
H31   H     H_    0.286359 0.129022 0.362678 0.131633
H32   H     H_    0.712823 0.630576 0.639276 0.132523
H33   H     H_    0.151972 0.814677 0.325946 0.137602
H34   H     H_    0.848058 0.318019 0.673990 0.137541
H35   H     H_    0.259162 0.808531 0.432275 0.138845
H36   H     H_    0.740880 0.312059 0.567666 0.139013
O11   O     O_R   0.912980 0.203550 0.915410 -0.544369
O12   O     O_R   0.087020 0.703550 0.084590 -0.544495
O13   O     O_R   0.047270 0.535570 0.887960 -0.540692
O14   O     O_R   0.952730 0.035570 0.112040 -0.540666
C49   C     C_R   0.064082 0.368054 0.861918 0.690131
C50   C     C_R   0.935844 0.868466 0.138005 0.689514
O15   O     O_R   0.911030 0.532970 0.903270 -0.544362
O16   O     O_R   0.088970 0.032970 0.096730 -0.543987
O17   O     O_R   0.949820 0.708150 0.099970 -0.534145
O18   O     O_R   0.050180 0.208150 0.900030 -0.533821
C51   C     C_R   0.883591 0.365267 0.882374 0.649763
C52   C     C_R   0.116381 0.865206 0.117730 0.650706
O19   O     O_3   0.012900 0.375230 0.064480 -0.373048
O20   O     O_3   0.987100 0.875230 0.935520 -0.373072
V3    V     V_3+5 0.997610 0.648190 0.988040 1.392426
V4    V     V_3+5 0.002390 0.148190 0.011960 1.393308
N1    N     N_3   0.241985 0.857416 0.036504 -0.664950
H37   H     H_    0.194867 0.839195 0.984800 0.222532
H38   H     H_    0.277411 0.787728 0.003810 0.234996
N2    N     N_3   0.757873 0.353266 0.963688 -0.664919
H39   H     H_    0.805304 0.337540 0.014935 0.222330
H40   H     H_    0.723344 0.280317 0.996552 0.235647
N3    N     N_3   0.571537 0.841654 0.997858 -0.686538
H41   H     H_    0.576369 0.974971 0.967371 0.217374
H42   H     H_    0.519273 0.818915 0.989854 0.232888
N4    N     N_3   0.428360 0.389731 0.001397 -0.684885
H43   H     H_    0.420111 0.525896 0.025758 0.213354
H44   H     H_    0.481092 0.375732 0.010106 0.237090

loop_
_geom_bond_atom_site_label_1
_geom_bond_atom_site_label_2
_ccdc_geom_bond_type
C43   C47   S    
C35   H17   S    
C7    C29   A    
C47   H31   S    
C11   C13   A    
C38   H34   S    
O1    C3    A    
C37   H33   S    
O2    C4    A    
C33   C41   S    
C2    O7    A    
C12   H12   S    
C7    C27   A    
C23   C25   A    
O18   V4    S    
O5    C3    A    
C14   H10   S    
C4    C7    S    
C34   C42   S    
C13   H9    S    
C16   C20   A    
O15   V3    S    
C19   C21   A    
C40   C42   S    
O19   V3    S    
C11   H11   S    
C3    C8    S    
O12   C52   A    
N2    H39   S    
C50   O17   A    
C34   H16   S    
O20   V3    S    
C36   C44   S    
H23   C45   S    
C48   H32   S    
C18   C26   A    
H22   C38   S    
C15   C17   A    
H21   C37   S    
O12   V3    S    
C19   C27   A    
C9    C31   A    
C10   C32   A    
C24   C26   A    
O17   V3    S    
H4    C24   S    
O6    V2    S    
C31   C50   S    
C26   H14   S    
C6    C30   A    
N3    H42   S    
C35   H19   S    
C33   H15   S    
C44   C48   S    
O4    C2    A    
O19   V4    S    
C40   H28   S    
O16   V4    S    
O11   V4    S    
C27   H5    S    
O5    V1    S    
C35   C43   S    
C42   C51   S    
C36   H18   S    
O4    V2    S    
C9    H7    S    
C10   H8    S    
H3    C23   S    
O6    C4    A    
O13   V3    S    
O14   C50   A    
O1    V2    S    
C5    C21   A    
C38   C46   S    
O2    V1    S    
C39   C41   S    
C37   C45   S    
C46   H36   S    
C6    N4    S    
C39   C47   S    
C43   C45   S    
C48   H30   S    
O14   V4    S    
C47   H29   S    
C17   C31   A    
C15   C19   A    
C20   C28   A    
C18   C32   A    
N4    H44   S    
C36   H20   S    
O16   C52   A    
O3    V1    S    
N1    H37   S    
C28   H6    S    
C49   O18   A    
C1    C44   S    
C40   C48   S    
C2    C43   S    
O13   C49   A    
C10   C12   A    
C41   C52   S    
C39   H27   S    
C40   H26   S    
C5    C29   A    
C33   N1    S    
O3    C1    A    
H24   C46   S    
N3    H41   S    
H1    C29   S    
C9    C11   A    
C33   C35   S    
C34   C36   S    
C8    C30   A    
C20   C22   A    
C6    C22   A    
C17   C25   A    
C1    O8    A    
C13   C15   A    
O8    V2    S    
C14   C16   A    
C45   H35   S    
C22   C24   A    
C8    C28   A    
C32   C49   S    
C12   C14   A    
N2    H40   S    
O7    V1    S    
O20   V4    S    
C34   N2    S    
C5    N3    S    
C25   H13   S    
O11   C51   A    
C21   C23   A    
C38   C42   S    
O9    V2    S    
C37   C41   S    
O10   V1    S    
C44   C46   S    
O15   C51   A    
N4    H43   S    
C39   H25   S    
H2    C30   S    
C16   C18   A    
N1    H38   S    
