data_mof_unit_67177.cif
_audit_creation_date              2013-03-05T15:59:00-0500
_audit_creation_method            fapswitch 2.2
_symmetry_space_group_name_H-M    P1
_symmetry_Int_Tables_number       1
_space_group_crystal_system       triclinic
_cell_length_a                    8.268041
_cell_length_b                    12.955751
_cell_length_c                    14.940053
_cell_angle_alpha                 96.390317
_cell_angle_beta                  97.454973
_cell_angle_gamma                 99.68198
_cell_volume                      1549.65323324

loop_
_atom_site_label
_atom_site_type_symbol
_atom_site_description
_atom_site_fract_x
_atom_site_fract_y
_atom_site_fract_z
_atom_type_partial_charge
P1    P     P_3+3 0.998730 0.403530 0.291970 0.566119
O1    O     O_2   0.827880 0.435260 0.277750 -0.418873
O2    O     O_3   0.100280 0.438960 0.391170 -0.298947
O3    O     O_3   0.625580 0.634130 0.333250 -0.407541
O4    O     O_2   0.724031 0.574903 0.176482 -0.396148
O5    O     O_3   0.959466 0.265523 0.290642 -0.454354
O6    O     O_3   0.618544 0.756048 0.190792 -0.518412
H1    H     H_    0.698380 0.842577 0.317661 0.138527
C1    C     C_3   0.535855 0.922630 0.236817 -0.831429
H2    H     H_    0.587873 0.990217 0.290645 0.206325
H3    H     H_    0.580234 0.940395 0.172419 0.267008
P2    P     P_3+3 0.687380 0.751030 0.571310 0.554810
P3    P     P_3+3 0.109020 0.824772 0.371726 0.500561
O7    O     O_2   0.857130 0.766340 0.543890 -0.354820
O8    O     O_3   0.056550 0.691050 0.379010 -0.411798
O9    O     O_2   0.980669 0.878331 0.417144 -0.370720
O10   O     O_3   0.727896 0.777359 0.690337 -0.428910
O11   O     O_3   0.072631 0.839966 0.255540 -0.442724
C2    C     C_3   0.093249 0.746916 0.202877 0.216296
H4    H     H_    0.012345 0.676931 0.219798 0.103672
H5    H     H_    0.223376 0.735214 0.215385 0.021004
C3    C     C_3   0.039806 0.748971 0.101212 0.288583
H6    H     H_    0.010789 0.667119 0.065775 -0.016159
H7    H     H_    0.922321 0.778791 0.090286 0.141553
C4    C     C_3   0.256734 0.781217 0.654445 0.312565
H8    H     H_    0.384177 0.783255 0.639355 0.118982
H9    H     H_    0.165616 0.741059 0.594472 0.115258
C5    C     C_3   0.225387 0.892865 0.672876 -0.599203
H10   H     H_    0.324064 0.941601 0.724592 0.260043
H11   H     H_    0.218896 0.929200 0.609067 0.220746
H12   H     H_    0.107652 0.890300 0.701090 0.309929
Ba1   Ba    Ba6+2 0.843750 0.550210 0.455600 1.636788
C6    C     C_3   0.806138 0.214870 0.239598 0.174592
H13   H     H_    0.719282 0.266402 0.220384 0.025788
H14   H     H_    0.742854 0.160649 0.281791 0.107019
C7    C     C_3   0.833112 0.151567 0.153224 0.101517
H15   H     H_    0.710751 0.115640 0.112085 0.018176
H16   H     H_    0.904306 0.203433 0.112044 0.124726
C8    C     C_3   0.785090 0.692970 0.726956 0.448403
H17   H     H_    0.909469 0.688998 0.709070 0.067435
H18   H     H_    0.698998 0.616622 0.702479 0.091182
C9    C     C_3   0.797273 0.712915 0.830162 -0.776055
H19   H     H_    0.860076 0.795308 0.855997 0.326195
H20   H     H_    0.868845 0.659023 0.863180 0.187595
H21   H     H_    0.671386 0.699752 0.849672 0.242085
P4    P     P_3+3 0.190990 0.596560 0.708040 0.474236
O12   O     O_2   0.361830 0.564780 0.722310 -0.367404
O13   O     O_3   0.089430 0.561130 0.608830 -0.430177
O14   O     O_3   0.564130 0.365960 0.666760 -0.368644
O15   O     O_3   0.241668 0.734183 0.733472 -0.514981
P5    P     P_3+3 0.087364 0.172975 0.621636 0.568126
O16   O     O_3   0.601940 0.368240 0.453770 -0.382870
O17   O     O_3   0.133170 0.309040 0.621000 -0.386926
O18   O     O_2   0.228744 0.125482 0.583887 -0.376367
O19   O     O_3   0.103844 0.151354 0.736203 -0.446189
Ba2   Ba    Ba6+2 0.346090 0.449880 0.544410 1.632338
P6    P     P_3+3 0.586315 0.625345 0.215031 0.472631
C10   C     C_3   0.585506 0.821656 0.265691 0.544232
H22   H     H_    0.482326 0.782711 0.297871 -0.008677
H23   H     H_    0.399297 0.915205 0.228138 0.274631
O20   O     O_3   0.587780 0.631850 0.546230 -0.424261
C11   C     C_3   0.428736 0.294015 0.269041 0.924840
H24   H     H_    0.536207 0.360071 0.287889 0.058064
C12   C     C_3   0.389503 0.270451 0.165381 0.221380
H25   H     H_    0.421486 0.193173 0.141612 0.134354
H26   H     H_    0.255626 0.267717 0.142170 0.153864
P7    P     P_3+3 0.506813 0.233771 0.423955 0.506523
O21   O     O_2   0.332590 0.233690 0.456160 -0.265708
O22   O     O_3   0.461669 0.203267 0.305393 -0.665007
C13   C     C_3   0.127315 0.249925 0.790974 0.180774
H27   H     H_    0.250469 0.296442 0.787159 0.124222
H28   H     H_    0.031115 0.295071 0.767278 0.001634
C14   C     C_3   0.113585 0.240231 0.890853 0.989042
H29   H     H_    0.175672 0.315885 0.932348 -0.087649
P8    P     P_3+3 0.608743 0.381449 0.785240 0.432135
C15   C     C_3   0.609001 0.181665 0.783154 0.257793
H30   H     H_    0.739238 0.209577 0.773356 0.094106
O23   O     O_2   0.497525 0.454763 0.822462 -0.420188
O24   O     O_3   0.534614 0.261901 0.821815 -0.543346
H31   H     H_    0.534846 0.146977 0.715855 0.115952
C16   C     C_3   0.604760 0.098487 0.847825 0.098021
H32   H     H_    0.475641 0.071556 0.855627 0.158538
H33   H     H_    0.675771 0.131345 0.916110 0.169542
C17   C     C_R   0.827053 0.438629 0.830663 0.190113
C18   C     C_R   0.895975 0.445512 0.923322 -0.016230
C19   C     C_R   0.040929 0.451795 0.108541 -0.108943
C20   C     C_R   0.874248 0.405780 0.077020 -0.101814
C21   C     C_R   0.802635 0.404044 0.987284 -0.044851
C22   C     C_R   0.112051 0.459879 0.201940 0.231446
H34   H     H_    0.794529 0.371433 0.120875 0.182085
H35   H     H_    0.672860 0.369019 0.969143 0.210533
C23   C     C_R   0.275093 0.513990 0.229408 -0.456422
C24   C     C_R   0.086489 0.532637 0.796280 0.249632
C25   C     C_R   0.159623 0.539276 0.889253 -0.064937
C26   C     C_R   0.064695 0.492977 0.952330 -0.007744
C27   C     C_R   0.324753 0.588804 0.921242 0.021770
C28   C     C_R   0.399710 0.584263 0.009561 -0.051204
C29   C     C_R   0.306671 0.542691 0.073836 0.030145
C30   C     C_R   0.137941 0.495057 0.044888 0.021724
C31   C     C_R   0.374303 0.552845 0.167182 0.253126
C32   C     C_R   0.924201 0.478895 0.768603 -0.546605
H36   H     H_    0.529019 0.620873 0.028389 0.155998
H37   H     H_    0.399509 0.631761 0.878854 0.172249
H38   H     H_    0.326951 0.524704 0.300841 0.192949
H39   H     H_    0.869656 0.472510 0.697884 0.177518
C33   C     C_R   0.781890 0.177568 0.518640 -0.521434
C34   C     C_R   0.419034 0.811842 0.467673 -0.584721
C35   C     C_R   0.388260 0.985840 0.432019 -0.151823
C36   C     C_R   0.322606 0.878982 0.428791 0.219008
C37   C     C_R   0.581124 0.849632 0.512995 0.352178
C38   C     C_R   0.650471 0.960257 0.516159 -0.210651
C39   C     C_R   0.551588 0.028424 0.474641 -0.138050
C40   C     C_R   0.618631 0.137999 0.477802 0.206827
C41   C     C_R   0.878878 0.113036 0.559532 0.101743
C42   C     C_R   0.812584 0.006773 0.561069 0.757127
H40   H     H_    0.310371 0.034498 0.399838 0.201835
H41   H     H_    0.833639 0.260296 0.519663 0.196844
H42   H     H_    0.365675 0.729010 0.464105 0.168464
S1    S     S_3+6 0.942813 0.049453 0.179074 0.070886
O25   O     O_2   0.125169 0.093420 0.201437 -0.185141
O26   O     O_2   0.888627 0.000600 0.259201 -0.288254
O27   O     O_3   0.903810 0.958941 0.085867 -0.421656
H43   H     H_    0.782064 0.934588 0.075344 0.315741
F1    F     F_    0.295154 0.323990 0.302618 -0.679371
F2    F     F_    0.479748 0.347883 0.125717 -0.725537
S2    S     S_3+6 0.196809 0.821195 0.048225 -0.026909
O28   O     O_2   0.356970 0.783557 0.069011 -0.356679
O29   O     O_2   0.143978 0.803345 0.946981 -0.301862
O30   O     O_3   0.229985 0.950610 0.085765 -0.390092
H44   H     H_    0.335393 0.980357 0.065471 0.356860
F3    F     F_    0.949916 0.223055 0.903189 -0.755848
S3    S     S_3+6 0.208046 0.140809 0.936595 0.010985
O31   O     O_2   0.387898 0.185001 0.970459 -0.383350
O32   O     O_2   0.122547 0.112214 0.015106 -0.209603
O33   O     O_3   0.187089 0.032043 0.860548 -0.475576
H45   H     H_    0.231547 0.979744 0.895457 0.393855
S4    S     S_3+6 0.672206 0.983288 0.805341 -0.014094
O34   O     O_2   0.617018 0.961256 0.704728 -0.335158
O35   O     O_2   0.857234 0.996601 0.825190 -0.131509
O36   O     O_3   0.582971 0.882301 0.854427 -0.507504
H46   H     H_    0.609837 0.906473 0.920770 0.336671
F4    F     F_    0.903710 0.953587 0.613628 -0.650715

loop_
_geom_bond_atom_site_label_1
_geom_bond_atom_site_label_2
_geom_bond_distance
_ccdc_geom_bond_type
C20   C21   1.389707 A    
C14   F3    1.373780 S    
S2    O28   1.493979 D    
P1    C22   1.880296 S    
C34   C36   1.398310 A    
C14   H29   1.105198 S    
C2    H4    1.106518 S    
C15   O24   1.402169 S    
P2    C37   1.894569 S    
C28   C29   1.404068 A    
O33   H45   0.989403 S    
C8    H18   1.110819 S    
C4    C5    1.513690 S    
C16   S4    1.761334 S    
S4    O35   1.496719 D    
C24   C25   1.428410 A    
P3    O11   1.761484 S    
C33   C41   1.388293 A    
C5    H10   1.102648 S    
C2    H5    1.106558 S    
Ba1   O20   2.934090 S    
O11   C2    1.412157 S    
C26   C30   1.431295 A    
P8    C17   1.840595 S    
C3    S2    1.791736 S    
C6    C7    1.512678 S    
C35   C36   1.392545 A    
O1    Ba1   2.873704 S    
P1    O1    1.531809 D    
O10   C8    1.399361 S    
C7    S1    1.774413 S    
C4    O15   1.397713 S    
Ba1   O16   2.818167 S    
C11   C12   1.525760 S    
H1    C10   1.107836 S    
C37   C38   1.444509 A    
C38   C39   1.437474 A    
S3    O31   1.499649 D    
P2    O10   1.750083 S    
P3    C36   1.843235 S    
O14   P8    1.742461 S    
C13   H27   1.104335 S    
C1    H2    1.106916 S    
C34   H42   1.082157 S    
C28   H36   1.081124 S    
C20   H34   1.067731 S    
O17   Ba2   2.764953 S    
C42   F4    1.341869 S    
P2    Ba1   3.484165 S    
C17   C32   1.391743 A    
Ba1   O13   2.830449 S    
O2    Ba1   2.958354 S    
C9    H20   1.104948 S    
C11   F1    1.366371 S    
C39   C40   1.427740 A    
C16   H33   1.109291 S    
C41   C42   1.397422 A    
C8    C9    1.522049 S    
S1    O26   1.498937 D    
C32   H39   1.082073 S    
S4    O36   1.680250 S    
P4    O13   1.583875 S    
P5    C41   1.846524 S    
C33   C40   1.393203 A    
P7    O21   1.576691 D    
O8    Ba1   2.764379 S    
C2    C3    1.530274 S    
C15   H30   1.110595 S    
C24   C32   1.390646 A    
C8    H17   1.103471 S    
C19   C20   1.403261 A    
S2    O30   1.672443 S    
C4    H8    1.102469 S    
Ba2   O21   2.937766 S    
P6    C31   1.854071 S    
P1    Ba1   3.439086 S    
C16   H32   1.091361 S    
P1    O5    1.760076 S    
C11   O22   1.401009 S    
P1    O2    1.583721 S    
C9    H21   1.107925 S    
C12   H26   1.109596 S    
O3    P6    1.741217 S    
C11   H24   1.107665 S    
O2    Ba2   2.831205 S    
C21   H35   1.078918 S    
C27   C28   1.394969 A    
C13   C14   1.528455 S    
C6    H13   1.092844 S    
C17   C18   1.414143 A    
C22   C23   1.397000 A    
C25   C27   1.404261 A    
C19   C30   1.423818 A    
C1    H3    1.107148 S    
O3    Ba1   2.832607 S    
O16   P7    1.768490 S    
S3    O32   1.495533 D    
P2    O7    1.500207 D    
C12   F2    1.381867 S    
C29   C31   1.416658 A    
P3    O8    1.732888 S    
C33   H41   1.082797 S    
C34   C37   1.401524 A    
C3    H7    1.103897 S    
C27   H37   1.075698 S    
C9    H19   1.108119 S    
C23   C31   1.397752 A    
O30   H44   0.990755 S    
C18   C21   1.401275 A    
P7    O22   1.748171 S    
O13   Ba2   2.959204 S    
P4    O12   1.532052 D    
C1    C10   1.525212 S    
S2    O29   1.499638 D    
O6    C10   1.412430 S    
C3    H6    1.104039 S    
S1    O27   1.676602 S    
C5    H12   1.106836 S    
C15   H31   1.111564 S    
O7    Ba1   2.937450 S    
C19   C22   1.427478 A    
C15   C16   1.524430 S    
C38   C42   1.419456 A    
S1    O25   1.499120 D    
C4    H9    1.109184 S    
O14   Ba2   2.831944 S    
S4    O34   1.493940 D    
P4    O15   1.748042 S    
O5    C6    1.406136 S    
O4    P6    1.546592 D    
P5    O18   1.548814 D    
C12   H25   1.110269 S    
C1    H23   1.106142 S    
C5    H11   1.108322 S    
C10   H22   1.108671 S    
P2    O20   1.601916 S    
C18   C26   1.416758 A    
C35   H40   1.080257 S    
P4    C24   1.862329 S    
S3    O33   1.678371 S    
O36   H46   0.990053 S    
C7    H16   1.108819 S    
C6    H14   1.106862 S    
Ba1   Ba2   4.514669 S    
P5    O19   1.756646 S    
P7    C40   1.859179 S    
C25   C26   1.422425 A    
P8    O23   1.538154 D    
C14   S3    1.769742 S    
O19   C13   1.407461 S    
C23   H38   1.081807 S    
C35   C39   1.407660 A    
C7    H15   1.111075 S    
C29   C30   1.417235 A    
P3    O9    1.548496 D    
P4    Ba2   3.439640 S    
Ba2   O20   2.817631 S    
C13   H28   1.108861 S    
P5    O17   1.741022 S    
O27   H43   0.989234 S    
P8    O24   1.740444 S    
O6    P6    1.754813 S    
O16   Ba2   2.933333 S    
O12   Ba2   2.874258 S    
