data_mof_unit_64103.cif
_audit_creation_date              2012-10-26T20:23:15-0400
_audit_creation_method            fapswitch 2.2
_symmetry_space_group_name_H-M    P1
_symmetry_Int_Tables_number       1
_space_group_crystal_system       triclinic
_cell_length_a                    10.651945
_cell_length_b                    12.761645
_cell_length_c                    13.900449
_cell_angle_alpha                 97.882142
_cell_angle_beta                  90.303612
_cell_angle_gamma                 93.216062
_cell_volume                      1868.61484471

loop_
_atom_site_label
_atom_site_type_symbol
_atom_type_description
_atom_site_fract_x
_atom_site_fract_y
_atom_site_fract_z
_atom_type_partial_charge
Br1   Br    Br    0.886213 0.370505 0.296291 -0.475209
Br2   Br    Br    0.113787 0.629495 0.703709 -0.475209
C1    C     C_R   0.498904 0.483605 0.315852 0.560070
C2    C     C_3   0.965467 0.600808 0.509160 -0.114850
C3    C     C_3   0.954653 0.446978 0.416837 0.159540
C4    C     C_3   0.045347 0.553022 0.583163 0.159540
C5    C     C_3   0.877545 0.500014 0.500214 0.015170
C6    C     C_3   0.122455 0.499986 0.499786 0.015170
C7    C     C_3   0.955685 0.452940 0.575097 -0.132469
C8    C     C_3   0.044315 0.547060 0.424903 -0.132469
C9    C     C_1   0.500929 0.525730 0.787469 0.026101
C10   C     C_1   0.499071 0.474270 0.212530 0.026101
C11   C     C_2   0.500386 0.543441 0.978331 -0.102757
C12   C     C_R   0.501096 0.516395 0.684148 0.560070
C13   C     C_2   0.499614 0.456559 0.021669 -0.102757
C14   C     C_1   0.499301 0.465724 0.125480 -0.014847
C15   C     C_1   0.500699 0.534276 0.874520 -0.014847
C16   C     C_2   0.464270 0.028246 0.473465 -0.149413
C17   C     C_2   0.535730 0.971754 0.526535 -0.149413
C18   C     C_1   0.525637 0.854579 0.519133 0.162222
C19   C     C_1   0.474363 0.145421 0.480867 0.162222
C20   C     C_R   0.258951 0.500167 0.499793 0.575963
C21   C     C_R   0.741049 0.499833 0.500206 0.575963
C22   C     C_3   0.034533 0.399192 0.490840 -0.114850
Cu1   Cu    Cu3+1 0.491940 0.395330 0.493960 1.041771
Cu2   Cu    Cu3+1 0.508060 0.604670 0.506040 1.041771
H1    H     H_    0.064755 0.316620 0.482642 0.156772
H2    H     H_    0.935245 0.683380 0.517358 0.156772
H3    H     H_    0.499223 0.378252 0.979499 0.148574
H4    H     H_    0.500777 0.621747 0.020501 0.148574
H5    H     H_    0.916930 0.415121 0.636741 0.144725
H6    H     H_    0.083070 0.584879 0.363259 0.144725
H7    H     H_    0.604640 0.013994 0.577617 0.136147
H8    H     H_    0.395360 0.986006 0.422383 0.136147
N1    N     N_1   0.479830 0.238040 0.484880 -0.179473
N2    N     N_1   0.520170 0.761960 0.515120 -0.179474
O1    O     O_R   0.492210 0.399110 0.356330 -0.476189
O2    O     O_R   0.507790 0.600890 0.643670 -0.476189
O3    O     O_R   0.505820 0.575890 0.366540 -0.500462
O4    O     O_R   0.494180 0.424110 0.633460 -0.500462
O5    O     O_R   0.310050 0.411620 0.494870 -0.504516
O6    O     O_R   0.689950 0.588380 0.505130 -0.504516
O7    O     O_R   0.323660 0.588400 0.505080 -0.476869
O8    O     O_R   0.676340 0.411600 0.494920 -0.476870

loop_
_geom_bond_atom_site_label_1
_geom_bond_atom_site_label_2
_ccdc_geom_bond_type
C6    C20   S    
C7    C22   S    
C19   N1    T    
C12   O2    A    
C16   C19   S    
C20   O7    A    
C22   H1    S    
C11   C15   S    
Cu1   O1    S    
C4    C7    S    
C3    C22   S    
C1    O3    A    
C3    C8    S    
C16   H8    S    
Cu2   O6    S    
Br2   C4    S    
C21   O6    A    
Cu1   N1    S    
C2    C5    S    
C5    C21   S    
Cu1   O8    S    
Cu2   N2    S    
C6    C22   S    
Cu2   O7    S    
C13   H3    S    
C5    C7    S    
C11   C13   D    
Cu1   O4    S    
C10   C14   T    
C9    C12   S    
Br1   C3    S    
Cu2   O3    S    
C20   O5    A    
C7    H5    S    
C2    C8    S    
C13   C14   S    
C18   N2    T    
C8    H6    S    
C11   H4    S    
C1    O1    A    
C2    C4    S    
C16   C17   D    
C17   H7    S    
Cu1   O5    S    
C3    C5    S    
C9    C15   T    
C4    C6    S    
C1    C10   S    
C2    H2    S    
Cu1   Cu2   S    
C12   O4    A    
C6    C8    S    
Cu2   O2    S    
C21   O8    A    
C17   C18   S    
