data_mof_unit_45415.cif
_audit_creation_date              2012-12-10T17:38:20-0500
_audit_creation_method            fapswitch 2.2
_symmetry_space_group_name_H-M    P1
_symmetry_Int_Tables_number       1
_space_group_crystal_system       triclinic
_cell_length_a                    12.317007
_cell_length_b                    13.180882
_cell_length_c                    19.346022
_cell_angle_alpha                 77.701436
_cell_angle_beta                  101.263981
_cell_angle_gamma                 116.556455
_cell_volume                      2726.89673589

loop_
_atom_site_label
_atom_site_type_symbol
_atom_type_description
_atom_site_fract_x
_atom_site_fract_y
_atom_site_fract_z
_atom_type_partial_charge
C1    C     C_R   0.854859 0.286569 0.506111 0.778637
C2    C     C_R   0.998275 0.498501 0.708404 -0.031864
C3    C     C_R   0.998310 0.497262 0.070278 0.410890
C4    C     C_R   0.997171 0.496545 0.930043 0.410945
C5    C     C_R   0.089770 0.479863 0.197003 -0.159926
C6    C     C_R   0.090349 0.480620 0.268995 -0.187779
C7    C     C_R   0.000266 0.499530 0.291687 -0.029670
C8    C     C_R   0.909701 0.517747 0.241161 -0.192033
C9    C     C_R   0.909092 0.516948 0.169239 -0.157658
C10   C     C_R   0.999078 0.497980 0.146420 0.057869
C11   C     C_R   0.275060 0.021434 0.405462 -0.187483
C12   C     C_R   0.999403 0.499510 0.632412 0.782740
C13   C     C_R   0.227923 0.834511 0.474982 -0.050859
C14   C     C_R   0.815649 0.085208 0.552230 -0.187018
C15   C     C_R   0.736968 0.970295 0.566069 -0.142464
C16   C     C_R   0.613515 0.932604 0.541215 -0.180799
C17   C     C_R   0.566525 0.009404 0.499162 0.079559
C18   C     C_R   0.649886 0.123840 0.478146 0.081931
C19   C     C_R   0.439780 0.976114 0.476570 0.073528
C20   C     C_R   0.399861 0.053369 0.428184 0.165420
C21   C     C_R   0.485016 0.160513 0.401607 -0.237644
C22   C     C_R   0.608240 0.194639 0.425274 -0.196106
C23   C     C_R   0.145088 0.713414 0.489616 0.803856
C24   C     C_R   0.351074 0.868449 0.501093 -0.250825
C25   C     C_R   0.189394 0.912057 0.428371 -0.193360
C26   C     C_R   0.773023 0.163582 0.509990 -0.103813
C27   C     C_R   0.346713 0.328545 0.613229 -0.298343
C28   C     C_R   0.759547 0.645482 0.404064 0.071601
C29   C     C_R   0.663038 0.677260 0.383240 -0.253158
C30   C     C_R   0.559561 0.622402 0.419300 -0.193683
C31   C     C_R   0.551415 0.534575 0.477098 -0.006861
C32   C     C_R   0.653021 0.505226 0.496671 0.288689
C33   C     C_R   0.447020 0.475135 0.516277 -0.037276
C34   C     C_R   0.000289 0.500060 0.367605 0.778134
C35   C     C_R   0.446802 0.388147 0.573860 0.176828
C36   C     C_R   0.546559 0.361188 0.592126 -0.283083
C37   C     C_R   0.647300 0.418559 0.554610 -0.190696
C38   C     C_R   0.342010 0.497786 0.501213 0.016274
C39   C     C_R   0.246778 0.355136 0.595781 0.068897
C40   C     C_R   0.088627 0.480098 0.759015 -0.186689
C41   C     C_R   0.088050 0.479263 0.831019 -0.158579
C42   C     C_R   0.997051 0.496732 0.853849 0.057189
C43   C     C_R   0.906372 0.514744 0.803201 -0.158079
C44   C     C_R   0.906971 0.515612 0.731114 -0.193197
Cu1   Cu    Cu3+1 0.098280 0.475420 0.516260 0.934546
Cu2   Cu    Cu3+1 0.901720 0.524580 0.483740 0.922601
H1    H     H_    0.160133 0.466521 0.743091 0.152238
H2    H     H_    0.456303 0.218377 0.362237 0.146546
H3    H     H_    0.244160 0.079978 0.368397 0.135682
H4    H     H_    0.375159 0.808129 0.540176 0.148584
H5    H     H_    0.909715 0.113160 0.576137 0.152434
H6    H     H_    0.558148 0.842315 0.554536 0.130183
H7    H     H_    0.771182 0.910431 0.598197 0.144029
H8    H     H_    0.670192 0.276114 0.399873 0.176009
H9    H     H_    0.169155 0.309516 0.625937 0.121261
H10   H     H_    0.547102 0.294970 0.636262 0.155815
H11   H     H_    0.345899 0.261905 0.657295 0.139427
H12   H     H_    0.159167 0.465080 0.868691 0.153178
H13   H     H_    0.334081 0.562193 0.458395 0.122907
H14   H     H_    0.487687 0.650523 0.400901 0.136636
H15   H     H_    0.834880 0.528312 0.819114 0.152393
H16   H     H_    0.835874 0.529618 0.693281 0.155701
H17   H     H_    0.160444 0.465063 0.181107 0.151323
H18   H     H_    0.161413 0.466465 0.306777 0.150274
H19   H     H_    0.838984 0.532495 0.257086 0.150713
H20   H     H_    0.837975 0.531213 0.131614 0.152923
H21   H     H_    0.094145 0.886721 0.407469 0.148547
N1    N     N_R   0.910140 0.514187 0.952548 -0.243111
N2    N     N_R   0.910705 0.514529 0.021300 -0.242787
N3    N     N_R   0.085272 0.479525 0.047776 -0.243413
N4    N     N_R   0.084711 0.479189 0.979029 -0.242877
N5    N     N_R   0.246290 0.438200 0.540910 -0.179093
N6    N     N_R   0.754310 0.561190 0.459520 -0.205845
O1    O     O_R   0.972510 0.318130 0.520450 -0.577748
O2    O     O_R   0.806530 0.359650 0.492990 -0.602747
O3    O     O_R   0.083010 0.479220 0.613590 -0.583002
O4    O     O_R   0.917030 0.520740 0.586130 -0.598952
O5    O     O_R   0.193470 0.640350 0.507010 -0.585308
O6    O     O_R   0.027490 0.681870 0.479550 -0.584055
O7    O     O_R   0.082970 0.479260 0.413870 -0.583414
O8    O     O_R   0.916990 0.520780 0.386410 -0.595279
H22   H     H_    0.839512 0.688561 0.375787 0.124227
H23   H     H_    0.668454 0.744662 0.338988 0.147511
H24   H     H_    0.718954 0.391936 0.573399 0.207897

loop_
_geom_bond_atom_site_label_1
_geom_bond_atom_site_label_2
_ccdc_geom_bond_type
C40   H1    S    
C41   C42   A    
C35   C36   A    
C25   H21   S    
C2    C12   S    
C7    C8    A    
C22   H8    S    
Cu1   Cu2   S    
C5    C6    A    
C5    H17   S    
Cu1   O3    S    
C36   H10   S    
C1    O1    A    
C15   H7    S    
C28   C29   A    
C3    N2    A    
C41   H12   S    
C29   H23   S    
Cu2   O6    S    
C11   C25   A    
C15   C16   A    
C13   C23   S    
C6    H18   S    
C9    H20   S    
C34   O7    A    
N1    N2    A    
C18   C26   A    
C39   H9    S    
C14   H5    S    
C2    C44   A    
C8    C9    A    
C30   H14   S    
C39   N5    A    
C31   C33   A    
C37   H24   S    
Cu1   O5    S    
C34   O8    A    
C9    C10   A    
C21   H2    S    
C8    H19   S    
C21   C22   A    
Cu1   N5    S    
C13   C25   A    
C28   N6    A    
Cu2   O2    S    
C24   H4    S    
C38   N5    A    
C11   C20   A    
C28   H22   S    
C1    O2    A    
C3    N3    A    
C27   H11   S    
C27   C39   A    
C32   N6    A    
C4    N1    A    
C16   C17   A    
C27   C35   A    
C13   C24   A    
Cu1   O1    S    
C43   C44   A    
C29   C30   A    
C11   H3    S    
Cu2   O8    S    
C31   C32   A    
C12   O4    A    
C17   C18   A    
C32   C37   A    
C14   C26   A    
N3    N4    A    
C40   C41   A    
C12   O3    A    
C1    C26   S    
C7    C34   S    
C42   C43   A    
C17   C19   A    
C43   H15   S    
C36   C37   A    
C18   C22   A    
C16   H6    S    
Cu2   O4    S    
C6    C7    A    
C33   C38   A    
C44   H16   S    
C19   C20   A    
C19   C24   A    
C5    C10   A    
C3    C10   S    
C30   C31   A    
C4    C42   S    
C33   C35   A    
Cu1   O7    S    
Cu2   N6    S    
C23   O5    A    
C38   H13   S    
C2    C40   A    
C20   C21   A    
C14   C15   A    
C23   O6    A    
C4    N4    A    
