data_mof_unit_63314.cif
_audit_creation_date              2012-10-26T20:53:57-0400
_audit_creation_method            fapswitch 2.2
_symmetry_space_group_name_H-M    P1
_symmetry_Int_Tables_number       1
_space_group_crystal_system       triclinic
_cell_length_a                    17.675638
_cell_length_b                    16.459123
_cell_length_c                    10.634912
_cell_angle_alpha                 90.089635
_cell_angle_beta                  90.209572
_cell_angle_gamma                 90.014606
_cell_volume                      3093.94250232

loop_
_atom_site_label
_atom_site_type_symbol
_atom_type_description
_atom_site_fract_x
_atom_site_fract_y
_atom_site_fract_z
_atom_type_partial_charge
Br1   Br    Br    0.716871 0.587557 0.739043 -0.546706
Br2   Br    Br    0.283166 0.412866 0.260602 -0.546703
Br3   Br    Br    0.284331 0.587609 0.738745 -0.509046
Br4   Br    Br    0.715669 0.411954 0.261589 -0.508917
C1    C     C_R   0.355544 0.499997 0.499884 0.608149
C2    C     C_R   0.454149 0.256839 0.418963 0.061742
C3    C     C_R   0.454071 0.742973 0.419081 0.062326
C4    C     C_R   0.545939 0.257026 0.580898 0.062393
C5    C     C_R   0.499967 0.873056 0.500058 0.024162
C6    C     C_R   0.500031 0.126944 0.499937 0.024171
C7    C     C_1   0.499989 0.962707 0.500018 -0.008970
C8    C     C_1   0.500008 0.037293 0.499975 -0.008968
C9    C     C_R   0.499936 0.499874 0.258826 0.588123
C10   C     C_R   0.500067 0.500126 0.741174 0.588115
C11   C     C_3   0.437998 0.538703 0.041607 -0.101514
C12   C     C_R   0.644458 0.500003 0.500115 0.608041
C13   C     C_3   0.562008 0.461297 0.958393 -0.101668
C14   C     C_3   0.500392 0.577299 0.959575 -0.106395
C15   C     C_3   0.499614 0.422701 0.040425 -0.106384
C16   C     C_3   0.437651 0.461961 0.957544 -0.098232
C17   C     C_3   0.562354 0.538038 0.042457 -0.098387
C18   C     C_3   0.500044 0.500475 0.877811 0.037858
C19   C     C_3   0.499961 0.499525 0.122189 0.037864
C20   C     C_R   0.846181 0.537720 0.598015 -0.076245
C21   C     C_R   0.153834 0.462464 0.401788 -0.076247
C22   C     C_R   0.154304 0.537605 0.597993 -0.078834
C23   C     C_1   0.966069 0.499991 0.499995 -0.001480
C24   C     C_R   0.845696 0.462198 0.402144 -0.078859
C25   C     C_R   0.767246 0.537984 0.598711 0.119432
C26   C     C_R   0.232769 0.462199 0.401108 0.119374
C27   C     C_R   0.233242 0.537900 0.598592 0.123162
C28   C     C_R   0.766758 0.461909 0.401550 0.123168
C29   C     C_R   0.727063 0.499990 0.500111 0.039328
C30   C     C_R   0.272942 0.500008 0.499875 0.039395
C31   C     C_R   0.885203 0.499982 0.500040 -0.025968
C32   C     C_R   0.114805 0.500010 0.499926 -0.025982
C33   C     C_1   0.033939 0.499999 0.499961 -0.001487
C34   C     C_R   0.546658 0.828954 0.582534 -0.127298
C35   C     C_R   0.453330 0.171048 0.417483 -0.127316
C36   C     C_R   0.453247 0.828764 0.417626 -0.126225
C37   C     C_R   0.546763 0.171235 0.582350 -0.126196
C38   C     C_R   0.545839 0.743163 0.581056 0.061768
Cu1   Cu    Cu3+1 0.500000 0.580420 0.500000 1.011297
Cu2   Cu    Cu3+1 0.500000 0.419580 0.500000 1.011317
H1    H     H_    0.386642 0.430963 0.919594 0.165746
H2    H     H_    0.876187 0.433308 0.325987 0.161045
H3    H     H_    0.583578 0.860544 0.647772 0.115325
H4    H     H_    0.416400 0.139459 0.352261 0.115285
H5    H     H_    0.416295 0.860210 0.352446 0.110303
H6    H     H_    0.583723 0.139788 0.647514 0.110311
H7    H     H_    0.582110 0.710173 0.645214 0.162837
H8    H     H_    0.417868 0.289830 0.354824 0.162700
H9    H     H_    0.417704 0.709819 0.355046 0.129241
H10   H     H_    0.582314 0.290179 0.644919 0.129230
H11   H     H_    0.613364 0.569036 0.080408 0.165575
H12   H     H_    0.387280 0.570250 0.078888 0.160713
H13   H     H_    0.612726 0.429751 0.921110 0.160540
H14   H     H_    0.500735 0.640610 0.923702 0.148884
H15   H     H_    0.499271 0.359390 0.076298 0.148901
H16   H     H_    0.877050 0.566557 0.674189 0.162297
H17   H     H_    0.122972 0.433774 0.325483 0.162309
H18   H     H_    0.123808 0.566344 0.674272 0.161059
N1    N     N_R   0.500000 0.701220 0.500000 -0.223731
N2    N     N_R   0.500000 0.298780 0.500000 -0.223704
O1    O     O_R   0.391260 0.567930 0.500000 -0.478150
O2    O     O_R   0.608740 0.432070 0.500000 -0.478113
O3    O     O_R   0.608740 0.567930 0.500000 -0.480916
O4    O     O_R   0.391260 0.432070 0.500000 -0.480975
O5    O     O_R   0.499980 0.567900 0.316850 -0.520098
O6    O     O_R   0.500020 0.432100 0.683150 -0.520098
O7    O     O_R   0.500020 0.567900 0.683150 -0.481852
O8    O     O_R   0.499980 0.432100 0.316850 -0.481821

loop_
_geom_bond_atom_site_label_1
_geom_bond_atom_site_label_2
_ccdc_geom_bond_type
C11   C14   S    
C14   C17   S    
C10   O7    A    
Cu2   O2    S    
C15   C16   S    
Cu1   N1    S    
Cu2   N2    S    
C24   H2    S    
C32   C33   S    
C34   C38   A    
C36   H5    S    
C25   C29   A    
C9    C19   S    
C2    N2    A    
C20   C25   A    
C14   H14   S    
C24   C31   A    
C3    C36   A    
Cu2   O6    S    
C16   H1    S    
C20   H16   S    
C38   H7    S    
C11   C19   S    
C22   C27   A    
Cu1   O5    S    
C6    C37   A    
C10   O6    A    
C1    O4    A    
C11   C16   S    
C20   C31   A    
C26   C30   A    
C24   C28   A    
C4    C37   A    
C1    O1    A    
C4    H10   S    
C17   H11   S    
C23   C31   S    
C5    C36   A    
C13   C17   S    
C6    C35   A    
C15   C19   S    
Cu1   Cu2   S    
C12   C29   S    
Cu1   O1    S    
C1    C30   S    
Br1   C25   S    
C27   C30   A    
C12   O3    A    
C21   H17   S    
Br3   C27   S    
C5    C7    S    
C3    N1    A    
C34   H3    S    
Br4   C28   S    
C6    C8    S    
C4    N2    A    
C22   C32   A    
C16   C18   S    
C17   C19   S    
Cu2   O4    S    
C12   O2    A    
C3    H9    S    
C37   H6    S    
C21   C26   A    
Cu1   O7    S    
C14   C18   S    
C7    C8    T    
C9    O8    A    
C13   C18   S    
Br2   C26   S    
C15   H15   S    
C11   H12   S    
C10   C18   S    
C22   H18   S    
C28   C29   A    
C9    O5    A    
C23   C33   T    
C5    C34   A    
C13   C15   S    
Cu2   O8    S    
C21   C32   A    
Cu1   O3    S    
C2    C35   A    
C2    H8    S    
C38   N1    A    
C13   H13   S    
C35   H4    S    
