data_mof_unit_29562.cif
_audit_creation_date              2012-12-10T18:33:46-0500
_audit_creation_method            fapswitch 2.2
_symmetry_space_group_name_H-M    P1
_symmetry_Int_Tables_number       1
_space_group_crystal_system       triclinic
_cell_length_a                    10.500356
_cell_length_b                    15.008405
_cell_length_c                    15.478534
_cell_angle_alpha                 82.422021
_cell_angle_beta                  89.798523
_cell_angle_gamma                 104.515643
_cell_volume                      2339.12833474

loop_
_atom_site_label
_atom_site_type_symbol
_atom_type_description
_atom_site_fract_x
_atom_site_fract_y
_atom_site_fract_z
_atom_type_partial_charge
C1    C     C_R   0.478175 0.441926 0.662145 0.863048
C2    C     C_R   0.402894 0.480865 0.046553 0.070351
C3    C     C_R   0.364592 0.384422 0.077155 -0.231903
C4    C     C_R   0.416439 0.605384 0.926223 -0.234040
C5    C     C_R   0.348030 0.319145 0.019571 -0.237310
C6    C     C_R   0.436294 0.670757 0.983911 -0.238302
C7    C     C_R   0.680436 0.839009 0.645529 -0.285319
C8    C     C_R   0.319322 0.161232 0.354294 -0.285319
C9    C     C_R   0.657667 0.752413 0.617906 -0.001459
C10   C     C_R   0.342680 0.247896 0.381833 -0.000761
C11   C     C_R   0.515905 0.794223 0.509643 0.023825
C12   C     C_R   0.515337 0.557913 0.337868 0.863266
C13   C     C_R   0.483289 0.205454 0.490602 0.024943
C14   C     C_R   0.544315 0.886210 0.529204 0.012765
C15   C     C_R   0.454302 0.113446 0.471057 0.012089
C16   C     C_R   0.742635 0.500919 0.500188 0.862708
C17   C     C_R   0.257380 0.499084 0.499804 0.859333
C18   C     C_R   0.620516 0.905205 0.602994 0.112981
C19   C     C_R   0.378337 0.094665 0.397136 0.114825
C20   C     C_R   0.494073 0.957497 0.481958 -0.046912
C21   C     C_R   0.503990 0.041976 0.518418 -0.046961
C22   C     C_R   0.560934 0.051173 0.601345 0.434159
C23   C     C_R   0.444704 0.472040 0.810945 -0.268256
C24   C     C_R   0.436785 0.948236 0.399115 0.436179
C25   C     C_R   0.628032 0.986727 0.638039 -0.315231
C26   C     C_R   0.370173 0.012948 0.362292 -0.313910
C27   C     C_3   0.932112 0.431691 0.560203 -0.174954
C28   C     C_3   0.067967 0.568319 0.439772 -0.174620
C29   C     C_3   0.047220 0.512548 0.579270 -0.176882
C30   C     C_3   0.952857 0.487463 0.420707 -0.176554
C31   C     C_3   0.121644 0.497874 0.499504 0.026098
C32   C     C_3   0.878414 0.502136 0.500474 0.023671
C33   C     C_3   0.009199 0.416981 0.480427 -0.135907
C34   C     C_R   0.469746 0.524905 0.189143 -0.266320
C35   C     C_3   0.990877 0.583032 0.519549 -0.137795
C36   C     C_R   0.445867 0.407215 0.754357 -0.064353
C37   C     C_R   0.502792 0.591143 0.245984 -0.065344
C38   C     C_R   0.373064 0.282623 0.873607 -0.208553
C39   C     C_R   0.487009 0.711156 0.128742 -0.209843
C40   C     C_R   0.408112 0.312036 0.785533 -0.188659
C41   C     C_R   0.510412 0.684652 0.215884 -0.192020
C42   C     C_R   0.405669 0.444300 0.898524 0.091692
C43   C     C_R   0.438768 0.548885 0.103261 0.092043
C44   C     C_R   0.374296 0.348167 0.930663 0.177070
C45   C     C_R   0.453209 0.644036 0.071873 0.176503
C46   C     C_R   0.407495 0.510512 0.955997 0.068530
H1    H     H_    0.090327 0.522394 0.643802 0.138093
H2    H     H_    0.128026 0.623638 0.390633 0.141038
H3    H     H_    0.020663 0.349355 0.464475 0.146365
H4    H     H_    0.979436 0.650664 0.535497 0.146325
H5    H     H_    0.320443 0.245858 0.045141 0.143517
H6    H     H_    0.443866 0.742927 0.958967 0.146252
H7    H     H_    0.472032 0.454396 0.212299 0.162243
H8    H     H_    0.479581 0.544797 0.786324 0.162593
H9    H     H_    0.534127 0.736885 0.259392 0.191760
H10   H     H_    0.406698 0.260686 0.742268 0.186253
H11   H     H_    0.347173 0.208908 0.897377 0.139191
H12   H     H_    0.909813 0.477598 0.356165 0.138162
H13   H     H_    0.495994 0.783931 0.105715 0.138346
H14   H     H_    0.344300 0.357708 0.145408 0.142485
H15   H     H_    0.405456 0.630497 0.858735 0.149650
H16   H     H_    0.678181 0.996964 0.698469 0.139071
H17   H     H_    0.319982 0.002765 0.301868 0.138202
H18   H     H_    0.586087 0.113929 0.705561 0.329523
H19   H     H_    0.410566 0.885074 0.295143 0.327614
H20   H     H_    0.556447 0.230994 0.535937 0.191776
H21   H     H_    0.442570 0.768397 0.464528 0.191773
H22   H     H_    0.299246 0.300552 0.348729 0.130723
H23   H     H_    0.701768 0.700018 0.650780 0.135113
H24   H     H_    0.741114 0.853175 0.701084 0.145674
H25   H     H_    0.258918 0.147300 0.298570 0.142404
H26   H     H_    0.872107 0.376345 0.609337 0.139988
N1    N     N_R   0.574200 0.731700 0.552740 -0.120688
N2    N     N_R   0.425800 0.268300 0.447260 -0.119708
O1    O     O_R   0.462600 0.383110 0.605620 -0.608529
O2    O     O_3   0.455066 0.880503 0.351379 -0.818520
O3    O     O_R   0.537400 0.616890 0.394380 -0.608533
O4    O     O_R   0.510210 0.531900 0.639510 -0.626933
O5    O     O_R   0.489790 0.468100 0.360490 -0.625721
O6    O     O_R   0.662240 0.425610 0.483080 -0.622286
O7    O     O_R   0.337760 0.574390 0.516920 -0.624795
O8    O     O_R   0.709860 0.574400 0.516970 -0.622995
O9    O     O_R   0.290140 0.425600 0.483030 -0.624598
O10   O     O_3   0.541850 0.118580 0.649234 -0.815406
Zn1   Zn    Zn3+2 0.468210 0.400660 0.477370 0.943705
Zn2   Zn    Zn3+2 0.531790 0.599340 0.522630 0.942282

loop_
_geom_bond_atom_site_label_1
_geom_bond_atom_site_label_2
_ccdc_geom_bond_type
C38   C40   A    
C6    C45   A    
C27   C29   S    
C34   C37   A    
C14   C18   A    
C7    H24   S    
C39   C41   A    
C4    C46   A    
C27   C33   S    
C15   C19   A    
H19   O2    S    
C9    N1    A    
C29   H1    S    
C24   C26   A    
C11   C14   A    
C33   H3    S    
C12   O5    A    
C42   C46   A    
C12   C37   S    
C19   C26   A    
H18   O10   S    
O1    Zn1   S    
C41   H9    S    
C20   C24   A    
C28   C35   S    
C40   H10   S    
C22   C25   A    
C31   C33   S    
O7    Zn2   S    
C39   C45   A    
C3    H14   S    
O4    Zn2   S    
C21   C22   A    
C1    O4    A    
C18   C25   A    
C42   C44   A    
C11   H21   S    
C13   H20   S    
C8    C19   A    
C1    O1    A    
C32   C35   S    
C14   C20   A    
C36   C40   A    
C4    C6    A    
C11   N1    A    
C24   O2    S    
O8    Zn2   S    
C4    H15   S    
C2    C46   A    
C17   O9    A    
C22   O10   S    
C26   H17   S    
C38   C44   A    
O6    Zn1   S    
C38   H11   S    
C23   C42   A    
C2    C43   A    
C7    C18   A    
C39   H13   S    
C12   O3    A    
C35   H4    S    
C16   O8    A    
C13   N2    A    
C43   C45   A    
O9    Zn1   S    
C5    C44   A    
O3    Zn2   S    
C13   C15   A    
C17   C31   S    
O5    Zn1   S    
C23   H8    S    
C7    C9    A    
C28   H2    S    
C8    H25   S    
C30   C33   S    
C27   C32   S    
C28   C31   S    
C34   C43   A    
C9    H23   S    
C3    C5    A    
C10   H22   S    
C16   C32   S    
C29   C35   S    
C6    H6    S    
C28   C30   S    
C2    C3    A    
C29   C31   S    
C30   C32   S    
C10   N2    A    
C30   H12   S    
C17   O7    A    
C25   H16   S    
N2    Zn1   S    
C37   C41   A    
N1    Zn2   S    
C15   C21   A    
C20   C21   A    
C34   H7    S    
C8    C10   A    
C23   C36   A    
C5    H5    S    
C16   O6    A    
C27   H26   S    
C1    C36   S    
