data_mof_unit_11724.cif
_audit_creation_date              2012-12-10T18:12:38-0500
_audit_creation_method            fapswitch 2.2
_symmetry_space_group_name_H-M    P1
_symmetry_Int_Tables_number       1
_space_group_crystal_system       triclinic
_cell_length_a                    12.610397
_cell_length_b                    13.13295
_cell_length_c                    15.728803
_cell_angle_alpha                 90.551869
_cell_angle_beta                  103.077671
_cell_angle_gamma                 82.286294
_cell_volume                      2513.77429649

loop_
_atom_site_label
_atom_site_type_symbol
_atom_type_description
_atom_site_fract_x
_atom_site_fract_y
_atom_site_fract_z
_atom_type_partial_charge
C1    C     C_R   0.438645 0.691236 0.486478 0.867204
C2    C     C_3   0.502383 0.501551 0.917182 0.039205
C3    C     C_3   0.502784 0.401885 0.027529 -0.256899
C4    C     C_3   0.496677 0.499773 0.082634 0.070838
C5    C     C_3   0.591924 0.444493 0.990036 0.203879
C6    C     C_3   0.587126 0.541181 0.046795 -0.189223
C7    C     C_1   0.504084 0.501806 0.826575 -0.078092
C8    C     C_1   0.494989 0.499637 0.173196 -0.048394
C9    C     C_R   0.702491 0.063567 0.440424 -0.202789
C10   C     C_R   0.596562 0.199943 0.501602 -0.050663
C11   C     C_R   0.298555 0.838516 0.495753 -0.208946
C12   C     C_R   0.501242 0.500439 0.661898 0.907709
C13   C     C_R   0.268735 0.943933 0.503002 0.285019
C14   C     C_R   0.343180 0.010953 0.494219 -0.283749
C15   C     C_R   0.446199 0.973570 0.475616 0.056128
C16   C     C_R   0.467173 0.869442 0.455248 0.080667
C17   C     C_R   0.529111 0.036244 0.476185 0.097056
C18   C     C_R   0.622227 0.999742 0.442437 0.171767
C19   C     C_R   0.632720 0.900864 0.409954 -0.256867
C20   C     C_R   0.556161 0.836313 0.416220 -0.182992
C21   C     C_R   0.522927 0.133767 0.511322 -0.259781
C22   C     C_R   0.688610 0.164448 0.468501 -0.206623
C23   C     C_R   0.561130 0.308693 0.508849 0.857770
C24   C     C_R   0.399110 0.800918 0.475381 -0.169416
C25   C     C_R   0.092489 0.335297 0.391865 -0.317480
C26   C     C_R   0.798526 0.629911 0.602455 -0.011664
C27   C     C_R   0.905049 0.651269 0.632553 -0.317427
C28   C     C_R   0.991013 0.596393 0.601452 0.218998
C29   C     C_R   0.966595 0.524688 0.533016 -0.027858
C30   C     C_R   0.856783 0.501708 0.508987 0.192216
C31   C     C_R   0.044752 0.473091 0.488528 -0.013366
C32   C     C_R   0.015583 0.390905 0.432163 0.192781
C33   C     C_R   0.909300 0.366240 0.414765 -0.295246
C34   C     C_R   0.498638 0.499823 0.338063 0.885107
C35   C     C_R   0.830549 0.422967 0.450567 -0.191064
C36   C     C_R   0.149627 0.501527 0.494233 -0.034161
C37   C     C_R   0.197096 0.362733 0.405876 0.005921
C38   C     C_3   0.407867 0.556479 0.009723 0.263896
C39   C     C_3   0.496562 0.598965 0.972569 -0.242162
C40   C     C_1   0.503764 0.501402 0.751243 -0.192567
C41   C     C_1   0.495708 0.499586 0.248620 -0.182514
C42   C     C_3   0.413812 0.460725 0.954465 0.199699
H1    H     H_    0.493635 0.678765 0.948644 0.153080
H2    H     H_    0.458556 0.161931 0.544027 0.151611
H3    H     H_    0.244074 0.785660 0.507191 0.162512
H4    H     H_    0.317504 0.091967 0.500069 0.132588
H5    H     H_    0.566640 0.760618 0.389065 0.172593
H6    H     H_    0.258562 0.319315 0.376878 0.139372
H7    H     H_    0.885904 0.304657 0.371009 0.150535
H8    H     H_    0.071900 0.271313 0.350141 0.144643
H9    H     H_    0.175880 0.568994 0.526995 0.169865
H10   H     H_    0.733026 0.670087 0.628997 0.156337
H11   H     H_    0.921506 0.706993 0.683426 0.150671
H12   H     H_    0.749427 0.402855 0.431879 0.209768
H13   H     H_    0.658829 0.573331 0.086865 0.148785
H14   H     H_    0.505227 0.322110 0.051320 0.148149
H15   H     H_    0.746361 0.215514 0.460431 0.149888
H16   H     H_    0.701170 0.872713 0.381161 0.150792
H17   H     H_    0.773350 0.036790 0.414062 0.140075
N1    N     N_R   0.222180 0.444680 0.455580 -0.109432
N2    N     N_R   0.776980 0.554790 0.543960 -0.128492
O1    O     O_R   0.366730 0.627160 0.478790 -0.618606
O2    O     O_R   0.544830 0.662520 0.507160 -0.618948
O3    O     O_R   0.410960 0.482330 0.609040 -0.607946
O4    O     O_R   0.589060 0.517690 0.637410 -0.611240
O5    O     O_R   0.455170 0.337480 0.492840 -0.618438
O6    O     O_R   0.633270 0.372840 0.521210 -0.633843
O7    O     O_R   0.410940 0.482310 0.362590 -0.607867
O8    O     O_R   0.589040 0.517670 0.390960 -0.636509
Zn1   Zn    Zn3+2 0.381080 0.476390 0.481050 0.940250
Zn2   Zn    Zn3+2 0.618920 0.523610 0.518950 0.928617
N3    N     N_2   0.164326 0.982949 0.519447 -0.306053
H18   H     H_    0.142036 0.061001 0.508166 0.222375
C43   C     C_3   0.144237 0.949119 0.601021 -0.805538
H19   H     H_    0.061257 0.984284 0.607242 0.241748
H20   H     H_    0.206300 0.973220 0.656917 0.240957
H21   H     H_    0.146698 0.864389 0.603291 0.237549
N4    N     N_2   0.309464 0.617592 0.024335 -0.301541
H22   H     H_    0.269555 0.581231 0.063079 0.221913
C44   C     C_3   0.236929 0.667699 0.947344 -0.785992
H23   H     H_    0.169644 0.719455 0.966666 0.236591
H24   H     H_    0.200292 0.609831 0.902148 0.256235
H25   H     H_    0.282252 0.714674 0.913301 0.243346
N5    N     N_2   0.100326 0.607637 0.645803 -0.337207
H26   H     H_    0.109223 0.679173 0.672024 0.220189
C45   C     C_3   0.153376 0.525291 0.707621 -0.765639
H27   H     H_    0.239504 0.537879 0.735922 0.253105
H28   H     H_    0.154916 0.449933 0.674948 0.250928
H29   H     H_    0.109415 0.523568 0.761263 0.243773
C46   C     C_3   0.697183 0.381584 0.975797 -0.399951
C47   C     C_3   0.769350 0.335580 0.061583 -0.870618
H30   H     H_    0.793450 0.397447 0.107694 0.260144
H31   H     H_    0.724849 0.283783 0.091835 0.257839
H32   H     H_    0.844977 0.290358 0.048992 0.249756
H33   H     H_    0.675283 0.318735 0.930113 0.205025
H34   H     H_    0.743499 0.431983 0.945929 0.210124
N6    N     N_2   0.321655 0.418240 0.900708 -0.310464
H35   H     H_    0.343766 0.370927 0.853133 0.231987
C48   C     C_3   0.252976 0.373145 0.947857 -0.816272
H36   H     H_    0.181286 0.349305 0.900750 0.243180
H37   H     H_    0.221731 0.429610 0.992235 0.250239
H38   H     H_    0.299880 0.304412 0.986205 0.237545

loop_
_geom_bond_atom_site_label_1
_geom_bond_atom_site_label_2
_ccdc_geom_bond_type
C3    C42   S    
C28   N5    S    
C19   C20   A    
C6    H13   S    
C4    C8    S    
C1    O1    A    
C22   H15   S    
N6    H35   S    
C46   H33   S    
C14   H4    S    
C10   C22   A    
C26   C27   A    
C43   H20   S    
C30   C35   A    
C5    C6    S    
C23   O5    A    
C28   C29   A    
C26   N2    A    
N5    C45   S    
C38   C42   S    
C31   C36   A    
C38   C39   S    
C12   O3    A    
C45   H28   S    
C9    C22   A    
C33   H7    S    
C15   C16   A    
C11   C24   A    
O1    Zn1   S    
C18   C19   A    
C23   O6    A    
O8    Zn2   S    
C25   H8    S    
C25   C37   A    
C2    C39   S    
C2    C7    S    
C43   H21   S    
C7    C40   T    
O3    Zn1   S    
O6    Zn2   S    
C5    C46   S    
N2    Zn2   S    
C25   C32   A    
C16   C24   A    
C13   C14   A    
C35   H12   S    
C34   C41   S    
C44   H25   S    
C1    O2    A    
N6    C48   S    
C19   H16   S    
C43   H19   S    
C37   N1    A    
N5    H26   S    
C44   H24   S    
C42   N6    S    
C34   O7    A    
C47   H30   S    
C45   H27   S    
C44   H23   S    
C39   H1    S    
C38   N4    S    
C36   N1    A    
O4    Zn2   S    
C17   C21   A    
C9    H17   S    
C12   C40   S    
C29   C30   A    
C26   H10   S    
C47   H31   S    
C21   H2    S    
C3    H14   S    
C31   C32   A    
C14   C15   A    
N1    Zn1   S    
C16   C20   A    
C17   C18   A    
C8    C41   T    
C37   H6    S    
C34   O8    A    
C36   H9    S    
N3    C43   S    
C48   H37   S    
O2    Zn2   S    
C11   H3    S    
C4    C6    S    
C3    C4    S    
C15   C17   A    
N4    H22   S    
C4    C38   S    
N3    H18   S    
C3    C5    S    
C45   H29   S    
C10   C21   A    
C27   H11   S    
C46   H34   S    
C13   N3    S    
C10   C23   S    
C12   O4    A    
C48   H36   S    
C32   C33   A    
C29   C31   A    
C47   H32   S    
C11   C13   A    
C46   C47   S    
O5    Zn1   S    
C2    C42   S    
C33   C35   A    
N4    C44   S    
C20   H5    S    
C2    C5    S    
C9    C18   A    
C48   H38   S    
C1    C24   S    
O7    Zn1   S    
C30   N2    A    
C27   C28   A    
C6    C39   S    
