data_mof_unit_32124.cif
_audit_creation_date              2012-12-10T17:43:51-0500
_audit_creation_method            fapswitch 2.2
_symmetry_space_group_name_H-M    P1
_symmetry_Int_Tables_number       1
_space_group_crystal_system       triclinic
_cell_length_a                    15.847835
_cell_length_b                    15.064728
_cell_length_c                    13.846449
_cell_angle_alpha                 88.684639
_cell_angle_beta                  91.571964
_cell_angle_gamma                 87.501384
_cell_volume                      3300.39597157

loop_
_atom_site_label
_atom_site_type_symbol
_atom_type_description
_atom_site_fract_x
_atom_site_fract_y
_atom_site_fract_z
_atom_type_partial_charge
C1    C     C_R   0.499743 0.329356 0.500836 0.818999
C2    C     C_R   0.500257 0.670644 0.499164 0.818997
C3    C     C_R   0.501797 0.767049 0.497943 -0.099294
C4    C     C_R   0.498204 0.232951 0.502057 -0.099292
C5    C     C_R   0.577757 0.808894 0.520137 0.070073
C6    C     C_R   0.422245 0.191105 0.479862 0.070076
C7    C     C_R   0.574807 0.902512 0.528013 0.061379
C8    C     C_R   0.425195 0.097488 0.471984 0.061380
C9    C     C_R   0.500522 0.952970 0.498699 -0.042707
C10   C     C_R   0.499481 0.047030 0.501297 -0.042708
C11   C     C_R   0.427428 0.909672 0.466603 0.102140
C12   C     C_R   0.572574 0.090328 0.533393 0.102140
C13   C     C_R   0.643263 0.946592 0.568080 -0.215884
C14   C     C_R   0.356740 0.053408 0.431915 -0.215881
C15   C     C_R   0.641006 0.038530 0.576517 0.179797
C16   C     C_R   0.358997 0.961471 0.423477 0.179796
C17   C     C_R   0.549227 0.437032 0.798008 0.339188
C18   C     C_R   0.450773 0.562968 0.201992 0.339189
C19   C     C_R   0.452153 0.562220 0.789828 -0.023325
C20   C     C_R   0.547847 0.437780 0.210172 -0.023325
C21   C     C_R   0.451765 0.565103 0.892387 -0.008183
C22   C     C_R   0.548235 0.434897 0.107613 -0.008183
C23   C     C_R   0.339840 0.500834 0.498867 0.806008
C24   C     C_R   0.660160 0.499166 0.501133 0.806006
C25   C     C_R   0.499744 0.499902 0.948340 0.008978
C26   C     C_R   0.500256 0.500098 0.051660 0.008978
C27   C     C_R   0.547545 0.434542 0.901084 -0.032181
C28   C     C_R   0.452455 0.565458 0.098916 -0.032181
C29   C     C_R   0.405048 0.631682 0.940505 0.186861
C30   C     C_R   0.594952 0.368318 0.059494 0.186861
C31   C     C_R   0.406372 0.631447 0.041931 -0.194873
C32   C     C_R   0.593628 0.368553 0.958069 -0.194873
C33   C     C_3   0.977240 0.452378 0.577541 -0.156369
C34   C     C_3   0.022760 0.547620 0.422459 -0.156368
C35   C     C_3   0.031569 0.416080 0.494675 -0.160334
C36   C     C_3   0.968431 0.583919 0.505325 -0.160333
C37   C     C_1   0.249986 0.500771 0.496694 -0.173273
C38   C     C_1   0.750014 0.499228 0.503306 -0.173271
C39   C     C_3   0.029808 0.536595 0.580886 -0.154401
C40   C     C_3   0.970192 0.463404 0.419114 -0.154401
C41   C     C_3   0.082599 0.500289 0.498026 0.189803
C42   C     C_3   0.917401 0.499709 0.501974 0.189803
C43   C     C_1   0.174338 0.500581 0.496563 -0.076318
C44   C     C_1   0.825662 0.499418 0.503436 -0.076316
C45   C     C_R   0.425414 0.816553 0.480106 0.083838
C46   C     C_R   0.574587 0.183448 0.519891 0.083837
Cu1   Cu    Cu3+1 0.500010 0.499990 0.597420 0.932168
Cu2   Cu    Cu3+1 0.499990 0.500010 0.402580 0.932168
H1    H     H_    0.058853 0.347208 0.490189 0.126697
H2    H     H_    0.941146 0.652790 0.509811 0.126695
H3    H     H_    0.370668 0.684523 0.075398 0.152557
H4    H     H_    0.629332 0.315477 0.924602 0.152557
H5    H     H_    0.957205 0.413323 0.641229 0.130378
H6    H     H_    0.042795 0.586676 0.358770 0.130378
H7    H     H_    0.944332 0.433318 0.352746 0.130781
H8    H     H_    0.055668 0.566680 0.647254 0.130781
H9    H     H_    0.698303 0.910126 0.598264 0.159682
H10   H     H_    0.301700 0.089874 0.401729 0.159680
H11   H     H_    0.415014 0.610255 0.745649 0.154640
H12   H     H_    0.584986 0.389744 0.254351 0.154639
N1    N     N_R   0.499960 0.499930 0.743810 -0.185645
N2    N     N_R   0.500040 0.500070 0.256190 -0.185645
O1    O     O_R   0.500020 0.370250 0.582280 -0.576902
O2    O     O_R   0.499980 0.629750 0.417720 -0.576901
O3    O     O_R   0.500010 0.370270 0.417740 -0.592902
O4    O     O_R   0.499990 0.629730 0.582260 -0.592902
O5    O     O_R   0.379080 0.499980 0.582260 -0.570220
O6    O     O_R   0.620920 0.500020 0.417740 -0.570221
O7    O     O_R   0.379070 0.500000 0.417710 -0.590941
O8    O     O_R   0.620930 0.500000 0.582290 -0.590942
C47   C     C_3   0.353646 0.704055 0.885552 -0.903110
H13   H     H_    0.395491 0.742788 0.839137 0.235675
H14   H     H_    0.304189 0.674170 0.839918 0.229722
H15   H     H_    0.321484 0.751155 0.934575 0.233665
C48   C     C_3   0.646354 0.295945 0.114448 -0.903110
H16   H     H_    0.604509 0.257211 0.160863 0.235675
H17   H     H_    0.678517 0.248845 0.065425 0.233665
H18   H     H_    0.695812 0.325830 0.160081 0.229722
C49   C     C_3   0.342672 0.770549 0.492083 -0.873626
H19   H     H_    0.347631 0.722981 0.554662 0.223487
H20   H     H_    0.290195 0.817888 0.509600 0.246749
H21   H     H_    0.326343 0.733496 0.426442 0.223708
C50   C     C_3   0.657328 0.229453 0.507912 -0.873627
H22   H     H_    0.652368 0.277021 0.445335 0.223487
H23   H     H_    0.673660 0.266504 0.573554 0.223708
H24   H     H_    0.709805 0.182114 0.490392 0.246749
C51   C     C_3   0.660550 0.753624 0.536986 -0.389529
C52   C     C_3   0.721139 0.767631 0.454641 -0.833094
H25   H     H_    0.691481 0.747800 0.385238 0.260882
H26   H     H_    0.738290 0.838085 0.448256 0.252391
H27   H     H_    0.779888 0.725819 0.468421 0.236148
H28   H     H_    0.690880 0.768386 0.607559 0.189961
H29   H     H_    0.651001 0.681511 0.542244 0.205311
C53   C     C_3   0.339451 0.246376 0.463014 -0.389548
C54   C     C_3   0.278865 0.232369 0.545360 -0.833104
H30   H     H_    0.261707 0.161919 0.551738 0.252396
H31   H     H_    0.308529 0.252190 0.614763 0.260885
H32   H     H_    0.220121 0.274191 0.531589 0.236151
H33   H     H_    0.349000 0.318487 0.457754 0.205315
H34   H     H_    0.309120 0.231615 0.392444 0.189967
C55   C     C_3   0.706762 0.075834 0.643658 -0.885304
H35   H     H_    0.718806 0.030527 0.707491 0.227033
H36   H     H_    0.767243 0.082264 0.606111 0.231501
H37   H     H_    0.684963 0.140290 0.673328 0.247691
C56   C     C_3   0.293244 0.924167 0.356333 -0.885302
H38   H     H_    0.281203 0.969472 0.292498 0.227034
H39   H     H_    0.315042 0.859709 0.326665 0.247691
H40   H     H_    0.232760 0.917738 0.393877 0.231500
C57   C     C_3   0.608464 0.369800 0.751806 -0.805648
H41   H     H_    0.617693 0.378582 0.675262 0.275833
H42   H     H_    0.673076 0.373839 0.784089 0.186906
H43   H     H_    0.585669 0.301799 0.763450 0.203438
C58   C     C_3   0.391536 0.630200 0.248194 -0.805648
H44   H     H_    0.382307 0.621418 0.324738 0.275833
H45   H     H_    0.414331 0.698200 0.236550 0.203438
H46   H     H_    0.326924 0.626161 0.215911 0.186906

loop_
_geom_bond_atom_site_label_1
_geom_bond_atom_site_label_2
_ccdc_geom_bond_type
C51   C52   S    
C55   H35   S    
C23   O7    A    
C36   C42   S    
C54   H30   S    
Cu2   O7    S    
C54   H32   S    
C24   O8    A    
C39   C41   S    
C4    C46   A    
C56   H39   S    
C33   C39   S    
C34   C40   S    
C33   C42   S    
C19   C21   A    
C57   H42   S    
Cu1   O1    S    
Cu2   O2    S    
C13   H9    S    
C23   O5    A    
C32   H4    S    
C17   N1    A    
C1    O3    A    
C50   H22   S    
C6    C53   S    
C35   H1    S    
C24   C38   S    
C52   H27   S    
Cu2   O3    S    
C20   H12   S    
C9    C10   A    
Cu1   O4    S    
C58   H46   S    
C40   C42   S    
C55   H36   S    
C51   H28   S    
C41   C43   S    
C34   C41   S    
C42   C44   S    
C1    O1    A    
C18   C58   S    
Cu1   O5    S    
C2    O2    A    
C36   C39   S    
C33   H5    S    
C14   H10   S    
C56   H40   S    
C17   C27   A    
Cu1   Cu2   S    
C18   C28   A    
C4    C6    A    
C57   H43   S    
C49   H20   S    
C18   N2    A    
C6    C8    A    
C19   H11   S    
C25   C26   A    
C23   C37   S    
C21   C29   A    
C3    C45   A    
C15   C55   S    
C49   H19   S    
C37   C43   T    
C48   H16   S    
Cu1   O8    S    
C38   C44   T    
C47   H15   S    
C9    C11   A    
C11   C16   A    
Cu2   N2    S    
C39   H8    S    
C12   C15   A    
C53   H34   S    
C40   H7    S    
C45   C49   S    
Cu2   O6    S    
C48   H17   S    
C10   C12   A    
C16   C56   S    
C12   C46   A    
C50   H23   S    
C52   H26   S    
C34   H6    S    
C55   H37   S    
C13   C15   A    
C14   C16   A    
C11   C45   A    
C20   C22   A    
C36   H2    S    
C5    C7    A    
C58   H44   S    
C7    C9    A    
C21   C25   A    
C8    C14   A    
C22   C30   A    
C27   C32   A    
C28   C31   A    
C31   H3    S    
C3    C5    A    
C17   C57   S    
Cu1   N1    S    
C49   H21   S    
C54   H31   S    
C2    O4    A    
C25   C27   A    
C56   H38   S    
C26   C28   A    
C1    C4    S    
C2    C3    S    
C47   H13   S    
C29   C31   A    
C57   H41   S    
C30   C32   A    
C30   C48   S    
C53   H33   S    
C19   N1    A    
C51   H29   S    
C33   C35   S    
C35   C40   S    
C34   C36   S    
C20   N2    A    
C53   C54   S    
C35   C41   S    
C48   H18   S    
C24   O6    A    
C46   C50   S    
C5    C51   S    
C7    C13   A    
C50   H24   S    
C52   H25   S    
C8    C10   A    
C22   C26   A    
C47   H14   S    
C29   C47   S    
C58   H45   S    
