data_mof_unit_59613.cif
_audit_creation_date              2012-12-10T20:50:08-0500
_audit_creation_method            fapswitch 2.2
_symmetry_space_group_name_H-M    P1
_symmetry_Int_Tables_number       1
_space_group_crystal_system       triclinic
_cell_length_a                    18.769996
_cell_length_b                    8.907315
_cell_length_c                    8.192106
_cell_angle_alpha                 90.007594
_cell_angle_beta                  89.337028
_cell_angle_gamma                 90.051992
_cell_volume                      1369.54812581

loop_
_atom_site_label
_atom_site_type_symbol
_atom_type_description
_atom_site_fract_x
_atom_site_fract_y
_atom_site_fract_z
_atom_type_partial_charge
C1    C     C_R   0.500127 0.218371 0.499996 0.945807
C2    C     C_R   0.244894 0.439220 0.366357 0.325725
C3    C     C_R   0.190270 0.555828 0.657903 0.084189
C4    C     C_R   0.816966 0.673447 0.376447 0.135051
C5    C     C_R   0.813740 0.585444 0.654941 0.147038
C6    C     C_R   0.171550 0.478660 0.376225 0.130100
C7    C     C_R   0.146694 0.554963 0.518986 -0.169156
C8    C     C_R   0.853072 0.650483 0.525532 -0.166912
C9    C     C_R   0.287050 0.469931 0.503782 -0.366020
C10   C     C_R   0.711317 0.556925 0.498235 -0.372074
C11   C     C_R   0.931432 0.660450 0.534938 0.364737
C12   C     C_R   0.500094 0.781622 0.500008 0.942958
C13   C     C_R   0.073766 0.612927 0.531570 0.371705
C14   C     C_R   0.364686 0.488419 0.500522 0.923594
C15   C     C_R   0.635589 0.510792 0.498522 0.957523
C16   C     C_1   0.500188 0.065316 0.500008 -0.120445
C17   C     C_1   0.500186 0.934669 0.500028 -0.110670
C18   C     C_R   0.252298 0.471272 0.653747 0.380234
C19   C     C_R   0.750713 0.599270 0.355176 0.383369
C20   C     C_R   0.740247 0.600678 0.647799 0.352475
H1    H     H_    0.222762 0.067023 0.637232 0.392475
H2    H     H_    0.669314 0.374800 0.034094 0.380346
H3    H     H_    0.671566 0.981687 0.616071 0.380211
H4    H     H_    0.328514 0.530379 0.088752 0.346370
I1    I     I_    0.172642 0.695392 0.864664 -0.147611
I2    I     I_    0.852375 0.840870 0.205408 0.011994
I3    I     I_    0.848172 0.376327 0.753125 -0.115922
I4    I     I_    0.098109 0.412890 0.189945 -0.016189
N1    N     N_1   0.500000 0.500000 0.073640 0.014657
N2    N     N_1   0.500000 0.500000 0.926360 0.015137
N3    N     N_R   0.041339 0.671907 0.399683 -0.120950
N4    N     N_R   0.965151 0.615085 0.671780 -0.102550
N5    N     N_R   0.971343 0.692954 0.400705 -0.120719
N6    N     N_R   0.034833 0.589646 0.669534 -0.095569
O1    O     O_R   0.500000 0.285350 0.636850 -0.613444
O2    O     O_2   0.182699 0.282849 0.855137 -0.189550
O3    O     O_3   0.226624 0.166281 0.583314 -0.538104
O4    O     O_2   0.661203 0.668164 0.118006 -0.225310
O5    O     O_2   0.779535 0.579013 0.033355 -0.252347
O6    O     O_3   0.690310 0.383004 0.144148 -0.526775
O7    O     O_2   0.635642 0.748582 0.808790 -0.238425
O8    O     O_2   0.757474 0.842703 0.841606 -0.199719
O9    O     O_3   0.694083 0.891494 0.567153 -0.573065
O10   O     O_2   0.348962 0.256487 0.243590 -0.264102
O11   O     O_2   0.229203 0.213937 0.150916 -0.150711
O12   O     O_R   0.500000 0.714650 0.363150 -0.609240
O13   O     O_3   0.295302 0.454012 0.045779 -0.489212
O14   O     O_R   0.500000 0.714650 0.636850 -0.589758
O15   O     O_R   0.500000 0.285350 0.363150 -0.583873
O16   O     O_R   0.398140 0.500000 0.636920 -0.598183
O17   O     O_R   0.601860 0.500000 0.363080 -0.544947
O18   O     O_R   0.601860 0.500000 0.636920 -0.600468
O19   O     O_R   0.398140 0.500000 0.363080 -0.605693
O20   O     O_2   0.311798 0.241694 0.814976 -0.206175
S1    S     S_3+6 0.243615 0.288086 0.735035 0.119597
S2    S     S_3+6 0.720328 0.560701 0.155836 0.096451
S3    S     S_3+6 0.706086 0.773033 0.724392 0.086858
S4    S     S_3+6 0.280630 0.334070 0.200784 0.143384
Zn1   Zn    Zn3+2 0.500000 0.500000 0.682780 1.089644
Zn2   Zn    Zn3+2 0.500000 0.500000 0.317220 1.102262

loop_
_geom_bond_atom_site_label_1
_geom_bond_atom_site_label_2
_ccdc_geom_bond_type
C12   C17   S    
C19   S2    S    
C5    C8    A    
C4    I2    S    
C9    C14   S    
C2    S4    S    
C6    C7    A    
O17   Zn2   S    
O18   Zn1   S    
C15   O17   A    
O5    S2    D    
C4    C19   A    
N1    Zn2   S    
C12   O14   A    
C10   C19   A    
C4    C8    A    
H2    O6    S    
N2    Zn1   S    
N3    N5    A    
H1    O3    S    
C13   N6    A    
C5    C20   A    
C2    C6    A    
C15   O18   A    
O13   S4    S    
C2    C9    A    
C5    I3    S    
N1    N2    T    
O15   Zn2   S    
C18   S1    S    
O14   Zn1   S    
C8    C11   S    
O16   Zn1   S    
O8    S3    D    
O1    Zn1   S    
O19   Zn2   S    
C11   N4    A    
C3    C7    A    
C10   C15   S    
O2    S1    D    
O11   S4    D    
C14   O16   A    
O7    S3    D    
O3    S1    S    
C9    C18   A    
C11   N5    A    
C14   O19   A    
O4    S2    D    
C1    O1    A    
C3    C18   A    
C12   O12   A    
O10   S4    D    
C1    C16   S    
O9    S3    S    
O20   S1    D    
C7    C13   S    
C3    I1    S    
O12   Zn2   S    
C20   S3    S    
H3    O9    S    
H4    O13   S    
C1    O15   A    
C13   N3    A    
C6    I4    S    
C10   C20   A    
C16   C17   T    
O6    S2    S    
N4    N6    A    
