data_mof_unit_45444.cif
_audit_creation_date              2012-12-10T17:45:36-0500
_audit_creation_method            fapswitch 2.2
_symmetry_space_group_name_H-M    P1
_symmetry_Int_Tables_number       1
_space_group_crystal_system       triclinic
_cell_length_a                    11.516284
_cell_length_b                    10.697634
_cell_length_c                    9.980951
_cell_angle_alpha                 90.072951
_cell_angle_beta                  89.29291
_cell_angle_gamma                 92.071915
_cell_volume                      1228.7252542

loop_
_atom_site_label
_atom_site_type_symbol
_atom_type_description
_atom_site_fract_x
_atom_site_fract_y
_atom_site_fract_z
_atom_type_partial_charge
C1    C     C_R   0.517222 0.262476 0.500538 0.936974
C2    C     C_R   0.491597 0.876826 0.501130 -0.292442
C3    C     C_R   0.338875 0.345403 0.140859 -0.056631
C4    C     C_R   0.282225 0.499384 0.500678 0.874645
C5    C     C_R   0.260409 0.268075 0.071845 -0.184546
C6    C     C_R   0.260935 0.267625 0.933117 -0.201298
C7    C     C_R   0.340152 0.344242 0.862427 -0.095494
C8    C     C_R   0.419354 0.425621 0.928750 0.110913
C9    C     C_R   0.418132 0.427203 0.072952 0.049119
C10   C     C_R   0.590296 0.550689 0.070312 0.502868
C11   C     C_R   0.585007 0.562707 0.928076 0.079570
C12   C     C_R   0.532700 0.064516 0.870624 -0.219249
C13   C     C_R   0.492380 0.740644 0.500319 0.912317
C14   C     C_R   0.717742 0.500109 0.499345 0.890433
C15   C     C_1   0.161592 0.498529 0.501774 -0.185447
C16   C     C_1   0.059255 0.498055 0.501015 -0.010660
C17   C     C_1   0.940504 0.498174 0.499240 -0.031092
C18   C     C_1   0.838239 0.498906 0.498339 -0.215657
C19   C     C_R   0.575471 0.118138 0.751604 0.613041
C20   C     C_3   0.693795 0.151750 0.255946 -0.381063
C21   C     C_3   0.669847 0.656452 0.860672 -0.307769
C22   C     C_3   0.794379 0.613700 0.842606 -0.816403
C23   C     C_R   0.463693 0.955315 0.867141 -0.272453
C24   C     C_3   0.761049 0.192592 0.713762 -0.359534
C25   C     C_3   0.587346 0.860988 0.182483 -0.186769
C26   C     C_3   0.763580 0.480792 0.134162 -0.256723
C27   C     C_R   0.445343 0.893541 0.745841 -0.131138
C28   C     C_R   0.492928 0.942971 0.624610 -0.024650
C29   C     C_R   0.540472 0.065127 0.626213 -0.097963
C30   C     C_R   0.544496 0.130963 0.503435 -0.324797
C31   C     C_R   0.546518 0.066249 0.381308 0.433817
C32   C     C_R   0.514736 0.940208 0.379020 0.411782
H1    H     H_    0.201432 0.205318 0.879778 0.145433
H2    H     H_    0.717626 0.184086 0.153405 0.183256
H3    H     H_    0.796152 0.512971 0.816381 0.273253
H4    H     H_    0.837951 0.667783 0.760112 0.230778
H5    H     H_    0.845599 0.633296 0.934074 0.260157
H6    H     H_    0.640272 0.682863 0.762388 0.254539
H7    H     H_    0.672179 0.745379 0.918081 0.165255
H8    H     H_    0.761910 0.179295 0.603338 0.155249
H9    H     H_    0.793557 0.108377 0.764760 0.150632
H10   H     H_    0.822295 0.272074 0.736196 0.193408
H11   H     H_    0.563567 0.789355 0.107428 0.170506
H12   H     H_    0.339590 0.334104 0.756259 0.195763
H13   H     H_    0.658849 0.825182 0.244386 0.164720
H14   H     H_    0.617359 0.944185 0.124407 0.173729
H15   H     H_    0.785590 0.447610 0.032326 0.143190
H16   H     H_    0.721283 0.400007 0.186384 0.182800
H17   H     H_    0.845771 0.506358 0.185900 0.181909
H18   H     H_    0.552378 0.108554 0.965787 0.193725
H19   H     H_    0.426651 0.916615 0.958901 0.198142
H20   H     H_    0.389782 0.809943 0.747929 0.176616
H21   H     H_    0.338922 0.333728 0.246804 0.197100
H22   H     H_    0.200818 0.205700 0.126498 0.143875
H23   H     H_    0.743812 0.066454 0.275060 0.137973
H24   H     H_    0.720394 0.225993 0.328541 0.165171
N1    N     N_R   0.498930 0.498800 0.142780 -0.169993
N2    N     N_R   0.498900 0.498720 0.857170 -0.149583
O1    O     O_R   0.500000 0.316780 0.614690 -0.595912
O2    O     O_3   0.649676 0.222547 0.761419 -0.589964
O3    O     O_3   0.486110 0.884359 0.257863 -0.583938
O4    O     O_3   0.691616 0.585588 0.134632 -0.602555
O5    O     O_R   0.499990 0.316750 0.385360 -0.599878
O6    O     O_R   0.334450 0.500030 0.614670 -0.640173
O7    O     O_R   0.334440 0.500000 0.385330 -0.633286
O8    O     O_R   0.500010 0.683250 0.614640 -0.664307
O9    O     O_R   0.500000 0.683220 0.385310 -0.546359
O10   O     O_R   0.665560 0.500000 0.614670 -0.589243
O11   O     O_R   0.665550 0.499970 0.385330 -0.588583
O12   O     O_3   0.572481 0.126855 0.261774 -0.569670
Zn1   Zn    Zn3+2 0.500010 0.500020 0.653130 0.940980
Zn2   Zn    Zn3+2 0.499990 0.499980 0.346870 0.981585

loop_
_geom_bond_atom_site_label_1
_geom_bond_atom_site_label_2
_ccdc_geom_bond_type
O11   Zn2   S    
C12   H18   S    
C6    C7    A    
C3    C9    A    
C23   C27   A    
C19   O2    S    
O7    Zn2   S    
C22   H4    S    
C14   C18   S    
C23   H19   S    
C31   C32   A    
C21   H7    S    
C6    H1    S    
C26   H16   S    
C30   C31   A    
C20   H24   S    
C20   H2    S    
C25   H11   S    
C4    C15   S    
C17   C18   T    
C26   O4    S    
C7    C8    A    
C25   O3    S    
C21   C22   S    
C27   H20   S    
C2    C28   A    
C22   H3    S    
C3    H21   S    
C12   C23   A    
C20   O12   S    
C10   O4    S    
C24   H9    S    
C26   H15   S    
O10   Zn1   S    
C1    O5    A    
C12   C19   A    
C1    C30   S    
C24   H8    S    
C32   O3    S    
C9    N1    A    
C13   O8    A    
C1    O1    A    
N1    Zn2   S    
C5    C6    A    
C14   O11   A    
N2    Zn1   S    
C26   H17   S    
C20   H23   S    
C10   C11   A    
C29   C30   A    
C15   C16   T    
C11   N2    A    
C25   H13   S    
C5    H22   S    
C10   N1    A    
C24   H10   S    
O5    Zn2   S    
C2    C32   A    
O9    Zn2   S    
C13   O9    A    
O6    Zn1   S    
C27   C28   A    
C2    C13   S    
C4    O6    A    
C4    O7    A    
C28   C29   A    
C14   O10   A    
C24   O2    S    
C8    N2    A    
C7    H12   S    
C22   H5    S    
C25   H14   S    
C11   C21   S    
C31   O12   S    
C21   H6    S    
O8    Zn1   S    
C16   C17   S    
O1    Zn1   S    
C8    C9    A    
C3    C5    A    
C19   C29   A    
