data_mof_unit_17557.cif
_audit_creation_date              2013-03-05T16:01:31-0500
_audit_creation_method            fapswitch 2.2
_symmetry_space_group_name_H-M    P1
_symmetry_Int_Tables_number       1
_space_group_crystal_system       triclinic
_cell_length_a                    19.960975
_cell_length_b                    7.204234
_cell_length_c                    19.768005
_cell_angle_alpha                 89.998996
_cell_angle_beta                  98.538477
_cell_angle_gamma                 90.000652
_cell_volume                      2811.20148437

loop_
_atom_site_label
_atom_site_type_symbol
_atom_site_description
_atom_site_fract_x
_atom_site_fract_y
_atom_site_fract_z
_atom_type_partial_charge
O1    O     O_R   0.188410 0.619490 0.310050 -0.573815
O2    O     O_R   0.811590 0.380510 0.689950 -0.590400
O3    O     O_R   0.311590 0.119490 0.189950 -0.573760
O4    O     O_R   0.688410 0.880510 0.810050 -0.590402
O5    O     O_R   0.327280 0.288800 0.321740 -0.599583
O6    O     O_R   0.672720 0.711200 0.678260 -0.584088
O7    O     O_R   0.172720 0.788800 0.178260 -0.599582
O8    O     O_R   0.827280 0.211200 0.821740 -0.584093
C1    C     C_R   0.351632 0.456831 0.338856 0.956799
C2    C     C_R   0.648389 0.543179 0.661122 0.950429
C3    C     C_R   0.148368 0.956832 0.161144 0.956639
C4    C     C_R   0.851611 0.043179 0.838877 0.950556
O9    O     O_R   0.189900 0.289710 0.318190 -0.577931
O10   O     O_R   0.810100 0.710290 0.681810 -0.565875
O11   O     O_R   0.310100 0.789710 0.181810 -0.577893
O12   O     O_R   0.689900 0.210290 0.818190 -0.565928
O13   O     O_R   0.173230 0.120350 0.186370 -0.584377
O14   O     O_R   0.826770 0.879650 0.813630 -0.597491
O15   O     O_R   0.326770 0.620350 0.313630 -0.584394
O16   O     O_R   0.673230 0.379650 0.686370 -0.597479
C5    C     C_R   0.170593 0.458608 0.334929 1.002184
C6    C     C_R   0.829618 0.541551 0.665277 1.003308
C7    C     C_R   0.329404 0.958614 0.165067 1.002085
C8    C     C_R   0.670380 0.041548 0.834719 1.003423
O17   O     O_3   0.244690 0.453290 0.206760 -0.265417
O18   O     O_3   0.755310 0.546710 0.793240 -0.273264
O19   O     O_3   0.255310 0.953290 0.293240 -0.265498
O20   O     O_3   0.744690 0.046710 0.706760 -0.273223
V1    V     V_3+5 0.250980 0.178070 0.258020 1.241878
V2    V     V_3+5 0.749020 0.821930 0.741980 1.230263
V3    V     V_3+5 0.249020 0.678070 0.241980 1.241883
V4    V     V_3+5 0.750980 0.321930 0.758020 1.230229
C9    C     C_R   0.480757 0.867899 0.074851 -0.062115
C10   C     C_R   0.518380 0.906908 0.917680 -0.070323
C11   C     C_R   0.019175 0.368134 0.425067 -0.062029
C12   C     C_R   0.981554 0.406657 0.582253 -0.070396
H1    H     H_    0.524146 0.775801 0.081148 0.185951
H2    H     H_    0.474859 0.816434 0.905843 0.177755
H3    H     H_    0.975730 0.276232 0.418710 0.185936
H4    H     H_    0.025020 0.315967 0.594040 0.177796
C13   C     C_R   0.432349 0.850171 0.118803 -0.132592
C14   C     C_R   0.566434 0.913210 0.873087 -0.153491
C15   C     C_R   0.067579 0.350388 0.381112 -0.132969
C16   C     C_R   0.933497 0.412963 0.626842 -0.153165
H5    H     H_    0.439867 0.746185 0.158802 0.156768
H6    H     H_    0.558630 0.828463 0.827313 0.146582
H7    H     H_    0.060005 0.246587 0.341051 0.156681
H8    H     H_    0.941246 0.328004 0.672564 0.146638
C17   C     C_R   0.376275 0.969626 0.113240 -0.305390
C18   C     C_R   0.622779 0.031430 0.885840 -0.300598
C19   C     C_R   0.123723 0.469605 0.386753 -0.305271
C20   C     C_R   0.877221 0.531447 0.614153 -0.300698
C21   C     C_R   0.367626 0.104363 0.060291 0.232559
C22   C     C_R   0.631819 0.140505 0.946233 0.229574
C23   C     C_R   0.132446 0.604110 0.439777 0.232610
C24   C     C_R   0.868255 0.640794 0.553825 0.229564
C25   C     C_R   0.415953 0.119360 0.014620 0.293486
C26   C     C_R   0.583815 0.130582 0.992498 0.295526
C27   C     C_R   0.084126 0.619104 0.485456 0.293540
C28   C     C_R   0.916264 0.630886 0.507565 0.295509
C29   C     C_R   0.473737 0.002995 0.023274 -0.045127
C30   C     C_R   0.525987 0.015614 0.977051 -0.033819
C31   C     C_R   0.026271 0.502997 0.476727 -0.045123
C32   C     C_R   0.974023 0.515635 0.522950 -0.033834
C33   C     C_R   0.087796 0.953560 0.106678 -0.138866
C34   C     C_R   0.912131 0.046531 0.893397 -0.120960
C35   C     C_R   0.412203 0.453558 0.393322 -0.138861
C36   C     C_R   0.587870 0.546533 0.606602 -0.120995
C37   C     C_R   0.004840 0.226865 0.957213 -0.179888
C38   C     C_R   0.995041 0.773306 0.042903 -0.183711
C39   C     C_R   0.495165 0.726870 0.542781 -0.179871
C40   C     C_R   0.504955 0.273301 0.457102 -0.183720
C41   C     C_R   0.952096 0.209002 0.902569 -0.116536
C42   C     C_R   0.047836 0.791085 0.097501 -0.123386
C43   C     C_R   0.547908 0.709006 0.597425 -0.116508
C44   C     C_R   0.452161 0.291079 0.402503 -0.123417
C45   C     C_R   0.927504 0.899594 0.939951 -0.221318
C46   C     C_R   0.072346 0.100622 0.060190 -0.200467
C47   C     C_R   0.572494 0.399593 0.560051 -0.221452
C48   C     C_R   0.427657 0.600624 0.439806 -0.200276
C49   C     C_R   0.980520 0.917434 0.995589 0.199130
C50   C     C_R   0.019336 0.082778 0.004548 0.189273
C51   C     C_R   0.519479 0.417432 0.504412 0.199156
C52   C     C_R   0.480666 0.582779 0.495449 0.189233
H9    H     H_    0.102710 0.225959 0.065965 0.166845
H10   H     H_    0.897091 0.774340 0.934209 0.151547
H11   H     H_    0.397296 0.725964 0.434028 0.166833
H12   H     H_    0.602904 0.274335 0.565797 0.151556
H13   H     H_    0.057863 0.675191 0.132445 0.140596
H14   H     H_    0.942113 0.324815 0.867581 0.133871
H15   H     H_    0.442131 0.175182 0.367563 0.140601
H16   H     H_    0.557893 0.824823 0.632411 0.133869
H17   H     H_    0.033929 0.354425 0.962709 0.139306
H18   H     H_    0.965961 0.645732 0.037402 0.141989
H19   H     H_    0.466078 0.854432 0.537282 0.139312
H20   H     H_    0.534033 0.145723 0.462606 0.141975
N1    N     N_R   0.310025 0.226220 0.052684 0.261842
O21   O     O_R   0.249108 0.158904 0.049101 -0.400730
O22   O     O_R   0.318243 0.404797 0.048351 -0.330952
N2    N     N_R   0.689524 0.260857 0.960921 0.261389
O23   O     O_R   0.750368 0.196792 0.960197 -0.387111
O24   O     O_R   0.681485 0.434317 0.976224 -0.325636
N3    N     N_R   0.190116 0.725733 0.447453 0.261797
O25   O     O_R   0.250992 0.658195 0.450955 -0.400877
O26   O     O_R   0.182000 0.904316 0.451922 -0.330784
N4    N     N_R   0.810619 0.761407 0.539194 0.261424
O27   O     O_R   0.749734 0.697524 0.539821 -0.386942
O28   O     O_R   0.818763 0.934923 0.524033 -0.325802
N5    N     N_R   0.404642 0.247054 0.958111 0.255990
O29   O     O_R   0.452647 0.357362 0.944881 -0.369524
O30   O     O_R   0.346119 0.252284 0.919105 -0.312939
N6    N     N_R   0.595562 0.230719 0.056136 0.256525
O31   O     O_R   0.547482 0.327781 0.076761 -0.370496
O32   O     O_R   0.654466 0.222936 0.094377 -0.303152
N7    N     N_R   0.095514 0.746508 0.542049 0.256025
O33   O     O_R   0.047576 0.856941 0.555352 -0.369436
O34   O     O_R   0.154038 0.751325 0.581061 -0.312878
N8    N     N_R   0.904591 0.731348 0.443992 0.256487
O35   O     O_R   0.952737 0.828315 0.423443 -0.370583
O36   O     O_R   0.845688 0.723977 0.405737 -0.303215

loop_
_geom_bond_atom_site_label_1
_geom_bond_atom_site_label_2
_geom_bond_distance
_ccdc_geom_bond_type
O17   V3    1.759751 S    
C39   C43   1.397900 A    
C26   C30   1.416687 A    
C23   C27   1.419837 A    
O19   V1    1.759732 S    
O13   V1    1.983658 S    
O3    C7    1.328016 A    
C10   C14   1.396516 A    
C10   C30   1.400335 A    
C48   C52   1.414354 A    
O15   V3    1.983657 S    
N6    O32   1.301190 A    
C49   C50   1.417689 A    
C36   C43   1.412906 A    
O1    C5    1.328009 A    
O5    C1    1.329410 A    
C18   C22   1.418233 A    
C26   N6    1.438898 S    
C42   H13   1.083167 S    
O9    V1    1.994695 S    
C38   H18   1.083845 S    
C41   H14   1.083181 S    
C48   H11   1.084040 S    
C37   H17   1.083843 S    
N5    O30   1.301192 A    
O16   V4    1.983659 S    
C11   H3    1.083428 S    
O4    C8    1.328695 A    
C7    C17   1.488582 S    
C39   H19   1.083842 S    
N4    O27   1.301310 A    
N7    O33   1.300966 A    
C23   N3    1.436663 S    
O1    V3    1.983899 S    
O2    V4    1.983899 S    
C14   H6    1.083494 S    
O3    V1    1.983914 S    
C38   C49   1.398715 A    
N8    O35   1.300962 A    
C47   H12   1.084065 S    
C37   C50   1.398716 A    
C1    O15   1.345068 A    
C25   N5    1.438825 S    
C2    O16   1.345141 A    
N7    O34   1.301192 A    
C38   C42   1.397892 A    
C37   C41   1.397900 A    
O14   V2    1.983658 S    
C11   C15   1.397909 A    
C40   C44   1.397893 A    
C16   C20   1.403464 A    
C36   C47   1.406330 A    
O11   C7    1.332863 A    
O12   C8    1.331985 A    
C22   N2    1.436492 S    
O10   V2    1.994694 S    
C13   C17   1.403201 A    
N6    O31   1.300961 A    
N1    O22   1.301352 A    
N1    O21   1.301205 A    
O5    V1    1.993222 S    
C8    C18   1.488114 S    
O7    V3    1.993218 S    
O8    V4    1.993218 S    
C12   H4    1.083472 S    
C21   C25   1.419829 A    
O18   V4    1.759751 S    
C21   N1    1.436656 S    
C34   C41   1.412905 A    
C4    C34   1.494938 S    
C9    H1    1.083430 S    
C33   C42   1.412894 A    
C24   C28   1.421242 A    
O7    C3    1.329411 A    
C1    C35   1.495017 S    
O2    C6    1.328717 A    
C46   C50   1.414357 A    
C51   C52   1.417688 A    
C45   C49   1.414376 A    
O8    C4    1.329292 A    
N2    O24   1.301279 A    
O9    C5    1.332838 A    
N3    O26   1.301353 A    
C25   C29   1.415583 A    
C24   N4    1.436479 S    
C43   H16   1.083180 S    
C14   C18   1.403441 A    
C46   H9    1.084039 S    
C9    C29   1.401420 A    
O6    V2    1.993222 S    
C45   H10   1.084066 S    
C12   C16   1.396514 A    
C5    C19   1.488528 S    
C6    C20   1.488176 S    
C39   C52   1.398716 A    
C22   C26   1.421246 A    
C34   C45   1.406328 A    
C3    O13   1.345069 A    
C33   C46   1.406388 A    
C10   H2    1.083472 S    
C35   C48   1.406388 A    
O6    C2    1.329291 A    
O11   V3    1.994667 S    
C2    C36   1.494938 S    
O12   V4    1.994667 S    
C27   C31   1.415591 A    
C28   C32   1.416684 A    
C9    C13   1.397914 A    
O10   C6    1.331993 A    
O20   V2    1.759732 S    
C16   H8    1.083494 S    
N5    O29   1.300966 A    
C47   C51   1.414375 A    
C15   C19   1.403185 A    
N4    O28   1.301279 A    
C17   C21   1.419109 A    
N2    O23   1.301308 A    
C19   C23   1.419085 A    
C29   C30   1.487917 S    
N8    O36   1.301190 A    
C40   C51   1.398715 A    
C44   H15   1.083166 S    
C31   C32   1.487919 S    
C40   H20   1.083846 S    
C3    C33   1.495016 S    
C27   N7    1.438816 S    
C4    O14   1.345143 A    
N3    O25   1.301204 A    
C13   H5    1.083375 S    
C11   C31   1.401420 A    
C35   C44   1.412896 A    
C12   C32   1.400334 A    
C15   H7    1.083375 S    
C28   N8    1.438901 S    
O4    V2    1.983913 S    
C20   C24   1.418255 A    
