data_mof_unit_30917.cif
_audit_creation_date              2012-10-26T18:47:36-0400
_audit_creation_method            fapswitch 2.2
_symmetry_space_group_name_H-M    P1
_symmetry_Int_Tables_number       1
_space_group_crystal_system       triclinic
_cell_length_a                    10.823962
_cell_length_b                    13.000677
_cell_length_c                    11.668145
_cell_angle_alpha                 100.439265
_cell_angle_beta                  94.378371
_cell_angle_gamma                 89.415794
_cell_volume                      1610.02630675

loop_
_atom_site_label
_atom_site_type_symbol
_atom_type_description
_atom_site_fract_x
_atom_site_fract_y
_atom_site_fract_z
_atom_type_partial_charge
C1    C     C_R   0.498687 0.298896 0.478228 0.547130
C2    C     C_R   0.482349 0.986384 0.654319 0.253771
C3    C     C_R   0.511458 0.122426 0.356017 -0.134482
C4    C     C_R   0.485599 0.877631 0.643438 -0.130368
C5    C     C_R   0.485611 0.139755 0.563223 -0.142636
C6    C     C_R   0.508073 0.859835 0.435595 -0.139658
C7    C     C_R   0.489224 0.031668 0.554118 0.010446
C8    C     C_R   0.502322 0.967953 0.443584 0.015378
C9    C     C_R   0.400649 0.389953 0.018311 0.199504
C10   C     C_R   0.598345 0.612869 0.982527 0.219611
C11   C     C_R   0.409006 0.401690 0.141328 0.058745
C12   C     C_R   0.500960 0.701054 0.521781 0.545992
C13   C     C_R   0.589100 0.599808 0.858007 0.047339
C14   C     C_R   0.538482 0.550125 0.159170 0.047510
C15   C     C_R   0.462453 0.449768 0.841083 0.029809
C16   C     C_R   0.262204 0.503011 0.500088 0.547734
C17   C     C_R   0.737932 0.497408 0.500031 0.548449
C18   C     C_R   0.534427 0.541721 0.035577 -0.017313
C19   C     C_R   0.465626 0.459584 0.964373 -0.039079
C20   C     C_R   0.231819 0.719608 0.259989 -0.097539
C21   C     C_R   0.772485 0.301002 0.764589 -0.102083
C22   C     C_R   0.179922 0.676942 0.346950 -0.053242
C23   C     C_R   0.872007 0.495760 0.500604 -0.003906
C24   C     C_R   0.825567 0.333480 0.671575 -0.055644
C25   C     C_R   0.104269 0.587433 0.316894 0.052411
C26   C     C_R   0.897083 0.425425 0.691177 0.052906
C27   C     C_R   0.078038 0.543614 0.198398 -0.103661
C28   C     C_R   0.917901 0.482422 0.805296 -0.111609
C29   C     C_R   0.129311 0.587326 0.111661 -0.127452
C30   C     C_R   0.864811 0.449490 0.898009 -0.132903
C31   C     C_R   0.206999 0.674627 0.142413 -0.105153
C32   C     C_R   0.791359 0.359504 0.877568 -0.111451
C33   C     C_R   0.925482 0.532104 0.409904 -0.154713
C34   C     C_R   0.128356 0.505687 0.499932 -0.003156
C35   C     C_R   0.074981 0.469646 0.590708 -0.156283
C36   C     C_3   0.211725 0.334028 0.933398 -0.023811
C37   C     C_3   0.144632 0.246735 0.847556 -0.366140
C38   C     C_3   0.758264 0.737679 0.004936 -0.019291
C39   C     C_3   0.843964 0.800387 0.101336 -0.361726
C40   C     C_3   0.458015 0.978532 0.139054 0.011123
C41   C     C_3   0.316711 0.978456 0.145365 -0.283654
C42   C     C_3   0.251351 0.017416 0.040872 -0.480196
C43   C     C_3   0.574424 0.046886 0.836328 -0.007531
C44   C     C_3   0.575796 0.143296 0.932946 -0.245488
C45   C     C_R   0.947434 0.464244 0.592413 -0.032648
C46   C     C_3   0.689267 0.144349 0.019414 -0.510797
C47   C     C_R   0.053217 0.539475 0.409422 -0.032139
C48   C     C_R   0.499041 0.814576 0.534450 -0.068552
C49   C     C_R   0.497983 0.185212 0.465203 -0.065856
C50   C     C_R   0.509200 0.012613 0.342713 0.266092
Cu1   Cu    Cu3+1 0.509250 0.507730 0.615930 0.929656
Cu2   Cu    Cu3+1 0.490750 0.492270 0.384070 0.933061
H1    H     H_    0.247726 0.707371 0.075064 0.109347
H2    H     H_    0.809115 0.288352 0.584180 0.096861
H3    H     H_    0.019517 0.474908 0.173445 0.093592
H4    H     H_    0.972965 0.553402 0.821889 0.091505
H5    H     H_    0.109452 0.553304 0.020593 0.088232
H6    H     H_    0.879138 0.494390 0.985559 0.108268
H7    H     H_    0.867433 0.559263 0.341503 0.132353
H8    H     H_    0.132881 0.443188 0.659706 0.124465
H9    H     H_    0.519435 0.810156 0.351912 0.190590
H10   H     H_    0.475066 0.189067 0.647340 0.180014
H11   H     H_    0.476362 0.842823 0.719986 0.127557
H12   H     H_    0.749070 0.335812 0.949581 0.111036
H13   H     H_    0.526631 0.160266 0.283273 0.122452
H14   H     H_    0.203136 0.406647 0.895178 0.121939
H15   H     H_    0.165925 0.345619 0.017049 0.130699
H16   H     H_    0.150048 0.172807 0.882597 0.160544
H17   H     H_    0.045780 0.267574 0.833091 0.114191
H18   H     H_    0.187470 0.234834 0.762620 0.165164
H19   H     H_    0.721212 0.791283 0.946438 0.117921
H20   H     H_    0.814306 0.674809 0.955700 0.120154
H21   H     H_    0.882904 0.748900 0.161332 0.162609
H22   H     H_    0.921431 0.833852 0.062574 0.088491
H23   H     H_    0.409469 0.387429 0.785356 0.165709
H24   H     H_    0.791988 0.865218 0.151777 0.182122
H25   H     H_    0.480161 0.921970 0.059934 0.165361
H26   H     H_    0.491325 0.054715 0.125273 0.118276
H27   H     H_    0.284706 0.897856 0.145455 0.157753
H28   H     H_    0.290035 0.029643 0.226569 0.161425
H29   H     H_    0.278164 0.099796 0.041708 0.174112
H30   H     H_    0.149456 0.013800 0.045559 0.138369
H31   H     H_    0.276104 0.968037 0.957791 0.166393
H32   H     H_    0.660429 0.048429 0.789404 0.119748
H33   H     H_    0.574453 0.975385 0.876266 0.121911
H34   H     H_    0.592521 0.611488 0.215374 0.178139
H35   H     H_    0.575661 0.214869 0.893627 0.185191
H36   H     H_    0.490199 0.144859 0.979569 0.200646
H37   H     H_    0.692470 0.072380 0.058265 0.152328
H38   H     H_    0.685099 0.213333 0.090730 0.151441
H39   H     H_    0.775412 0.149063 0.974600 0.143255
H40   H     H_    0.632998 0.654456 0.814350 0.113424
H41   H     H_    0.361438 0.346608 0.181949 0.133119
H42   H     H_    0.291520 0.787347 0.284122 0.115086
H43   H     H_    0.716228 0.230909 0.748562 0.102244
H44   H     H_    0.200188 0.712566 0.437736 0.097185
N1    N     N_R   0.523180 0.519350 0.790130 -0.260497
N2    N     N_R   0.476820 0.480650 0.209870 -0.270462
O1    O     O_R   0.506570 0.354460 0.582000 -0.511579
O2    O     O_3   0.659901 0.696596 0.055884 -0.575992
O3    O     O_3   0.523171 0.946014 0.236225 -0.579600
O4    O     O_3   0.465873 0.048813 0.761426 -0.573306
O5    O     O_R   0.493430 0.645540 0.418000 -0.510467
O6    O     O_R   0.490940 0.341410 0.386200 -0.511908
O7    O     O_R   0.509060 0.658590 0.613800 -0.512840
O8    O     O_R   0.327460 0.506540 0.597900 -0.512491
O9    O     O_R   0.672540 0.493460 0.402100 -0.511846
O10   O     O_R   0.311830 0.493480 0.402100 -0.487379
O11   O     O_R   0.688170 0.506520 0.597900 -0.485725
O12   O     O_3   0.336836 0.305626 0.951572 -0.593633

loop_
_geom_bond_atom_site_label_1
_geom_bond_atom_site_label_2
_ccdc_geom_bond_type
Cu1   N1    S    
C15   H23   S    
Cu2   O5    S    
C23   C45   A    
C37   H17   S    
C27   C29   A    
C41   C42   S    
C14   C18   A    
C2    C7    A    
C42   H30   S    
C12   C48   S    
C1    O1    A    
C41   H28   S    
C3    C49   A    
C36   H15   S    
C7    C8    A    
C46   H37   S    
C15   C19   A    
C4    H11   S    
C17   C23   S    
C6    C48   A    
C11   N2    A    
C6    H9    S    
C36   C37   S    
C24   C26   A    
C18   C19   A    
C17   O9    A    
C38   C39   S    
C27   H3    S    
C2    O4    S    
C24   H2    S    
C37   H16   S    
C34   C35   A    
C39   H22   S    
C26   C45   S    
C16   C34   S    
C40   O3    S    
C9    C19   A    
Cu2   O9    S    
C23   C33   A    
C22   C25   A    
C44   H35   S    
C25   C47   S    
C16   O8    A    
C11   H41   S    
C33   H7    S    
C37   H18   S    
C43   H32   S    
C5    C49   A    
C3    H13   S    
C42   H29   S    
C15   N1    A    
C3    C50   A    
C44   C46   S    
C14   N2    A    
Cu1   O1    S    
C21   C32   A    
C38   H20   S    
Cu1   Cu2   S    
C43   H33   S    
C14   H34   S    
C12   O5    A    
C38   O2    S    
C5    C7    A    
C6    C8    A    
C46   H39   S    
C21   H43   S    
C35   H8    S    
C2    C4    A    
C43   C44   S    
Cu1   O7    S    
C39   H24   S    
C31   H1    S    
C10   O2    S    
C9    C11   A    
C1    O6    A    
C32   H12   S    
C40   C41   S    
C20   C22   A    
C13   H40   S    
C36   O12   S    
C33   C47   A    
C40   H26   S    
C35   C45   A    
C8    C50   A    
C4    C48   A    
C9    O12   S    
C20   H42   S    
C38   H19   S    
Cu2   O6    S    
C22   H44   S    
C42   H31   S    
C29   H5    S    
C10   C13   A    
C17   O11   A    
C41   H27   S    
C46   H38   S    
C25   C27   A    
C26   C28   A    
C28   C30   A    
C43   O4    S    
C29   C31   A    
C30   C32   A    
C12   O7    A    
C10   C18   A    
Cu1   O8    S    
C30   H6    S    
Cu2   N2    S    
C5    H10   S    
C36   H14   S    
C39   H21   S    
C13   N1    A    
C16   O10   A    
Cu2   O10   S    
C50   O3    S    
Cu1   O11   S    
C21   C24   A    
C40   H25   S    
C34   C47   A    
C44   H36   S    
C1    C49   S    
C28   H4    S    
C20   C31   A    
