data_mof_unit_20420.cif
_audit_creation_date              2012-12-10T17:26:22-0500
_audit_creation_method            fapswitch 2.2
_symmetry_space_group_name_H-M    P1
_symmetry_Int_Tables_number       1
_space_group_crystal_system       triclinic
_cell_length_a                    10.096056
_cell_length_b                    10.811764
_cell_length_c                    26.751013
_cell_angle_alpha                 89.834065
_cell_angle_beta                  81.182022
_cell_angle_gamma                 95.440578
_cell_volume                      2872.07429892

loop_
_atom_site_label
_atom_site_type_symbol
_atom_type_description
_atom_site_fract_x
_atom_site_fract_y
_atom_site_fract_z
_atom_type_partial_charge
C1    C     C_R   0.556397 0.732828 0.498035 0.940761
C2    C     C_R   0.275838 0.626415 0.149673 0.019979
C3    C     C_R   0.488467 0.486901 0.650717 -0.258763
C4    C     C_R   0.493667 0.494228 0.351583 -0.219137
C5    C     C_R   0.279325 0.630857 0.044032 0.120665
C6    C     C_R   0.255658 0.399495 0.995613 0.131805
C7    C     C_R   0.214045 0.406614 0.048307 -0.122003
C8    C     C_R   0.293586 0.627243 0.990327 -0.167737
C9    C     C_R   0.244150 0.518258 0.072404 0.021027
C10   C     C_R   0.296836 0.510296 0.966719 0.011001
C11   C     C_R   0.307826 0.741020 0.070369 -0.194293
C12   C     C_R   0.443617 0.267176 0.504600 0.963143
C13   C     C_R   0.267891 0.284231 0.971805 -0.163405
C14   C     C_R   0.302732 0.739100 0.122637 -0.182542
C15   C     C_R   0.314517 0.278128 0.920375 -0.196539
C16   C     C_R   0.498783 0.497422 0.595167 0.951434
C17   C     C_R   0.499582 0.499637 0.405428 0.992822
C18   C     C_R   0.308797 0.735330 0.959005 0.315208
C19   C     C_R   0.140753 0.306490 0.077734 0.265127
C20   C     C_2   0.588540 0.864867 0.501446 -0.378801
C21   C     C_2   0.411485 0.135119 0.511776 -0.362157
C22   C     C_2   0.487810 0.933806 0.516717 -0.135477
C23   C     C_R   0.340684 0.503815 0.914037 -0.123813
C24   C     C_2   0.512167 0.066043 0.515437 -0.174519
C25   C     C_2   0.927726 0.511993 0.503569 -0.125248
C26   C     C_2   0.072855 0.490014 0.495529 -0.141215
C27   C     C_R   0.417651 0.603186 0.831995 0.635445
C28   C     C_R   0.228910 0.406071 0.204530 0.672738
C29   C     C_R   0.396319 0.381916 0.839120 0.571223
C30   C     C_R   0.290618 0.618869 0.200491 0.596182
C31   C     C_R   0.338260 0.465212 0.731464 0.457045
C32   C     C_R   0.471066 0.601946 0.274714 0.527278
C33   C     C_R   0.358207 0.472747 0.678927 -0.401711
C34   C     C_R   0.242284 0.516207 0.125007 -0.149922
C35   C     C_R   0.506372 0.603549 0.323562 -0.455744
C36   C     C_R   0.601247 0.491330 0.676289 0.308558
C37   C     C_R   0.467103 0.380310 0.328767 0.275906
C38   C     C_R   0.581094 0.495695 0.729836 0.345108
C39   C     C_R   0.411185 0.378226 0.282760 0.370675
C40   C     C_R   0.449628 0.480928 0.756844 0.097365
C41   C     C_R   0.391429 0.495057 0.260626 0.023116
C42   C     C_3   0.782600 0.383996 0.650822 0.149365
C43   C     C_3   0.935582 0.402962 0.640843 -0.844171
C44   C     C_3   0.627902 0.253918 0.340167 0.103639
C45   C     C_R   0.375800 0.613658 0.884423 -0.236042
C46   C     C_3   0.654837 0.136283 0.366698 -0.840055
C47   C     C_3   0.754338 0.630675 0.749224 0.158021
C48   C     C_3   0.813947 0.668518 0.796442 -0.827895
C49   C     C_3   0.357250 0.160469 0.282842 0.216949
C50   C     C_3   0.285978 0.065584 0.251915 -0.799390
C51   C     C_3   0.516288 0.895317 0.887405 0.129265
C52   C     C_3   0.563121 0.999263 0.848542 -0.725437
C53   C     C_3   0.064750 0.084344 0.137267 0.162343
C54   C     C_3   0.044488 0.974793 0.174395 -0.872493
C55   C     C_3   0.573110 0.806481 0.256351 0.154353
C56   C     C_R   0.204805 0.404807 0.153639 -0.199787
C57   C     C_3   0.607661 0.901220 0.213047 -0.817319
C58   C     C_3   0.143334 0.338983 0.753208 0.082277
C59   C     C_3   0.004746 0.329219 0.785397 -0.789151
C60   C     C_3   0.119577 0.832933 0.978891 0.105963
C61   C     C_3   0.065840 0.957449 0.991063 -0.789569
C62   C     C_3   0.934816 0.279528 0.053060 0.111433
C63   C     C_3   0.839225 0.190581 0.028479 -0.856555
C64   C     C_R   0.361422 0.729833 0.907503 0.428743
C65   C     C_R   0.144504 0.299167 0.130954 0.429229
C66   C     C_R   0.350835 0.387033 0.891108 0.014951
H1    H     H_    0.108768 0.420967 0.468715 0.172575
H2    H     H_    0.970210 0.451170 0.603939 0.258796
H3    H     H_    0.973343 0.459912 0.671113 0.258688
H4    H     H_    0.694220 0.332653 0.352288 0.172117
H5    H     H_    0.655273 0.242587 0.298576 0.149217
H6    H     H_    0.591575 0.055052 0.355005 0.238108
H7    H     H_    0.762510 0.119904 0.356565 0.212196
H8    H     H_    0.631341 0.146120 0.408326 0.273346
H9    H     H_    0.308235 0.094350 0.513269 0.150565
H10   H     H_    0.691820 0.905718 0.491068 0.150371
H11   H     H_    0.120206 0.616287 0.545071 0.164677
H12   H     H_    0.892059 0.581944 0.529997 0.183133
H13   H     H_    0.879539 0.382824 0.455312 0.162913
H14   H     H_    0.685812 0.701766 0.742016 0.160063
H15   H     H_    0.837627 0.632153 0.716790 0.184283
H16   H     H_    0.888304 0.603968 0.803730 0.267886
H17   H     H_    0.865311 0.764175 0.791265 0.213467
H18   H     H_    0.732729 0.666416 0.829615 0.250416
H19   H     H_    0.286766 0.175934 0.318141 0.167220
H20   H     H_    0.447001 0.118099 0.291529 0.162702
H21   H     H_    0.342663 0.062288 0.213009 0.261677
H22   H     H_    0.278284 0.972110 0.270057 0.222759
H23   H     H_    0.330079 0.824620 0.141196 0.168740
H24   H     H_    0.182623 0.089880 0.250283 0.304015
H25   H     H_    0.594194 0.827816 0.883187 0.111039
H26   H     H_    0.508776 0.935768 0.925841 0.151237
H27   H     H_    0.488252 0.068510 0.851604 0.284647
H28   H     H_    0.661428 0.045920 0.855324 0.186450
H29   H     H_    0.574998 0.960969 0.809801 0.271612
H30   H     H_    0.150850 0.068347 0.107389 0.150267
H31   H     H_    0.969086 0.083942 0.121602 0.192200
H32   H     H_    0.975582 0.995382 0.209238 0.272975
H33   H     H_    0.999788 0.891322 0.156652 0.218115
H34   H     H_    0.322587 0.187447 0.903747 0.192545
H35   H     H_    0.142413 0.952745 0.184086 0.262077
H36   H     H_    0.546028 0.687725 0.340053 0.146542
H37   H     H_    0.269918 0.468714 0.660326 0.207649
H38   H     H_    0.666788 0.796626 0.272541 0.132837
H39   H     H_    0.494926 0.842476 0.285144 0.146312
H40   H     H_    0.517635 0.911277 0.194759 0.264887
H41   H     H_    0.642162 0.992803 0.227690 0.205524
H42   H     H_    0.689267 0.870680 0.184419 0.250949
H43   H     H_    0.200733 0.265158 0.766119 0.188708
H44   H     H_    0.129462 0.322080 0.713262 0.133552
H45   H     H_    0.343494 0.828492 0.051299 0.197589
H46   H     H_    0.942530 0.397610 0.771718 0.276673
H47   H     H_    0.953635 0.234433 0.782702 0.208147
H48   H     H_    0.014309 0.347614 0.825585 0.258057
H49   H     H_    0.071644 0.765096 0.009247 0.140399
H50   H     H_    0.089595 0.802377 0.942067 0.153474
H51   H     H_    0.107392 0.026103 0.960381 0.263035
H52   H     H_    0.954364 0.947013 0.994505 0.201040
H53   H     H_    0.094681 0.991082 0.027354 0.268062
H54   H     H_    0.954065 0.367368 0.030101 0.153300
H55   H     H_    0.884495 0.299244 0.091894 0.148913
H56   H     H_    0.248572 0.197666 0.993105 0.194610
H57   H     H_    0.817013 0.101838 0.050501 0.246963
H58   H     H_    0.743430 0.232498 0.027403 0.216963
H59   H     H_    0.885265 0.171705 0.989160 0.262354
H60   H     H_    0.615729 0.106370 0.513818 0.185144
H61   H     H_    0.384219 0.893422 0.527000 0.189521
H62   H     H_    0.746947 0.324201 0.620862 0.149728
H63   H     H_    0.753172 0.333946 0.688001 0.154727
H64   H     H_    0.977661 0.311641 0.640148 0.202180
N1    N     N_R   0.426579 0.488847 0.810807 -0.299984
N2    N     N_R   0.304461 0.505566 0.221420 -0.332345
N3    N     N_2   0.842700 0.448890 0.480020 -0.195744
N4    N     N_2   0.157300 0.551110 0.519980 -0.197543
O1    O     O_R   0.431060 0.692470 0.504020 -0.610953
O2    O     O_2   0.169197 0.315754 0.237224 -0.501828
O3    O     O_2   0.286387 0.721946 0.228726 -0.570921
O4    O     O_2   0.408119 0.271081 0.816693 -0.611124
O5    O     O_3   0.730380 0.500672 0.649512 -0.606717
O6    O     O_3   0.490220 0.273005 0.353015 -0.645553
O7    O     O_3   0.688502 0.509054 0.756594 -0.610943
O8    O     O_3   0.398636 0.271195 0.253886 -0.597401
O9    O     O_3   0.389376 0.839066 0.879223 -0.535254
O10   O     O_3   0.088384 0.197322 0.162545 -0.575181
O11   O     O_3   0.524890 0.691709 0.237398 -0.582223
O12   O     O_R   0.568940 0.307530 0.495980 -0.620444
O13   O     O_3   0.209475 0.458189 0.758717 -0.596522
O14   O     O_3   0.261101 0.845482 0.976433 -0.620327
O15   O     O_3   0.055637 0.224642 0.054936 -0.661900
O16   O     O_R   0.651120 0.659650 0.491200 -0.611719
O17   O     O_R   0.348880 0.340350 0.508800 -0.613648
O18   O     O_R   0.389980 0.516390 0.577660 -0.620605
O19   O     O_R   0.610020 0.483610 0.422340 -0.613477
O20   O     O_R   0.610040 0.483570 0.564830 -0.577497
O21   O     O_R   0.389960 0.516430 0.435170 -0.603563
O22   O     O_2   0.445772 0.705641 0.801941 -0.534908
Zn1   Zn    Zn3+2 0.353060 0.521910 0.508560 0.940903
Zn2   Zn    Zn3+2 0.646940 0.478090 0.491440 0.947229

loop_
_geom_bond_atom_site_label_1
_geom_bond_atom_site_label_2
_ccdc_geom_bond_type
C34   C56   A    
O1    Zn1   S    
C62   O15   S    
O21   Zn1   S    
C58   H43   S    
C27   N1    A    
C54   H35   S    
C15   H34   S    
C35   H36   S    
C17   O19   A    
C63   H58   S    
C28   C56   A    
C39   C41   A    
C53   C54   S    
C29   O4    S    
C55   H39   S    
C23   C45   A    
C26   H1    S    
O17   Zn1   S    
C23   C66   A    
O20   Zn2   S    
C18   O14   S    
C11   C14   A    
C55   O11   S    
C61   H53   S    
C27   C45   A    
C3    C33   A    
C56   C65   A    
C31   C40   A    
C20   H10   S    
C44   H5    S    
N3    Zn2   S    
C12   O12   A    
O19   Zn2   S    
C51   H25   S    
C50   H24   S    
C43   H2    S    
C37   O6    S    
C32   C41   A    
C31   C33   A    
C44   H4    S    
C25   N3    D    
C46   H6    S    
C42   H62   S    
C31   O13   S    
C2    C34   A    
C57   H40   S    
C61   H52   S    
C4    C35   A    
C43   H3    S    
C30   O3    S    
C28   O2    S    
C53   H30   S    
C24   H60   S    
C52   H29   S    
C12   O17   A    
C47   H14   S    
C44   C46   S    
H13   N3    S    
C61   H51   S    
C25   H12   S    
C32   C35   A    
C49   H19   S    
C1    O16   A    
C65   O10   S    
C58   O13   S    
C32   O11   S    
C53   H31   S    
C25   C26   S    
C15   C66   A    
C11   H45   S    
C55   H38   S    
C8    C18   A    
C48   H18   S    
C60   C61   S    
C28   N2    A    
C14   H23   S    
C5    C9    A    
C62   C63   S    
C26   N4    D    
C51   H26   S    
C41   N2    S    
C47   C48   S    
C39   O8    S    
C59   H47   S    
C49   O8    S    
N4    Zn1   S    
C59   H46   S    
C52   H27   S    
C16   O18   A    
C52   H28   S    
C33   H37   S    
C63   H59   S    
C50   H21   S    
C4    C17   S    
C8    C10   A    
C57   H41   S    
C40   N1    S    
C20   C22   D    
C7    C19   A    
C55   C57   S    
C16   O20   A    
C9    C34   A    
C38   O7    S    
C22   C24   S    
C54   H33   S    
C60   H50   S    
C42   C43   S    
C17   O21   A    
C46   H8    S    
C27   O22   S    
C7    C9    A    
C47   O7    S    
O18   Zn1   S    
C1    C20   S    
O16   Zn2   S    
C62   H55   S    
C42   O5    S    
C58   H44   S    
C62   H54   S    
C49   H20   S    
C43   H64   S    
C6    C10   A    
C5    C8    A    
C63   H57   S    
C5    C11   A    
C6    C7    A    
O12   Zn2   S    
C64   O9    S    
C51   O9    S    
C10   C23   A    
C21   H9    S    
C45   C64   A    
C48   H17   S    
C2    C30   A    
C53   O10   S    
C13   C15   A    
C58   C59   S    
C51   C52   S    
C37   C39   A    
C6    C13   A    
C38   C40   A    
C13   H56   S    
C18   C64   A    
C22   H61   S    
C29   N1    A    
C3    C36   A    
C59   H48   S    
C30   N2    A    
C12   C21   S    
C36   C38   A    
C19   O15   S    
C48   H16   S    
C19   C65   A    
C42   H63   S    
C47   H15   S    
C2    C14   A    
C36   O5    S    
C29   C66   A    
C57   H42   S    
C4    C37   A    
C44   O6    S    
C49   C50   S    
H11   N4    S    
C21   C24   D    
C54   H32   S    
C60   H49   S    
C50   H22   S    
C60   O14   S    
C1    O1    A    
C46   H7    S    
C3    C16   S    
