data_mof_unit_11843.cif
_audit_creation_date              2013-03-05T15:46:17-0500
_audit_creation_method            fapswitch 2.2
_symmetry_space_group_name_H-M    P1
_symmetry_Int_Tables_number       1
_space_group_crystal_system       triclinic
_cell_length_a                    17.536858
_cell_length_b                    24.391137
_cell_length_c                    14.831986
_cell_angle_alpha                 90.063936
_cell_angle_beta                  125.906981
_cell_angle_gamma                 90.067135
_cell_volume                      5138.67083339

loop_
_atom_site_label
_atom_site_type_symbol
_atom_site_description
_atom_site_fract_x
_atom_site_fract_y
_atom_site_fract_z
_atom_type_partial_charge
C1    C     C_R   0.812752 0.629238 0.907067 0.412141
C2    C     C_R   0.141250 0.345321 0.091012 0.457333
C3    C     C_R   0.141506 0.654715 0.091360 0.317847
C4    C     C_R   0.812001 0.371536 0.906795 0.418106
C5    C     C_R   0.312752 0.129238 0.907067 0.412141
C6    C     C_R   0.641249 0.845321 0.091012 0.457341
C7    C     C_R   0.641505 0.154715 0.091360 0.317848
C8    C     C_R   0.312001 0.871536 0.906795 0.418106
N1    N     N_R   0.892620 0.603790 0.941800 -0.108910
N2    N     N_R   0.107380 0.396210 0.058200 -0.126998
N3    N     N_R   0.107380 0.603790 0.058200 -0.130964
N4    N     N_R   0.892620 0.396210 0.941800 -0.123103
N5    N     N_R   0.392620 0.103790 0.941800 -0.108909
N6    N     N_R   0.607380 0.896210 0.058200 -0.127000
N7    N     N_R   0.607380 0.103790 0.058200 -0.130965
N8    N     N_R   0.392620 0.896210 0.941800 -0.123102
C9    C     C_R   0.904996 0.373390 0.093308 0.484677
C10   C     C_R   0.049261 0.653555 0.908675 0.545391
C11   C     C_R   0.048490 0.346335 0.908244 0.513752
C12   C     C_R   0.905043 0.626595 0.093437 0.478111
C13   C     C_R   0.404996 0.873390 0.093308 0.484676
C14   C     C_R   0.549261 0.153555 0.908675 0.545390
C15   C     C_R   0.548490 0.846335 0.908243 0.513752
C16   C     C_R   0.405043 0.126595 0.093437 0.478111
N9    N     N_R   0.952210 0.397600 0.057910 -0.115597
N10   N     N_R   0.047790 0.602400 0.942090 -0.141643
N11   N     N_R   0.047790 0.397600 0.942090 -0.145145
N12   N     N_R   0.952210 0.602400 0.057910 -0.115546
N13   N     N_R   0.452210 0.897600 0.057910 -0.115597
N14   N     N_R   0.547790 0.102400 0.942090 -0.141644
N15   N     N_R   0.547790 0.897600 0.942090 -0.145148
N16   N     N_R   0.452210 0.102400 0.057910 -0.115546
C17   C     C_R   0.056201 0.545083 0.309157 0.520835
C18   C     C_R   0.017114 0.453558 0.748566 0.421559
C19   C     C_R   0.018961 0.545638 0.749960 0.460450
C20   C     C_R   0.056457 0.454888 0.309027 0.528712
C21   C     C_R   0.556201 0.045083 0.309157 0.520835
C22   C     C_R   0.517114 0.953558 0.748566 0.421558
C23   C     C_R   0.518960 0.045638 0.749960 0.460451
C24   C     C_R   0.556458 0.954888 0.309027 0.528713
N17   N     N_R   0.026300 0.529110 0.206760 -0.154890
N18   N     N_R   0.973700 0.470890 0.793240 -0.152475
N19   N     N_R   0.973700 0.529110 0.793240 -0.116899
N20   N     N_R   0.026300 0.470890 0.206760 -0.154269
N21   N     N_R   0.526300 0.029110 0.206760 -0.154890
N22   N     N_R   0.473700 0.970890 0.793240 -0.152474
N23   N     N_R   0.473700 0.029110 0.793240 -0.116900
N24   N     N_R   0.526300 0.970890 0.206760 -0.154269
C25   C     C_R   0.743907 0.454528 0.694909 -0.061227
C26   C     C_R   0.267060 0.545497 0.241740 -0.075267
C27   C     C_R   0.267390 0.454882 0.241857 -0.018188
C28   C     C_R   0.739967 0.544353 0.696516 -0.128396
C29   C     C_R   0.243906 0.954528 0.694909 -0.061234
C30   C     C_R   0.767060 0.045497 0.241739 -0.075245
C31   C     C_R   0.767389 0.954882 0.241856 -0.018192
C32   C     C_R   0.239966 0.044353 0.696517 -0.128395
N25   N     N_R   0.818530 0.472270 0.792960 -0.100174
N26   N     N_R   0.181470 0.527730 0.207040 -0.048621
N27   N     N_R   0.181470 0.472270 0.207040 -0.068367
N28   N     N_R   0.818530 0.527730 0.792960 -0.060530
N29   N     N_R   0.318530 0.972270 0.792960 -0.100174
N30   N     N_R   0.681470 0.027730 0.207040 -0.048621
N31   N     N_R   0.681470 0.972270 0.207040 -0.068362
N32   N     N_R   0.318530 0.027730 0.792960 -0.060530
C33   C     C_R   0.813020 0.638391 0.000293 -0.148883
C34   C     C_R   0.114855 0.314619 0.998410 -0.115006
C35   C     C_R   0.115876 0.685251 0.999148 -0.126335
C36   C     C_R   0.812608 0.361924 0.000195 -0.144213
C37   C     C_R   0.313020 0.138391 0.000293 -0.148884
C38   C     C_R   0.614854 0.814619 0.998410 -0.115016
C39   C     C_R   0.615876 0.185251 0.999148 -0.126336
C40   C     C_R   0.312608 0.861924 0.000195 -0.144214
C41   C     C_R   0.058060 0.499902 0.367806 -0.100139
C42   C     C_R   0.056226 0.499332 0.732159 -0.126848
C43   C     C_R   0.558060 0.999902 0.367806 -0.100139
C44   C     C_R   0.556226 0.999332 0.732159 -0.126850
C45   C     C_R   0.686964 0.498749 0.642282 0.002663
C46   C     C_R   0.322805 0.500532 0.261300 -0.028845
C47   C     C_R   0.186963 0.998749 0.642285 0.002667
C48   C     C_R   0.822804 0.000532 0.261299 -0.028887
Ni1   Ni    Ni4+2 0.934150 0.565840 0.869060 0.324757
Ni2   Ni    Ni4+2 0.065850 0.434160 0.130940 0.311277
Ni3   Ni    Ni4+2 0.065850 0.565840 0.130940 0.333910
Ni4   Ni    Ni4+2 0.934150 0.434160 0.869060 0.256981
Ni5   Ni    Ni4+2 0.434150 0.065840 0.869060 0.324757
Ni6   Ni    Ni4+2 0.565850 0.934160 0.130940 0.311277
Ni7   Ni    Ni4+2 0.565850 0.065840 0.130940 0.333909
Ni8   Ni    Ni4+2 0.434150 0.934160 0.869060 0.256980
C49   C     C_3   0.523577 0.452092 0.490609 -0.131761
C50   C     C_3   0.498793 0.548024 0.389851 -0.187776
C51   C     C_3   0.501706 0.458950 0.374539 -0.163345
C52   C     C_3   0.520461 0.540982 0.505592 -0.167453
C53   C     C_3   0.023576 0.952093 0.490613 -0.131764
C54   C     C_3   0.998793 0.048023 0.389851 -0.187783
C55   C     C_3   0.001706 0.958949 0.374543 -0.163371
C56   C     C_3   0.020459 0.040983 0.505591 -0.167459
C57   C     C_3   0.448264 0.494513 0.462809 -0.127531
C58   C     C_3   0.575907 0.505624 0.419396 -0.095881
C59   C     C_3   0.948262 0.994514 0.462808 -0.127504
C60   C     C_3   0.075907 0.005623 0.419400 -0.095803
H1    H     H_    0.396208 0.490118 0.482270 0.182371
H2    H     H_    0.630580 0.510061 0.404263 0.180536
H3    H     H_    0.896205 0.990120 0.482268 0.182370
H4    H     H_    0.130582 0.010059 0.404268 0.180540
C61   C     C_3   0.425627 0.501354 0.345268 0.120351
C62   C     C_3   0.595901 0.498547 0.534453 0.095760
C63   C     C_3   0.925627 0.001353 0.345268 0.120318
C64   C     C_3   0.095899 0.998547 0.534456 0.095733
C65   C     C_R   0.656437 0.316609 0.897428 -0.189335
C66   C     C_R   0.193528 0.776360 0.091257 -0.207893
C67   C     C_R   0.191572 0.223456 0.089520 -0.185312
C68   C     C_R   0.657042 0.683710 0.896353 -0.199158
C69   C     C_R   0.156437 0.816609 0.897428 -0.189331
C70   C     C_R   0.693528 0.276360 0.091256 -0.207898
C71   C     C_R   0.691572 0.723456 0.089519 -0.185313
C72   C     C_R   0.157042 0.183710 0.896353 -0.199156
H5    H     H_    0.631455 0.335685 0.819459 0.250268
H6    H     H_    0.202703 0.766572 0.167219 0.251167
H7    H     H_    0.199234 0.232816 0.164793 0.252074
H8    H     H_    0.633392 0.664759 0.818414 0.230607
H9    H     H_    0.131456 0.835685 0.819459 0.250266
H10   H     H_    0.702703 0.266572 0.167219 0.251167
H11   H     H_    0.699232 0.732815 0.164793 0.252074
H12   H     H_    0.133392 0.164759 0.818414 0.230608
C73   C     C_R   0.126266 0.764257 0.896058 0.538956
C74   C     C_R   0.739473 0.323600 0.093148 0.529322
C75   C     C_R   0.738500 0.676670 0.091901 0.527235
C76   C     C_R   0.125296 0.235635 0.894693 0.553955
C77   C     C_R   0.626266 0.264257 0.896058 0.538958
C78   C     C_R   0.239473 0.823600 0.093148 0.529325
C79   C     C_R   0.238500 0.176670 0.091902 0.527237
C80   C     C_R   0.625295 0.735635 0.894692 0.553954
C81   C     C_R   0.143248 0.742584 0.995028 -0.055818
C82   C     C_R   0.733833 0.337030 0.997715 -0.064755
C83   C     C_R   0.734161 0.663594 0.997112 -0.055262
C84   C     C_R   0.141791 0.257250 0.993638 -0.056428
C85   C     C_R   0.643248 0.242584 0.995028 -0.055817
C86   C     C_R   0.233833 0.837030 0.997715 -0.064757
C87   C     C_R   0.234161 0.163594 0.997112 -0.055262
C88   C     C_R   0.641790 0.757249 0.993638 -0.056427
C89   C     C_R   0.126368 0.450482 0.650253 0.410309
C90   C     C_R   0.097099 0.549319 0.542065 0.423645
C91   C     C_R   0.094289 0.449323 0.539355 0.424820
C92   C     C_R   0.129872 0.547139 0.653129 0.396949
C93   C     C_R   0.626368 0.950482 0.650253 0.410310
C94   C     C_R   0.597100 0.049319 0.542065 0.423645
C95   C     C_R   0.594289 0.949323 0.539355 0.424821
C96   C     C_R   0.629871 0.047139 0.653129 0.396950
C97   C     C_R   0.083346 0.499555 0.483496 -0.282306
C98   C     C_R   0.117703 0.498860 0.692892 -0.235574
C99   C     C_R   0.583346 0.999555 0.483496 -0.282306
C100  C     C_R   0.617703 0.998860 0.692892 -0.235577
Cl1   Cl    Cl    0.759160 0.673275 0.791211 -0.520814
Cl2   Cl    Cl    0.149535 0.317739 0.206009 -0.508903
Cl3   Cl    Cl    0.148306 0.682603 0.205322 -0.472027
Cl4   Cl    Cl    0.752293 0.331425 0.784717 -0.529343
Cl5   Cl    Cl    0.259160 0.173275 0.791211 -0.520813
Cl6   Cl    Cl    0.649534 0.817739 0.206009 -0.508899
Cl7   Cl    Cl    0.648306 0.182603 0.205322 -0.472027
Cl8   Cl    Cl    0.252293 0.831424 0.784718 -0.529342
Cl9   Cl    Cl    0.963087 0.335710 0.217344 -0.392725
Cl10  Cl    Cl    0.944142 0.685399 0.802628 -0.379408
Cl11  Cl    Cl    0.942613 0.314351 0.803199 -0.464346
Cl12  Cl    Cl    0.962975 0.663672 0.218515 -0.382561
Cl13  Cl    Cl    0.463087 0.835711 0.217344 -0.392727
Cl14  Cl    Cl    0.444142 0.185398 0.802628 -0.379408
Cl15  Cl    Cl    0.442613 0.814351 0.803198 -0.464343
Cl16  Cl    Cl    0.462975 0.163672 0.218515 -0.382561
Cl17  Cl    Cl    0.148899 0.593066 0.377101 -0.389149
Cl18  Cl    Cl    0.976199 0.394978 0.663499 -0.436584
Cl19  Cl    Cl    0.986369 0.605783 0.670938 -0.371408
Cl20  Cl    Cl    0.149766 0.407393 0.376877 -0.492378
Cl21  Cl    Cl    0.648900 0.093066 0.377101 -0.389149
Cl22  Cl    Cl    0.476199 0.894979 0.663498 -0.436581
Cl23  Cl    Cl    0.486368 0.105783 0.670938 -0.371406
Cl24  Cl    Cl    0.649767 0.907393 0.376877 -0.492377
C101  C     C_2   0.755011 0.410891 0.634286 0.652737
H13   H     H_    0.819185 0.387900 0.677387 0.145198
O1    O     O_2   0.696088 0.401797 0.535579 -0.598426
C102  C     C_2   0.304132 0.599813 0.290130 0.614366
H14   H     H_    0.320382 0.628750 0.248272 0.005095
O2    O     O_2   0.319771 0.612113 0.379269 -0.481415
C103  C     C_2   0.305241 0.401278 0.294261 0.477669
H15   H     H_    0.302972 0.388690 0.362658 0.138599
O3    O     O_2   0.337942 0.370283 0.260634 -0.577396
C104  C     C_2   0.736503 0.591044 0.631578 0.742236
H16   H     H_    0.670220 0.609661 0.567269 -0.058584
O4    O     O_2   0.807747 0.607387 0.644653 -0.450039
C105  C     C_2   0.255008 0.910891 0.634285 0.652743
H17   H     H_    0.319184 0.887901 0.677385 0.145195
O5    O     O_2   0.196082 0.901794 0.535580 -0.598412
C106  C     C_2   0.804132 0.099813 0.290128 0.614365
H18   H     H_    0.820384 0.128750 0.248271 0.005090
O6    O     O_2   0.819770 0.112114 0.379266 -0.481414
C107  C     C_2   0.805240 0.901278 0.294258 0.477637
H19   H     H_    0.802974 0.888689 0.362656 0.138608
O7    O     O_2   0.837938 0.870282 0.260626 -0.577440
C108  C     C_2   0.236502 0.091044 0.631578 0.742232
H20   H     H_    0.170219 0.109661 0.567269 -0.058587
O8    O     O_2   0.307746 0.107387 0.644653 -0.450039
C109  C     C_2   0.532001 0.399135 0.546744 0.637676
H21   H     H_    0.531463 0.360490 0.510189 0.083622
O9    O     O_2   0.539987 0.399354 0.634157 -0.525548
C110  C     C_2   0.494666 0.600378 0.334658 0.543517
H22   H     H_    0.508777 0.639178 0.377586 0.047337
O10   O     O_2   0.476507 0.599511 0.241679 -0.481828
C111  C     C_2   0.498892 0.416081 0.300449 0.775688
H23   H     H_    0.523558 0.374919 0.331530 0.067681
O11   O     O_2   0.471169 0.427667 0.205774 -0.495689
C112  C     C_2   0.526363 0.585443 0.579416 0.632386
H24   H     H_    0.519449 0.628058 0.555061 0.056270
O12   O     O_2   0.539332 0.573835 0.667422 -0.522089
C113  C     C_2   0.031999 0.899137 0.546751 0.637671
H25   H     H_    0.031458 0.860491 0.510197 0.083617
O13   O     O_2   0.039985 0.899359 0.634164 -0.525548
C114  C     C_2   0.994667 0.100377 0.334656 0.543522
H26   H     H_    0.008777 0.139177 0.377583 0.047334
O14   O     O_2   0.976509 0.099508 0.241677 -0.481823
C115  C     C_2   0.998898 0.916078 0.300458 0.775755
H27   H     H_    0.023496 0.874907 0.331516 0.067665
O15   O     O_2   0.971251 0.927672 0.205816 -0.495696
C116  C     C_2   0.026361 0.085445 0.579413 0.632393
H28   H     H_    0.019447 0.128059 0.555057 0.056269
O16   O     O_2   0.039329 0.073838 0.667419 -0.522087
Cl25  Cl    Cl    0.095483 0.725844 0.778365 -0.349620
Cl26  Cl    Cl    0.787306 0.369172 0.206504 -0.448444
Cl27  Cl    Cl    0.785646 0.631068 0.204756 -0.448209
Cl28  Cl    Cl    0.091585 0.273705 0.775694 -0.352735
Cl29  Cl    Cl    0.595483 0.225844 0.778365 -0.349618
Cl30  Cl    Cl    0.287306 0.869172 0.206504 -0.448426
Cl31  Cl    Cl    0.285646 0.131068 0.204756 -0.448203
Cl32  Cl    Cl    0.591584 0.773705 0.775693 -0.352737
Cl33  Cl    Cl    0.183045 0.393157 0.737525 -0.360335
Cl34  Cl    Cl    0.041810 0.611763 0.475456 -0.285919
Cl35  Cl    Cl    0.037528 0.387549 0.469480 -0.287550
Cl36  Cl    Cl    0.191910 0.602857 0.743963 -0.370359
Cl37  Cl    Cl    0.683045 0.893158 0.737525 -0.360343
Cl38  Cl    Cl    0.541810 0.111763 0.475456 -0.285919
Cl39  Cl    Cl    0.537529 0.887548 0.469481 -0.287548
Cl40  Cl    Cl    0.691910 0.102857 0.743963 -0.370361

loop_
_geom_bond_atom_site_label_1
_geom_bond_atom_site_label_2
_geom_bond_distance
_ccdc_geom_bond_type
N2    N11   1.395812 A    
C37   C87   1.489351 S    
C59   H3    1.112242 S    
C19   C42   1.405678 A    
C38   C88   1.492227 S    
C19   Cl19  1.752858 S    
C109  H21   1.084147 S    
C51   C61   1.537238 S    
N5    N16   1.395812 A    
C52   C112  1.499945 S    
C36   C82   1.488914 S    
C18   N18   1.337638 A    
N27   Ni2   1.886295 S    
N6    N15   1.395812 A    
C111  O11   1.220030 D    
C17   Cl17  1.760501 S    
C66   H6    1.067871 S    
C45   C62   1.453392 S    
C65   H5    1.073874 S    
C39   C85   1.490894 S    
C22   C44   1.403858 A    
C113  H25   1.084147 S    
C68   H8    1.076110 S    
C48   C63   1.472652 S    
C32   C47   1.366340 A    
C30   C106  1.463382 S    
C46   C61   1.472649 S    
C17   C41   1.393244 A    
N23   Ni5   1.860746 S    
C90   C97   1.427339 A    
C23   N23   1.342406 A    
N11   Ni4   1.847815 S    
N21   Ni7   1.861174 S    
C75   C83   1.399130 A    
N20   Ni2   1.860748 S    
C17   N17   1.340696 A    
C103  O3    1.218554 D    
C53   C64   1.530676 S    
C7    C39   1.381796 A    
C70   C74   1.396019 A    
C67   C84   1.418463 A    
C22   Cl22  1.754984 S    
C7    Cl7   1.759201 S    
C78   Cl30  1.762210 S    
C79   Cl31  1.762265 S    
N17   Ni3   1.861174 S    
C56   C59   1.530706 S    
C77   Cl29  1.762477 S    
C60   H4    1.110700 S    
C71   C75   1.396062 A    
C52   C57   1.530706 S    
N4    Ni4   1.863740 S    
C11   C34   1.385731 A    
C67   H7    1.067741 S    
C70   C85   1.418727 A    
C91   Cl35  1.765833 S    
C105  O5    1.218447 D    
C25   C101  1.477500 S    
C49   C57   1.533097 S    
C67   C79   1.396059 A    
C49   C109  1.497358 S    
C5    C37   1.397665 A    
C28   N28   1.341549 A    
C6    Cl6   1.759265 S    
C29   N29   1.334078 A    
N22   Ni8   1.861172 S    
C2    N2    1.339528 A    
C30   N30   1.340713 A    
C94   Cl38  1.766128 S    
C43   C99   1.499534 S    
C71   C88   1.418462 A    
C101  O1    1.218447 D    
C93   Cl37  1.765402 S    
C49   C62   1.530675 S    
C16   C37   1.408062 A    
C91   C97   1.428550 A    
C55   C115  1.495695 S    
C32   N32   1.341547 A    
C29   C105  1.477502 S    
C108  H20   1.081148 S    
C78   C86   1.399104 A    
C4    N4    1.329250 A    
C11   N11   1.349645 A    
C53   C59   1.533096 S    
C5    N5    1.329984 A    
C18   Cl18  1.754985 S    
C72   C87   1.391294 A    
C57   C61   1.553639 S    
C7    N7    1.339606 A    
C56   C64   1.531254 S    
C72   C76   1.378508 A    
C8    N8    1.329251 A    
C50   C110  1.496369 S    
C55   C63   1.537241 S    
N12   Ni3   1.847816 S    
C75   Cl27  1.762265 S    
C109  O9    1.219669 D    
C15   C38   1.385730 A    
C6    C38   1.382988 A    
C74   Cl26  1.762209 S    
C28   C104  1.470484 S    
C89   Cl33  1.765402 S    
C73   Cl25  1.762478 S    
C80   Cl32  1.762950 S    
C93   C95   1.391860 A    
C77   C85   1.418537 A    
C102  O2    1.219346 D    
C89   C98   1.388110 A    
C94   C96   1.391589 A    
C113  O13   1.219668 D    
C50   C52   1.535093 S    
C56   C116  1.499944 S    
C54   C63   1.542438 S    
C60   C64   1.537501 S    
C71   H11   1.067741 S    
C92   Cl36  1.766023 S    
C13   C40   1.408577 A    
C53   C113  1.497358 S    
C111  H23   1.084310 S    
C26   N26   1.340712 A    
C12   C33   1.408064 A    
C1    N1    1.329982 A    
C114  H26   1.084227 S    
C16   Cl16  1.753577 S    
C23   Cl23  1.752858 S    
N32   Ni5   1.886296 S    
C20   C41   1.391180 A    
C92   C98   1.388759 A    
C115  H27   1.084290 S    
C24   Cl24  1.762928 S    
C32   C108  1.470485 S    
C55   C60   1.552842 S    
N25   N28   1.352735 A    
C107  H19   1.083053 S    
C12   N12   1.349741 A    
N3    N10   1.395659 A    
N3    Ni3   1.863740 S    
N8    N13   1.395659 A    
C58   H2    1.110699 S    
N16   Ni7   1.847816 S    
C4    C36   1.399149 A    
N2    Ni2   1.863392 S    
C70   H10   1.067869 S    
C1    Cl1   1.761259 S    
C31   N31   1.343950 A    
C106  O6    1.219344 D    
N29   N32   1.352735 A    
C26   C102  1.463380 S    
C103  H15   1.083052 S    
C16   N16   1.349740 A    
N30   N31   1.352735 A    
N29   Ni8   1.889876 S    
C115  O15   1.220007 D    
N28   Ni1   1.886296 S    
C1    C33   1.397667 A    
C54   C60   1.549050 S    
C76   Cl28  1.762950 S    
C3    N3    1.339607 A    
C10   N10   1.348868 A    
C3    Cl3   1.759201 S    
C20   Cl20  1.762928 S    
N18   Ni4   1.861172 S    
C44   C100  1.496058 S    
C11   Cl11  1.756218 S    
C23   C44   1.405678 A    
C68   C80   1.378507 A    
N14   Ni5   1.844391 S    
C54   C56   1.535092 S    
N6    Ni6   1.863392 S    
N13   Ni6   1.844393 S    
C33   C83   1.489350 S    
C9    Cl9   1.753468 S    
C18   C42   1.403857 A    
C34   C84   1.492227 S    
C112  O12   1.220027 D    
C52   C62   1.531257 S    
C4    Cl4   1.761220 S    
C76   C84   1.419614 A    
C110  O10   1.220040 D    
C101  H13   1.071497 S    
N10   Ni1   1.844391 S    
C5    Cl5   1.761257 S    
C30   C48   1.383213 A    
C65   C77   1.377178 A    
N9    Ni2   1.844393 S    
N19   Ni1   1.860746 S    
N17   N20   1.420050 A    
C15   Cl15  1.756218 S    
C20   N20   1.339281 A    
C27   N27   1.343950 A    
N18   N19   1.420050 A    
C68   C83   1.391293 A    
C21   N21   1.340696 A    
C28   C45   1.366338 A    
C8    Cl8   1.761220 S    
C14   C39   1.385612 A    
C26   C46   1.383213 A    
C90   C92   1.391589 A    
C19   N19   1.342405 A    
C102  H14   1.082983 S    
N7    N14   1.395659 A    
N7    Ni7   1.863740 S    
N21   N24   1.420050 A    
C73   C81   1.418537 A    
C105  H17   1.071498 S    
C24   N24   1.339280 A    
N22   N23   1.420050 A    
C116  O16   1.220028 D    
C9    C36   1.408577 A    
N25   Ni4   1.889876 S    
N15   Ni8   1.847815 S    
C72   H12   1.076110 S    
C35   C81   1.490897 S    
C65   C82   1.389802 A    
C96   Cl40  1.766024 S    
C8    C40   1.399149 A    
C54   C114  1.496371 S    
C3    C35   1.381794 A    
C96   C100  1.388763 A    
C50   C61   1.542438 S    
C114  O14   1.220038 D    
C2    C34   1.382987 A    
C25   N25   1.334080 A    
C51   C111  1.495693 S    
C95   Cl39  1.765836 S    
C80   C88   1.419616 A    
C59   C63   1.553640 S    
N30   Ni7   1.889875 S    
C27   C103  1.467428 S    
C58   C62   1.537503 S    
C24   C43   1.391181 A    
N4    N9    1.395659 A    
C29   C47   1.363813 A    
C106  H18   1.082985 S    
C89   C91   1.391859 A    
N26   N27   1.352735 A    
C27   C46   1.391178 A    
C9    N9    1.348828 A    
C6    N6    1.339528 A    
N31   Ni6   1.886295 S    
C14   N14   1.348868 A    
N26   Ni3   1.889875 S    
C31   C48   1.391176 A    
C10   Cl10  1.755176 S    
C2    Cl2   1.759265 S    
C13   N13   1.348829 A    
C95   C99   1.428548 A    
C69   C73   1.377180 A    
C49   C51   1.537897 S    
C25   C45   1.363812 A    
C47   C64   1.453389 S    
C66   C78   1.396017 A    
N24   Ni6   1.860748 S    
C51   C58   1.552841 S    
C21   C43   1.393244 A    
C116  H28   1.084133 S    
C40   C86   1.488914 S    
C22   N22   1.337639 A    
C93   C100  1.388108 A    
C79   C87   1.399130 A    
C31   C107  1.467424 S    
C13   Cl13  1.753467 S    
C21   Cl21  1.760502 S    
C94   C99   1.427338 A    
C14   Cl14  1.755175 S    
C90   Cl34  1.766128 S    
C69   H9    1.073872 S    
C110  H22   1.084227 S    
C74   C82   1.399103 A    
C53   C55   1.537898 S    
C112  H24   1.084134 S    
C41   C97   1.499533 S    
N5    Ni5   1.863392 S    
N1    Ni1   1.863392 S    
N8    Ni8   1.863740 S    
C10   C35   1.385611 A    
C69   C86   1.389801 A    
C42   C98   1.496059 S    
C66   C81   1.418727 A    
C108  O8    1.213241 D    
C104  H16   1.081148 S    
C104  O4    1.213241 D    
C50   C58   1.549050 S    
C57   H1    1.112240 S    
N1    N12   1.395812 A    
C15   N15   1.349645 A    
C107  O7    1.218553 D    
C12   Cl12  1.753576 S    
