data_mof_unit_15243.cif
_audit_creation_date              2012-12-11T17:10:37-0500
_audit_creation_method            fapswitch 2.2
_symmetry_space_group_name_H-M    P1
_symmetry_Int_Tables_number       1
_space_group_crystal_system       triclinic
_cell_length_a                    14.782101
_cell_length_b                    15.010124
_cell_length_c                    14.860323
_cell_angle_alpha                 108.96795
_cell_angle_beta                  109.904075
_cell_angle_gamma                 109.064574
_cell_volume                      2552.88493231

loop_
_atom_site_label
_atom_site_type_symbol
_atom_type_description
_atom_site_fract_x
_atom_site_fract_y
_atom_site_fract_z
_atom_type_partial_charge
C1    C     C_R   0.185148 0.278849 0.249243 0.495584
C2    C     C_R   0.403421 0.494386 0.194024 -0.136875
C3    C     C_R   0.564212 0.813468 0.589571 -0.056839
C4    C     C_R   0.522259 0.431969 0.745284 -0.146332
C5    C     C_R   0.724528 0.474951 0.409473 -0.186948
C6    C     C_R   0.546719 0.821028 0.495176 0.075868
C7    C     C_R   0.829798 0.551786 0.502003 0.076736
C8    C     C_R   0.432337 0.431266 0.130393 0.086128
C9    C     C_R   0.794672 0.796111 0.870243 -0.120528
C10   C     C_R   0.057688 0.574437 0.151000 -0.139681
C11   C     C_R   0.071923 0.609293 0.256605 -0.178260
C12   C     C_R   0.448444 0.449985 0.775932 0.055540
C13   C     C_R   0.012050 0.536438 0.281378 0.027845
C14   C     C_R   0.934543 0.429015 0.198036 -0.133766
C15   C     C_R   0.917654 0.394230 0.091208 0.572751
C16   C     C_R   0.504678 0.202175 0.408450 -0.155806
C17   C     C_R   0.980993 0.467445 0.068411 -0.291931
C18   C     C_R   0.929716 0.577862 0.398895 0.457835
C19   C     C_R   0.933742 0.604540 0.500501 0.026805
C20   C     C_R   0.039184 0.678093 0.596345 -0.128376
C21   C     C_R   0.134014 0.687516 0.587969 0.414648
C22   C     C_R   0.120115 0.616205 0.489555 -0.032417
C23   C     C_R   0.565530 0.197939 0.498404 -0.031361
C24   C     C_R   0.021525 0.575907 0.391071 -0.177269
C25   C     C_R   0.020519 0.829812 0.708723 0.520198
C26   C     C_R   0.057032 0.913096 0.812972 -0.498866
C27   C     C_R   0.125435 0.917496 0.909199 0.595276
C28   C     C_R   0.290183 0.597696 0.587849 -0.058858
C29   C     C_R   0.152625 0.835692 0.901101 -0.163526
C30   C     C_R   0.118895 0.754230 0.798606 -0.219963
C31   C     C_R   0.054696 0.751742 0.701923 0.142941
C32   C     C_R   0.442805 0.341877 0.872658 -0.159751
C33   C     C_R   0.400607 0.399499 0.830398 -0.006732
C34   C     C_R   0.200542 0.575924 0.494786 0.097103
C35   C     C_R   0.324371 0.420995 0.857880 0.546757
C36   C     C_R   0.322810 0.417645 0.951360 -0.340791
C37   C     C_R   0.393071 0.389338 0.012507 0.021455
C38   C     C_R   0.436735 0.334133 0.960751 -0.072972
C39   C     C_3   0.544333 0.333018 0.004073 0.264984
C40   C     C_R   0.595169 0.289730 0.590545 0.507135
C41   C     C_3   0.552963 0.345486 0.909602 0.384303
C42   C     C_R   0.488075 0.913325 0.401627 -0.082954
C43   C     C_R   0.570938 0.917337 0.485936 0.045440
C44   C     C_R   0.670175 0.015391 0.561561 -0.187799
C45   C     C_R   0.473825 0.719071 0.405422 -0.163406
C46   C     C_R   0.678827 0.111156 0.560499 0.485377
C47   C     C_R   0.583234 0.106557 0.487472 -0.068454
C48   C     C_R   0.494415 0.005844 0.401767 -0.042551
C49   C     C_3   0.371924 0.962188 0.353578 0.389130
C50   C     C_3   0.365288 0.860159 0.356742 0.312206
C51   C     C_R   0.980765 0.080730 0.075996 0.199322
C52   C     C_R   0.204976 0.513109 0.407486 -0.060046
C53   C     C_R   0.066889 0.078832 0.150772 0.004698
C54   C     C_R   0.051799 0.980415 0.148366 -0.190458
C55   C     C_R   0.956112 0.883062 0.062353 0.556178
C56   C     C_R   0.816610 0.558508 0.592206 0.468983
C57   C     C_R   0.877734 0.887024 0.978265 -0.164471
C58   C     C_R   0.887940 0.986865 0.992391 -0.081301
C59   C     C_3   0.877682 0.028742 0.912159 0.387389
C60   C     C_3   0.981363 0.132344 0.004364 -0.564588
C61   C     C_R   0.435851 0.528951 0.751899 -0.058563
C62   C     C_R   0.275976 0.186162 0.249824 -0.182537
C63   C     C_R   0.172245 0.176832 0.220939 0.011200
C64   C     C_R   0.494841 0.403380 0.196238 -0.116964
C65   C     C_R   0.699990 0.791614 0.804729 0.545761
C66   C     C_R   0.799594 0.708995 0.806760 -0.173369
H1    H     H_    0.515344 0.340745 0.170666 0.091726
H2    H     H_    0.738342 0.018264 0.623216 0.160299
H3    H     H_    0.330899 0.951030 0.269409 -0.028432
H4    H     H_    0.052751 0.148174 0.990290 0.146392
H5    H     H_    0.966385 0.201864 0.028478 0.257033
H6    H     H_    0.167253 0.503211 0.327186 0.116833
H7    H     H_    0.122274 0.355383 0.197856 0.286955
H8    H     H_    0.860615 0.547654 0.723246 0.323593
H9    H     H_    0.678108 0.871314 0.919668 0.323259
H10   H     H_    0.614663 0.878585 0.673529 0.190075
H11   H     H_    0.701398 0.441380 0.324112 0.195425
H12   H     H_    0.857727 0.683170 0.837083 0.178964
H13   H     H_    0.885494 0.373057 0.215651 0.163463
H14   H     H_    0.835041 0.278076 0.940260 0.344419
H15   H     H_    0.855915 0.569643 0.256709 0.334271
H16   H     H_    0.238809 0.830639 0.716060 0.334239
H17   H     H_    0.940540 0.886806 0.632840 0.322315
H18   H     H_    0.035721 0.976452 0.819232 0.132382
H19   H     H_    0.153971 0.059083 0.003243 0.308836
H20   H     H_    0.204418 0.838016 0.974763 0.146095
H21   H     H_    0.145866 0.694713 0.794281 0.181976
H22   H     H_    0.212333 0.465241 0.830453 0.319421
H23   H     H_    0.341718 0.517146 0.164786 0.087740
H24   H     H_    0.479926 0.151208 0.324115 0.117856
H25   H     H_    0.480704 0.207608 0.021555 0.317147
H26   H     H_    0.622817 0.424678 0.937555 0.049111
H27   H     H_    0.476851 0.192652 0.795309 0.367551
H28   H     H_    0.777818 0.259793 0.608656 0.327023
H29   H     H_    0.263727 0.986948 0.385499 0.325450
H30   H     H_    0.319782 0.772745 0.420673 0.312634
H31   H     H_    0.320967 0.653929 0.672148 0.173327
H32   H     H_    0.316527 0.786674 0.274140 -0.036667
H33   H     H_    0.116485 0.978415 0.208815 0.146242
H34   H     H_    0.969691 0.442259 0.986538 0.152757
H35   H     H_    0.867235 0.730785 0.010567 0.316661
H36   H     H_    0.886612 0.984126 0.842663 0.082725
H37   H     H_    0.773247 0.071107 0.940543 0.375384
H38   H     H_    0.668692 0.264573 0.705798 0.364478
H39   H     H_    0.385535 0.564360 0.764701 0.158671
H40   H     H_    0.296001 0.121674 0.236979 0.169890
H41   H     H_    0.440833 0.696927 0.319690 0.109009
H42   H     H_    0.104542 0.630981 0.132559 0.150556
H43   H     H_    0.127493 0.693356 0.318478 0.175479
H44   H     H_    0.545426 0.371733 0.745636 0.204078
H45   H     H_    0.276110 0.447935 0.981640 0.127221
H46   H     H_    0.611691 0.402936 0.086007 0.071397
N1    N     N_R   0.291070 0.347930 0.293870 -0.107861
N2    N     N_R   0.497240 0.291100 0.443210 -0.064290
N3    N     N_R   0.347890 0.554050 0.556810 -0.062293
N4    N     N_R   0.554050 0.347900 0.556830 -0.077039
N5    N     N_R   0.291070 0.497250 0.443190 -0.055406
N6    N     N_R   0.497240 0.554030 0.706140 -0.057664
N7    N     N_R   0.347890 0.291110 0.293870 -0.067841
N8    N     N_R   0.445950 0.652100 0.443170 -0.055998
N9    N     N_R   0.708930 0.502750 0.556810 -0.108044
N10   N     N_R   0.502760 0.445970 0.293860 -0.032782
N11   N     N_R   0.652110 0.708890 0.706130 -0.085398
N12   N     N_R   0.708930 0.652070 0.706130 -0.077658
N13   N     N_R   0.445950 0.502780 0.293850 -0.042054
N14   N     N_R   0.502760 0.708900 0.556790 -0.042247
N15   N     N_R   0.652110 0.445950 0.443190 -0.081239
N16   N     N_R   0.554050 0.497220 0.706150 -0.047755
Ni1   Ni    Ni4+2 0.369690 0.500010 0.369700 0.194747
Ni2   Ni    Ni4+2 0.630310 0.499990 0.630300 0.241626
Ni3   Ni    Ni4+2 0.500000 0.369720 0.369720 0.204662
Ni4   Ni    Ni4+2 0.500000 0.630280 0.630280 0.272745
O1    O     O_3   0.102099 0.303950 0.224991 -0.772739
O2    O     O_3   0.530689 0.232235 0.993772 -0.671662
O3    O     O_3   0.551333 0.257123 0.835091 -0.663356
O4    O     O_3   0.778738 0.205358 0.632296 -0.745221
O5    O     O_3   0.345314 0.019920 0.426060 -0.675473
O6    O     O_3   0.337081 0.847121 0.434628 -0.674870
O7    O     O_3   0.945636 0.787813 0.060847 -0.760311
O8    O     O_3   0.784318 0.042480 0.877121 -0.703732
O9    O     O_3   0.669361 0.327787 0.698160 -0.770825
O10   O     O_3   0.897618 0.585628 0.691932 -0.783206
O11   O     O_3   0.642072 0.836957 0.838609 -0.745724
O12   O     O_3   0.837443 0.289549 0.010830 -0.723902
O13   O     O_3   0.837229 0.557165 0.310987 -0.772770
O14   O     O_3   0.240083 0.765825 0.672272 -0.751293
O15   O     O_3   0.957493 0.826852 0.613485 -0.746101
O16   O     O_3   0.170345 0.002530 0.011877 -0.784424
O17   O     O_3   0.259912 0.453311 0.799702 -0.778135

loop_
_geom_bond_atom_site_label_1
_geom_bond_atom_site_label_2
_ccdc_geom_bond_type
C28   H31   S    
C25   C31   A    
C16   H24   S    
H9    O11   S    
C6    C45   A    
C49   O5    S    
N11   Ni4   S    
C27   C29   A    
C53   C63   S    
N2    Ni3   S    
C10   H42   S    
C35   C36   A    
H19   O16   S    
N9    Ni2   S    
C18   O13   S    
H35   O7    S    
C3    N14   A    
N11   N12   A    
C39   C41   S    
C40   N4    A    
C53   C54   A    
C26   C27   A    
C37   C38   A    
N6    N16   A    
C18   C24   A    
C36   C37   A    
N9    N15   A    
H30   O6    S    
C30   C31   A    
C65   O11   S    
N8    N14   A    
C11   H43   S    
C10   C17   A    
C23   C40   A    
C55   O7    S    
C18   C19   A    
H22   O17   S    
C9    C66   A    
C1    O1    S    
C13   C14   A    
N1    N7    A    
C19   C20   A    
C27   O16   S    
N3    N5    A    
N7    Ni3   S    
C32   C41   S    
C32   C38   A    
C4    C12   A    
C29   C30   A    
C61   H39   S    
C9    C57   S    
C56   O10   S    
C52   N5    A    
C3    C6    A    
H8    O10   S    
C28   C34   A    
C59   C60   S    
C49   H3    S    
C40   O9    S    
C1    N1    A    
C7    C56   A    
C22   C34   S    
C1    C63   A    
H16   O14   S    
C44   C46   A    
N15   Ni3   S    
N3    Ni4   S    
C66   H12   S    
H29   O5    S    
C23   C47   S    
C4    N16   A    
N8    Ni1   S    
C64   H1    S    
C10   C11   A    
C50   H32   S    
C5    C7    A    
C60   H5    S    
H14   O12   S    
C25   C26   A    
C13   C24   S    
C16   N2    A    
C51   C53   A    
C2    H23   S    
C43   C44   A    
C62   C63   A    
C52   H6    S    
C28   N3    A    
H28   O4    S    
C47   C48   A    
C60   H4    S    
C5    N15   A    
C36   H45   S    
C29   H20   S    
N12   Ni2   S    
C25   O15   S    
C51   C58   A    
C42   C48   A    
C14   H13   S    
C56   N9    A    
C3    H10   S    
C62   N7    A    
N1    Ni1   S    
C42   C50   S    
H17   O15   S    
C45   N8    A    
C48   C49   S    
C8    C64   A    
C16   C23   A    
H15   O13   S    
C6    C43   S    
C55   C57   A    
C66   N12   A    
C54   H33   S    
C44   H2    S    
C8    C37   S    
C5    H11   S    
N10   Ni3   S    
C41   O3    S    
N5    Ni1   S    
C15   C17   A    
C4    H44   S    
C54   C55   A    
C39   H46   S    
C26   H18   S    
C61   N6    A    
C14   C15   A    
C59   H36   S    
C34   C52   A    
C2    C8    A    
H7    O1    S    
H27   O3    S    
N16   Ni2   S    
N2    N4    A    
C50   O6    S    
C62   H40   S    
C7    C19   S    
C32   C33   A    
N10   N13   A    
C58   C59   S    
H37   O8    S    
C21   O14   S    
C12   C61   A    
C11   C13   A    
C57   C58   A    
C38   C39   S    
H25   O2    S    
C59   O8    S    
C12   C33   S    
C64   N10   A    
C33   C35   A    
C22   C24   A    
C65   N11   A    
C17   H34   S    
C9    C65   A    
C46   C47   A    
N6    Ni4   S    
N14   Ni4   S    
C46   O4    S    
C15   O12   S    
C2    N13   A    
N13   Ni1   S    
C41   H26   S    
N4    Ni2   S    
C20   C21   A    
C49   C50   S    
C42   C43   A    
H38   O9    S    
C51   C60   S    
C35   O17   S    
C30   H21   S    
C21   C22   A    
C39   O2    S    
C45   H41   S    
C20   C31   S    
