data_mof_unit_16606.cif
_audit_creation_date              2012-12-11T16:24:18-0500
_audit_creation_method            fapswitch 2.2
_symmetry_space_group_name_H-M    P1
_symmetry_Int_Tables_number       1
_space_group_crystal_system       triclinic
_cell_length_a                    14.753767
_cell_length_b                    14.772594
_cell_length_c                    33.287419
_cell_angle_alpha                 96.108244
_cell_angle_beta                  96.267246
_cell_angle_gamma                 61.172665
_cell_volume                      6305.93030285

loop_
_atom_site_label
_atom_site_type_symbol
_atom_type_description
_atom_site_fract_x
_atom_site_fract_y
_atom_site_fract_z
_atom_type_partial_charge
C1    C     C_R   0.390866 0.699821 0.446231 0.544364
C2    C     C_1   0.313336 0.337722 0.229522 -0.004608
C3    C     C_1   0.318029 0.342398 0.265841 -0.005560
C4    C     C_R   0.405740 0.386297 0.434041 0.543855
C5    C     C_R   0.291279 0.293544 0.101928 0.005338
C6    C     C_R   0.755929 0.373349 0.410047 0.021649
C7    C     C_R   0.789148 0.435017 0.393506 -0.127443
C8    C     C_R   0.818037 0.414458 0.353773 -0.116785
C9    C     C_R   0.814494 0.331725 0.329927 0.034891
C10   C     C_R   0.790694 0.264333 0.347664 -0.117492
C11   C     C_R   0.761552 0.285028 0.387450 -0.130016
C12   C     C_R   0.328233 0.346283 0.309104 0.040309
C13   C     C_R   0.834142 0.312186 0.204637 0.346901
C14   C     C_R   0.825891 0.322200 0.286067 0.346311
C15   C     C_R   0.835510 0.390407 0.142221 -0.117783
C16   C     C_R   0.700630 0.410016 0.447496 0.546901
C17   C     C_R   0.865738 0.379133 0.103065 -0.129268
C18   C     C_R   0.909187 0.198067 0.099127 -0.130048
C19   C     C_R   0.878836 0.209393 0.138384 -0.115690
C20   C     C_R   0.846417 0.304520 0.160912 0.033962
C21   C     C_R   0.907475 0.281753 0.081921 0.020822
C22   C     C_R   0.370422 0.756634 0.409777 0.021822
C23   C     C_R   0.410383 0.263850 0.328767 -0.103435
C24   C     C_R   0.275734 0.788820 0.386714 -0.129871
C25   C     C_R   0.264913 0.820509 0.347747 -0.118270
C26   C     C_R   0.348776 0.820059 0.331225 0.034935
C27   C     C_R   0.440122 0.796857 0.355658 -0.117833
C28   C     C_R   0.393521 0.701214 0.561285 0.540487
C29   C     C_R   0.450779 0.765642 0.394668 -0.129253
C30   C     C_R   0.341064 0.843254 0.206701 0.341073
C31   C     C_R   0.344679 0.833597 0.287801 0.342451
C32   C     C_R   0.256613 0.844147 0.138238 -0.129715
C33   C     C_R   0.236750 0.870352 0.098136 -0.134000
C34   C     C_R   0.430885 0.273424 0.370435 -0.124439
C35   C     C_R   0.382774 0.904328 0.104511 -0.134290
C36   C     C_R   0.402904 0.879019 0.144927 -0.016971
C37   C     C_R   0.336380 0.852740 0.162699 0.021311
C38   C     C_R   0.296560 0.905459 0.081567 0.008111
C39   C     C_R   0.372022 0.368884 0.585612 0.007228
C40   C     C_R   0.407113 0.388876 0.549075 0.542650
C41   C     C_R   0.278388 0.441459 0.603184 -0.023651
C42   C     C_R   0.262643 0.431215 0.642782 -0.124129
C43   C     C_R   0.338335 0.349579 0.665160 0.020939
C44   C     C_R   0.425447 0.272363 0.646187 -0.126193
C45   C     C_R   0.395755 0.251153 0.165774 0.000688
C46   C     C_R   0.441835 0.281660 0.606889 -0.141181
C47   C     C_R   0.322255 0.350891 0.789929 0.346522
C48   C     C_R   0.330781 0.348418 0.708826 0.349286
C49   C     C_R   0.219905 0.404609 0.851160 -0.121998
C50   C     C_R   0.207761 0.384161 0.889570 -0.131576
C51   C     C_R   0.387802 0.251630 0.894252 -0.130293
C52   C     C_R   0.701200 0.413711 0.562719 0.543320
C53   C     C_R   0.399976 0.272172 0.855943 -0.120946
C54   C     C_R   0.314798 0.345211 0.833244 0.034254
C55   C     C_R   0.290314 0.303919 0.910526 0.022464
C56   C     C_R   0.385831 0.234384 0.123781 -0.127722
C57   C     C_R   0.753652 0.380870 0.603022 0.020253
C58   C     C_R   0.777799 0.447975 0.629641 -0.124662
C59   C     C_R   0.805795 0.427670 0.670446 -0.109887
C60   C     C_R   0.810428 0.340040 0.685022 0.040699
C61   C     C_R   0.792687 0.269649 0.658353 -0.110734
C62   C     C_R   0.764739 0.289690 0.617541 -0.125459
C63   C     C_R   0.886108 0.212900 0.822761 -0.110297
C64   C     C_R   0.369525 0.366013 0.392735 0.019827
C65   C     C_R   0.913927 0.201421 0.864125 -0.127328
C66   C     C_R   0.871190 0.382421 0.873546 -0.125937
C67   C     C_R   0.209181 0.375099 0.122292 -0.129156
C68   C     C_R   0.843241 0.393691 0.832242 -0.110764
C69   C     C_R   0.853578 0.308295 0.806653 0.041727
C70   C     C_1   0.838038 0.317240 0.763660 -0.021408
C71   C     C_1   0.826290 0.326358 0.727710 -0.021766
C72   C     C_R   0.910168 0.285284 0.889696 0.019547
C73   C     C_R   0.376461 0.754388 0.602076 0.017885
C74   C     C_R   0.281264 0.789076 0.619214 -0.120627
C75   C     C_R   0.271866 0.817993 0.660460 -0.109290
C76   C     C_R   0.282527 0.445532 0.373078 -0.123883
C77   C     C_R   0.357190 0.812899 0.684997 0.040444
C78   C     C_R   0.218722 0.391991 0.164166 -0.122638
C79   C     C_R   0.450339 0.784569 0.667851 -0.110866
C80   C     C_R   0.459931 0.755799 0.626541 -0.127061
C81   C     C_R   0.397235 0.883456 0.832855 -0.111146
C82   C     C_R   0.377284 0.911206 0.873640 -0.125871
C83   C     C_R   0.227931 0.881944 0.862757 -0.126592
C84   C     C_R   0.248165 0.854119 0.822023 -0.110842
C85   C     C_R   0.331076 0.857588 0.806829 0.040162
C86   C     C_1   0.343526 0.841481 0.764098 -0.022480
C87   C     C_1   0.350851 0.829258 0.728067 -0.022014
C88   C     C_R   0.262325 0.435759 0.331373 -0.109764
C89   C     C_R   0.310420 0.328239 0.186129 0.025916
C90   C     C_R   0.290389 0.913962 0.888721 0.019491
C91   C     C_R   0.963547 0.264221 0.045545 0.545982
C92   C     C_R   0.272730 0.259354 0.060058 0.546228
C93   C     C_R   0.259234 0.959917 0.043854 0.547606
C94   C     C_R   0.962630 0.267602 0.930715 0.542451
C95   C     C_R   0.270958 0.264184 0.945497 0.545596
C96   C     C_R   0.256087 0.965073 0.928940 0.543081
C97   C     C_1   0.492229 0.185242 0.187553 0.208041
C98   C     C_1   0.486593 0.889784 0.167779 0.218295
C99   C     C_1   0.198757 0.529276 0.582369 0.214947
Cr1   Cr    Cr6+3 0.576280 0.580550 0.506370 1.017429
Cr2   Cr    Cr6+3 0.346780 0.572400 0.496520 1.048020
Cr3   Cr    Cr6+3 0.576960 0.347070 0.497150 1.015403
Cr4   Cr    Cr6+3 0.087320 0.083240 0.984860 1.014771
Cr5   Cr    Cr6+3 0.087720 0.316210 0.996740 1.015065
Cr6   Cr    Cr6+3 0.317350 0.090340 0.995890 1.016250
H1    H     H_    0.450157 0.171516 0.108533 0.135988
H2    H     H_    0.524395 0.742316 0.411919 0.132542
H3    H     H_    0.170486 0.869311 0.080970 0.134465
H4    H     H_    0.192948 0.839409 0.329825 0.140166
H5    H     H_    0.505425 0.797647 0.343992 0.140022
H6    H     H_    0.205905 0.821903 0.150698 0.139916
H7    H     H_    0.430353 0.930409 0.091911 0.133981
H8    H     H_    0.513241 0.223329 0.594266 0.137634
H9    H     H_    0.131819 0.426273 0.901524 0.130968
H10   H     H_    0.193297 0.489843 0.656717 0.135676
H11   H     H_    0.483908 0.206906 0.662329 0.136889
H12   H     H_    0.737043 0.235626 0.399510 0.131871
H13   H     H_    0.153206 0.462435 0.834617 0.133021
H14   H     H_    0.453192 0.190384 0.910010 0.130125
H15   H     H_    0.474733 0.226555 0.843280 0.134180
H16   H     H_    0.894165 0.146398 0.803128 0.111855
H17   H     H_    0.796365 0.201464 0.669389 0.112450
H18   H     H_    0.746473 0.236545 0.597896 0.127348
H19   H     H_    0.769602 0.518977 0.619502 0.129876
H20   H     H_    0.817772 0.467943 0.820010 0.111285
H21   H     H_    0.867400 0.448438 0.892400 0.127682
H22   H     H_    0.819680 0.482474 0.690928 0.113870
H23   H     H_    0.862190 0.445354 0.090335 0.133371
H24   H     H_    0.461755 0.886113 0.821323 0.113072
H25   H     H_    0.215633 0.788748 0.601240 0.144570
H26   H     H_    0.196702 0.833885 0.802047 0.114254
H27   H     H_    0.160366 0.883434 0.873362 0.127926
H28   H     H_    0.199354 0.840105 0.673515 0.114970
H29   H     H_    0.233843 0.517804 0.389391 0.131839
H30   H     H_    0.135373 0.421884 0.106294 0.135720
H31   H     H_    0.198444 0.499823 0.316272 0.118575
H32   H     H_    0.461600 0.194209 0.311622 0.134807
H33   H     H_    0.944213 0.125479 0.875545 0.128169
H34   H     H_    0.838162 0.466555 0.341170 0.138489
H35   H     H_    0.498303 0.210823 0.384686 0.132520
H36   H     H_    0.426694 0.935746 0.892775 0.129077
H37   H     H_    0.516769 0.780527 0.686670 0.111594
H38   H     H_    0.534436 0.728919 0.614346 0.128756
H39   H     H_    0.152875 0.451872 0.179623 0.124270
H40   H     H_    0.786788 0.502938 0.410348 0.133979
H41   H     H_    0.788474 0.199236 0.330151 0.141820
H42   H     H_    0.808655 0.465314 0.158538 0.142999
H43   H     H_    0.940562 0.122129 0.083425 0.132803
H44   H     H_    0.886921 0.142100 0.151861 0.143595
H45   H     H_    0.212084 0.783692 0.397771 0.133085
N1    N     N_R   0.828075 0.395900 0.227845 -0.225632
N2    N     N_R   0.431726 0.813006 0.270041 -0.219837
N3    N     N_R   0.429877 0.817956 0.230290 -0.197073
N4    N     N_R   0.240502 0.420083 0.767297 -0.235515
N5    N     N_1   0.569473 0.132494 0.205017 -0.260221
N6    N     N_1   0.553665 0.898611 0.185969 -0.250427
N7    N     N_1   0.134835 0.599730 0.565780 -0.300007
N8    N     N_R   0.244932 0.419297 0.727537 -0.234373
N9    N     N_R   0.412507 0.279640 0.731511 -0.233849
N10   N     N_R   0.408183 0.280594 0.771207 -0.235257
N11   N     N_R   0.823708 0.400950 0.267708 -0.225257
N12   N     N_R   0.831640 0.238413 0.262891 -0.218031
N13   N     N_R   0.836434 0.233172 0.222947 -0.215707
N14   N     N_R   0.254114 0.863636 0.224493 -0.226379
N15   N     N_R   0.255942 0.858519 0.264208 -0.227012
O1    O     O_R   0.679450 0.499830 0.463150 -0.517172
O2    O     O_R   0.340240 0.172500 0.045430 -0.518164
O3    O     O_R   0.309670 0.000990 0.032050 -0.502161
O4    O     O_R   0.480650 0.664000 0.464630 -0.502655
O5    O     O_R   0.168330 0.982130 0.939200 -0.520156
O6    O     O_R   0.000140 0.178170 0.944610 -0.502014
O7    O     O_R   0.983010 0.336750 0.948660 -0.519528
O8    O     O_R   0.181800 0.312190 0.959860 -0.502375
O9    O     O_R   0.338500 0.175680 0.956950 -0.519267
O10   O     O_R   0.308050 0.003930 0.950020 -0.501390
O11   O     O_3   0.164130 0.163270 0.992500 -0.237580
O12   O     O_R   0.356040 0.477400 0.534170 -0.480562
O13   O     O_R   0.323930 0.675950 0.455370 -0.517846
O14   O     O_R   0.354700 0.475360 0.451930 -0.499916
O15   O     O_R   0.494470 0.320860 0.448390 -0.519009
O16   O     O_R   0.662580 0.357570 0.460050 -0.501960
O17   O     O_R   0.680900 0.502040 0.551870 -0.517988
O18   O     O_R   0.481990 0.666040 0.546870 -0.504589
O19   O     O_R   0.325370 0.678160 0.544080 -0.503320
O20   O     O_R   0.495910 0.323070 0.537100 -0.522880
O21   O     O_R   0.663920 0.359620 0.542290 -0.502387
O22   O     O_3   0.500010 0.500010 0.500010 -0.242707
O23   O     O_R   0.170070 0.978950 0.027680 -0.517853
O24   O     O_R   0.001760 0.175230 0.026640 -0.501263
O25   O     O_R   0.984760 0.333570 0.037150 -0.519135
O26   O     O_R   0.183410 0.309240 0.041890 -0.500643

loop_
_geom_bond_atom_site_label_1
_geom_bond_atom_site_label_2
_ccdc_geom_bond_type
C66   C68   A    
C27   H5    S    
C63   C65   A    
C96   O10   A    
C27   C29   A    
C18   C21   A    
Cr3   O15   S    
C41   C42   A    
C5    C56   A    
C35   C36   A    
C30   N14   A    
C5    C67   A    
C81   C82   A    
C53   H15   S    
C7    C8    A    
C39   C41   A    
C53   C54   A    
C91   O24   A    
C12   C23   A    
C26   C27   A    
Cr3   O21   S    
C22   C29   A    
C8    H34   S    
C36   C37   A    
C32   H6    S    
C28   O18   A    
C52   O17   A    
N4    N8    A    
C18   H43   S    
N9    N10   A    
C79   H37   S    
C59   H22   S    
C49   C54   A    
Cr1   O1    S    
C18   C19   A    
C73   C74   A    
C34   H35   S    
Cr1   O18   S    
Cr2   O13   S    
C94   O7    A    
C30   N3    A    
C66   C72   A    
C49   H13   S    
C45   C56   A    
C16   O1    A    
C8    C9    A    
N1    N11   A    
Cr6   O11   S    
C50   C55   A    
Cr4   O5    S    
C51   H14   S    
C41   C99   S    
C70   C71   T    
Cr4   O24   S    
Cr1   O17   S    
C43   C48   S    
C76   C88   A    
C1    C22   S    
C46   H8    S    
C92   O26   A    
C25   H4    S    
Cr5   O7    S    
C72   C94   S    
C23   C34   A    
C3    C12   S    
Cr5   O25   S    
C59   C60   A    
C96   O5    A    
Cr4   O6    S    
C61   C62   A    
C67   C78   A    
C52   O21   A    
C4    O15   A    
C82   H36   S    
C28   C73   S    
C9    C10   A    
C62   H18   S    
C91   O25   A    
C44   C46   A    
C13   N13   A    
C47   N10   A    
C77   C79   A    
C78   C89   A    
C64   C76   A    
C15   C20   A    
C48   N9    A    
C98   N6    T    
Cr3   O20   S    
C74   C75   A    
C12   C88   A    
C63   C69   A    
C57   C62   A    
Cr1   O22   S    
C84   C85   A    
C13   N1    A    
C55   C95   S    
Cr5   O11   S    
C6    C11   A    
C9    C14   S    
C76   H29   S    
C16   O16   A    
C68   C69   A    
C40   O20   A    
C60   C71   S    
C25   C26   A    
C85   C86   S    
Cr5   O26   S    
C48   N8    A    
C17   C21   A    
C66   H21   S    
C30   C37   S    
C60   C61   A    
C50   H9    S    
C14   N12   A    
C2    C89   S    
C67   H30   S    
C43   C44   A    
Cr2   O14   S    
C78   H39   S    
C94   O6    A    
C1    O13   A    
C81   H24   S    
C83   C84   A    
C80   H38   S    
C56   H1    S    
C35   C38   A    
C34   C64   A    
C63   H16   S    
C28   O19   A    
C32   C37   A    
C24   C25   A    
C90   C96   S    
C75   C77   A    
C88   H31   S    
Cr5   O8    S    
Cr2   O19   S    
C24   H45   S    
C10   H41   S    
C39   C46   A    
C33   H3    S    
C65   H33   S    
Cr6   O9    S    
C47   C54   S    
C22   C24   A    
C79   C80   A    
C93   O3    A    
C42   C43   A    
C4    O14   A    
C52   C57   S    
C11   H12   S    
C74   H25   S    
C39   C40   S    
C45   C89   A    
N12   N13   A    
C21   C91   S    
C15   C17   A    
C83   C90   A    
N14   N15   A    
C13   C20   S    
C77   C87   S    
Cr1   O4    S    
C86   C87   T    
Cr3   O16   S    
C95   O9    A    
C29   H2    S    
Cr4   O23   S    
C33   C38   A    
C75   H28   S    
C17   H23   S    
C31   N15   A    
C6    C7    A    
C47   N4    A    
C65   C72   A    
C4    C64   S    
C84   H26   S    
C58   H19   S    
Cr3   O22   S    
C82   C90   A    
Cr6   O3    S    
C32   C33   A    
C19   C20   A    
C99   N7    T    
C2    C3    T    
C58   C59   A    
C83   H27   S    
C45   C97   S    
C15   H42   S    
C31   N2    A    
C92   O2    A    
C57   C58   A    
C14   N11   A    
C23   H32   S    
C38   C93   S    
C1    O4    A    
Cr4   O11   S    
C19   H44   S    
C73   C80   A    
C51   C55   A    
C97   N5    T    
C95   O8    A    
C69   C70   S    
C5    C92   S    
Cr2   O12   S    
C10   C11   A    
C6    C16   S    
C40   O12   A    
C93   O23   A    
Cr6   O2    S    
C42   H10   S    
C26   C31   S    
N2    N3    A    
C44   H11   S    
C49   C50   A    
Cr6   O10   S    
C61   H17   S    
C36   C98   S    
C51   C53   A    
Cr2   O22   S    
C68   H20   S    
C81   C85   A    
C35   H7    S    
C7    H40   S    
