data_mof_unit_18725.cif
_audit_creation_date              2012-12-10T18:10:47-0500
_audit_creation_method            fapswitch 2.2
_symmetry_space_group_name_H-M    P1
_symmetry_Int_Tables_number       1
_space_group_crystal_system       triclinic
_cell_length_a                    12.600431
_cell_length_b                    13.134095
_cell_length_c                    15.734019
_cell_angle_alpha                 91.079513
_cell_angle_beta                  103.264236
_cell_angle_gamma                 81.691157
_cell_volume                      2507.55943081

loop_
_atom_site_label
_atom_site_type_symbol
_atom_type_description
_atom_site_fract_x
_atom_site_fract_y
_atom_site_fract_z
_atom_type_partial_charge
C1    C     C_R   0.437970 0.691269 0.485879 0.849699
C2    C     C_3   0.394051 0.549920 0.028897 -0.480552
C3    C     C_3   0.502435 0.489798 0.083459 0.187096
C4    C     C_3   0.513228 0.376738 0.051661 -0.010266
C5    C     C_3   0.513353 0.375057 0.952156 -0.007800
C6    C     C_1   0.498290 0.493107 0.174217 -0.038525
C7    C     C_1   0.508588 0.492675 0.826940 -0.094075
C8    C     C_1   0.506675 0.496474 0.751338 -0.165730
C9    C     C_R   0.715956 0.046363 0.473195 -0.201550
C10   C     C_R   0.598562 0.195316 0.510011 -0.125791
C11   C     C_R   0.293059 0.839600 0.487119 -0.185160
C12   C     C_R   0.501743 0.499811 0.661643 0.908770
C13   C     C_R   0.260251 0.945142 0.487592 -0.147497
C14   C     C_R   0.333187 0.012305 0.478892 -0.181131
C15   C     C_R   0.439082 0.974082 0.465097 0.093545
C16   C     C_R   0.462987 0.868573 0.449037 0.041963
C17   C     C_R   0.524343 0.035057 0.470956 0.040639
C18   C     C_R   0.624969 0.992995 0.449698 0.074467
C19   C     C_R   0.633786 0.895690 0.410584 0.148722
C20   C     C_R   0.553400 0.833617 0.412269 -0.228601
C21   C     C_R   0.514347 0.134881 0.502217 -0.267772
C22   C     C_R   0.705561 0.146628 0.505946 0.172998
C23   C     C_R   0.562218 0.307499 0.511207 0.858852
C24   C     C_R   0.396019 0.800709 0.470664 -0.102399
C25   C     C_R   0.081837 0.368138 0.359075 0.077912
C26   C     C_R   0.802018 0.623930 0.607887 0.013753
C27   C     C_R   0.907406 0.650575 0.631217 -0.240490
C28   C     C_R   0.987268 0.605576 0.588537 -0.169627
C29   C     C_R   0.961849 0.532789 0.522216 0.030942
C30   C     C_R   0.853198 0.508522 0.501089 0.209466
C31   C     C_R   0.039620 0.482725 0.476741 -0.048962
C32   C     C_R   0.005094 0.416746 0.405677 0.144949
C33   C     C_R   0.895909 0.397977 0.385179 -0.292630
C34   C     C_R   0.498625 0.499504 0.338454 0.893158
C35   C     C_R   0.824149 0.437588 0.435895 -0.190630
C36   C     C_R   0.151194 0.494764 0.499802 -0.059322
C37   C     C_R   0.191363 0.383522 0.387094 -0.047149
C38   C     C_3   0.401566 0.558559 0.933009 0.030950
C39   C     C_3   0.608283 0.537128 0.973433 -0.068095
C40   C     C_3   0.601280 0.540906 0.070845 -0.401634
C41   C     C_1   0.496829 0.496212 0.249268 -0.161264
C42   C     C_3   0.507160 0.488720 0.918417 0.154282
H1    H     H_    0.378464 0.628553 0.055327 0.178700
H2    H     H_    0.323299 0.510156 0.033242 0.203057
H3    H     H_    0.796746 0.007931 0.470099 0.160220
H4    H     H_    0.439953 0.168175 0.520738 0.167632
H5    H     H_    0.239048 0.788557 0.501634 0.154437
H6    H     H_    0.303804 0.093225 0.482146 0.128555
H7    H     H_    0.180068 0.975019 0.498972 0.139953
H8    H     H_    0.409860 0.639952 0.920663 0.134652
H9    H     H_    0.561719 0.757764 0.384176 0.171325
H10   H     H_    0.252752 0.348929 0.353021 0.143389
H11   H     H_    0.865842 0.347353 0.333140 0.188847
H12   H     H_    0.184618 0.543068 0.552193 0.146139
H13   H     H_    0.739415 0.658733 0.640617 0.146233
H14   H     H_    0.067047 0.630395 0.608038 0.152467
H15   H     H_    0.927007 0.706350 0.681828 0.162311
H16   H     H_    0.747252 0.408655 0.424195 0.226252
H17   H     H_    0.600036 0.618052 0.949762 0.165964
H18   H     H_    0.590966 0.622665 0.091391 0.158843
H19   H     H_    0.678652 0.502759 0.114417 0.215186
H20   H     H_    0.595631 0.335794 0.946935 0.143904
H21   H     H_    0.443682 0.342961 0.065851 0.166779
N1    N     N_R   0.222200 0.444690 0.455710 -0.115836
N2    N     N_R   0.776960 0.554780 0.543830 -0.137503
O1    O     O_R   0.366740 0.627160 0.478850 -0.612957
O2    O     O_R   0.544830 0.662520 0.507140 -0.613911
O3    O     O_R   0.410920 0.482310 0.608710 -0.601113
O4    O     O_R   0.589010 0.517670 0.637000 -0.619522
O5    O     O_R   0.455170 0.337480 0.492860 -0.610551
O6    O     O_R   0.633260 0.372840 0.521150 -0.638081
O7    O     O_R   0.410990 0.482330 0.363000 -0.609682
O8    O     O_R   0.589080 0.517690 0.391290 -0.637150
Zn1   Zn    Zn3+2 0.381090 0.476390 0.481110 0.945158
Zn2   Zn    Zn3+2 0.618910 0.523610 0.518890 0.920873
I1    I     I_    0.247165 0.543149 0.842673 -0.466621
I2    I     I_    0.655509 0.278729 0.127248 -0.510050
C43   C     C_3   0.811106 0.189767 0.546078 -0.405130
C44   C     C_3   0.888651 0.185888 0.483909 -0.879637
H22   H     H_    0.933102 0.106928 0.481348 0.242474
H23   H     H_    0.841532 0.209839 0.417087 0.271830
H24   H     H_    0.951713 0.237051 0.507813 0.264264
H25   H     H_    0.797074 0.268713 0.570267 0.236093
H26   H     H_    0.854712 0.142126 0.604754 0.201000
C45   C     C_3   0.724744 0.857011 0.364489 -0.431668
C46   C     C_3   0.812842 0.779332 0.420995 -0.836988
H27   H     H_    0.847916 0.813568 0.484490 0.256877
H28   H     H_    0.776397 0.710489 0.432619 0.275001
H29   H     H_    0.880185 0.755113 0.386927 0.249092
H30   H     H_    0.689086 0.819846 0.302465 0.209216
H31   H     H_    0.763272 0.921191 0.345322 0.210836
C47   C     C_3   0.051147 0.300772 0.280360 -0.431932
C48   C     C_3   0.990148 0.365214 0.199248 -0.813719
H32   H     H_    0.912699 0.410519 0.209293 0.265269
H33   H     H_    0.043398 0.418903 0.183069 0.254352
H34   H     H_    0.969073 0.313736 0.142981 0.260383
H35   H     H_    0.126344 0.256001 0.265261 0.202880
H36   H     H_    0.001297 0.242677 0.294258 0.214836
C49   C     C_3   0.722988 0.483411 0.962947 -0.390436
C50   C     C_3   0.813309 0.550785 0.994470 -0.864472
H37   H     H_    0.794314 0.623860 0.956014 0.258929
H38   H     H_    0.821768 0.568506 0.064759 0.260574
H39   H     H_    0.893308 0.509450 0.985650 0.260867
H40   H     H_    0.747279 0.409571 0.000227 0.237214
H41   H     H_    0.720878 0.465898 0.893334 0.219216
C51   C     C_3   0.432962 0.307369 0.893381 -0.363013
C52   C     C_3   0.333815 0.283576 0.926563 -0.816011
H42   H     H_    0.360664 0.224550 0.979711 0.247962
H43   H     H_    0.289635 0.353425 0.950225 0.276875
H44   H     H_    0.275206 0.251468 0.872574 0.254296
H45   H     H_    0.401494 0.341496 0.826910 0.240307
H46   H     H_    0.480925 0.231748 0.883633 0.198951

loop_
_geom_bond_atom_site_label_1
_geom_bond_atom_site_label_2
_ccdc_geom_bond_type
C12   O4    A    
C9    H3    S    
C48   H32   S    
C40   H18   S    
C52   H43   S    
C11   H5    S    
C19   C20   A    
C5    C42   S    
C3    C6    S    
C26   H13   S    
C45   H31   S    
C47   H36   S    
C7    C8    T    
C38   I1    S    
C45   C46   S    
C10   C22   A    
C12   O3    A    
C4    H21   S    
C26   C27   A    
C30   C35   A    
C35   H16   S    
C28   C29   A    
C38   C42   S    
C20   H9    S    
C46   H28   S    
C9    C22   A    
C51   C52   S    
O3    Zn1   S    
C15   C16   A    
O1    Zn1   S    
C11   C24   A    
C18   C19   A    
C7    C42   S    
C47   C48   S    
C25   C37   A    
C43   H25   S    
C49   C50   S    
C2    H2    S    
C6    C41   T    
O5    Zn1   S    
C52   H42   S    
C8    C12   S    
C5    C51   S    
C25   C32   A    
C49   H40   S    
C1    O2    A    
C16   C24   A    
C13   C14   A    
O8    Zn2   S    
C23   O5    A    
C34   C41   S    
C47   H35   S    
C1    O1    A    
C39   C42   S    
C51   H45   S    
C10   C21   A    
C33   H11   S    
C49   H41   S    
C23   O6    A    
C22   C43   S    
O7    Zn1   S    
C27   H15   S    
C39   C40   S    
C44   H23   S    
C37   H10   S    
C43   C44   S    
C51   H46   S    
C50   H39   S    
C17   C21   A    
C40   H19   S    
C29   C30   A    
C2    C38   S    
C39   C49   S    
C31   C32   A    
C14   C15   A    
C2    H1    S    
C16   C20   A    
C39   H17   S    
C50   H38   S    
C17   C18   A    
C13   H7    S    
C3    C40   S    
C48   H34   S    
C52   H44   S    
O2    Zn2   S    
C3    C4    S    
C34   O7    A    
C37   N1    A    
C21   H4    S    
C15   C17   A    
C25   C47   S    
C46   H27   S    
C26   N2    A    
C4    C5    S    
C19   C45   S    
C46   H29   S    
C44   H24   S    
C14   H6    S    
C45   H30   S    
C38   H8    S    
C10   C23   S    
N2    Zn2   S    
C32   C33   A    
C2    C3    S    
C4    I2    S    
C29   C31   A    
O6    Zn2   S    
C11   C13   A    
C28   H14   S    
C50   H37   S    
C33   C35   A    
C5    H20   S    
O4    Zn2   S    
C30   N2    A    
C36   H12   S    
C34   O8    A    
C44   H22   S    
C43   H26   S    
C9    C18   A    
C1    C24   S    
C48   H33   S    
C27   C28   A    
N1    Zn1   S    
C31   C36   A    
C36   N1    A    
