data_mof_unit_48431.cif
_audit_creation_date              2012-10-26T20:11:37-0400
_audit_creation_method            fapswitch 2.2
_symmetry_space_group_name_H-M    P1
_symmetry_Int_Tables_number       1
_space_group_crystal_system       triclinic
_cell_length_a                    10.919495
_cell_length_b                    15.207244
_cell_length_c                    13.810376
_cell_angle_alpha                 89.617313
_cell_angle_beta                  101.597025
_cell_angle_gamma                 90.986509
_cell_volume                      2246.12685934

loop_
_atom_site_label
_atom_site_type_symbol
_atom_type_description
_atom_site_fract_x
_atom_site_fract_y
_atom_site_fract_z
_atom_type_partial_charge
C1    C     C_R   0.501343 0.330167 0.500348 0.571777
C2    C     C_R   0.606996 0.482309 0.808456 0.055229
C3    C     C_R   0.417906 0.552500 0.094146 -0.134207
C4    C     C_R   0.608611 0.481153 0.910451 -0.143827
C5    C     C_R   0.498369 0.497735 0.054757 0.017361
C6    C     C_R   0.498900 0.497464 0.945754 0.013226
C7    C     C_R   0.261860 0.504342 0.460733 0.565626
C8    C     C_R   0.738272 0.506162 0.538881 0.569218
C9    C     C_2   0.124901 0.510908 0.440161 -0.030195
C10   C     C_2   0.875487 0.516634 0.557918 -0.034105
C11   C     C_2   0.068207 0.558912 0.500642 0.063380
C12   C     C_R   0.505118 0.670900 0.500487 0.573015
C13   C     C_2   0.931966 0.557568 0.490132 0.077101
C14   C     C_R   0.590704 0.098325 0.579838 -0.000301
C15   C     C_R   0.508638 0.912011 0.417694 -0.001905
C16   C     C_R   0.592572 0.190788 0.574562 0.056478
C17   C     C_R   0.512496 0.819421 0.414297 0.078311
C18   C     C_R   0.504006 0.234251 0.501858 0.003518
C19   C     C_R   0.510775 0.768896 0.501882 0.006524
C20   C     C_R   0.414109 0.185167 0.434831 -0.050131
C21   C     C_R   0.510420 0.814234 0.591951 -0.032835
C22   C     C_R   0.406737 0.094809 0.446929 -0.126054
C23   C     C_R   0.497738 0.050573 0.513796 -0.013760
C24   C     C_R   0.495975 0.904667 0.591069 -0.125947
C25   C     C_R   0.948636 0.483119 0.653386 0.039509
C26   C     C_R   0.933765 0.521302 0.742601 -0.064368
C27   C     C_R   0.998970 0.488999 0.833029 -0.118934
C28   C     C_R   0.080102 0.418671 0.835156 -0.104391
C29   C     C_R   0.096943 0.381073 0.746810 -0.088313
C30   C     C_R   0.031501 0.412978 0.656214 -0.064934
C31   C     C_R   0.052341 0.468220 0.349134 0.031464
C32   C     C_R   0.068230 0.498311 0.255839 -0.041929
C33   C     C_R   0.997831 0.461404 0.169544 -0.098108
C34   C     C_R   0.499233 0.953978 0.506743 -0.015901
C35   C     C_R   0.910471 0.394540 0.175489 -0.108197
C36   C     C_R   0.893358 0.364465 0.267764 -0.112616
C37   C     C_R   0.964337 0.400662 0.354312 -0.079261
C38   C     C_R   0.685008 0.052005 0.654224 0.056833
C39   C     C_R   0.676406 0.053011 0.754377 -0.081040
C40   C     C_R   0.759738 0.004638 0.823972 -0.102677
C41   C     C_R   0.852147 0.955078 0.794163 -0.099516
C42   C     C_R   0.861813 0.954212 0.694800 -0.108212
C43   C     C_R   0.778757 0.002579 0.624998 -0.070289
C44   C     C_R   0.515152 0.965554 0.328165 0.061275
C45   C     C_R   0.577961 0.443022 0.121151 -0.138581
C46   C     C_R   0.410200 0.971135 0.250557 -0.079824
C47   C     C_R   0.413482 0.025829 0.169303 -0.097862
C48   C     C_R   0.521395 0.075099 0.164742 -0.104435
C49   C     C_R   0.626319 0.069580 0.241303 -0.111447
C50   C     C_R   0.623436 0.014959 0.322693 -0.061067
C51   C     C_R   0.333181 0.223043 0.345797 0.045810
C52   C     C_R   0.202713 0.212899 0.331110 -0.105540
C53   C     C_R   0.127495 0.235307 0.240340 -0.099888
C54   C     C_R   0.181215 0.270436 0.164580 -0.098644
C55   C     C_R   0.310869 0.280619 0.178406 -0.113309
C56   C     C_R   0.389622 0.513816 0.875152 -0.144771
C57   C     C_R   0.386759 0.255105 0.267731 -0.044149
C58   C     C_R   0.537938 0.772701 0.691276 0.068875
C59   C     C_R   0.449348 0.773571 0.752271 -0.076688
C60   C     C_R   0.479236 0.740054 0.848513 -0.103277
C61   C     C_R   0.598154 0.706750 0.884957 -0.089108
C62   C     C_R   0.687065 0.706098 0.824956 -0.112847
C63   C     C_R   0.657435 0.739186 0.728524 -0.058914
C64   C     C_R   0.577868 0.445623 0.222737 0.064768
C65   C     C_R   0.392027 0.514153 0.773962 0.063647
C66   C     C_R   0.419168 0.551756 0.195989 0.077614
Cu1   Cu    Cu3+1 0.500000 0.499990 0.596430 0.984570
Cu2   Cu    Cu3+1 0.500000 0.500010 0.403570 0.995396
H1    H     H_    0.355364 0.596669 0.047155 0.093151
H2    H     H_    0.692431 0.468536 0.784061 0.148729
H3    H     H_    0.871605 0.576094 0.742034 0.106672
H4    H     H_    0.986520 0.518493 0.901433 0.090641
H5    H     H_    0.130575 0.393720 0.905229 0.099913
H6    H     H_    0.160488 0.326987 0.748522 0.115201
H7    H     H_    0.045044 0.382490 0.588824 0.098961
H8    H     H_    0.133540 0.551456 0.249822 0.116289
H9    H     H_    0.010884 0.484749 0.098048 0.090541
H10   H     H_    0.857119 0.365383 0.108571 0.093524
H11   H     H_    0.826242 0.312136 0.272205 0.085314
H12   H     H_    0.696111 0.469043 0.961076 0.093113
H13   H     H_    0.949829 0.376265 0.424825 0.099515
H14   H     H_    0.603835 0.090007 0.778039 0.117999
H15   H     H_    0.752106 0.005079 0.900899 0.112620
H16   H     H_    0.916134 0.917257 0.848018 0.111486
H17   H     H_    0.933276 0.915679 0.671771 0.123234
H18   H     H_    0.786750 0.000713 0.548358 0.105285
H19   H     H_    0.325421 0.934286 0.254050 0.118583
H20   H     H_    0.332051 0.030513 0.110217 0.110527
H21   H     H_    0.523549 0.117807 0.102076 0.101764
H22   H     H_    0.709727 0.107971 0.237808 0.096431
H23   H     H_    0.334251 0.057469 0.398395 0.125186
H24   H     H_    0.705066 0.011690 0.381502 0.103559
H25   H     H_    0.159782 0.184806 0.388695 0.103139
H26   H     H_    0.027607 0.223968 0.228214 0.110797
H27   H     H_    0.122533 0.288316 0.094618 0.106709
H28   H     H_    0.352749 0.306067 0.119032 0.102146
H29   H     H_    0.487406 0.258518 0.275328 0.109106
H30   H     H_    0.357750 0.800813 0.725492 0.131515
H31   H     H_    0.410523 0.740449 0.895118 0.116753
H32   H     H_    0.621371 0.681379 0.959705 0.136472
H33   H     H_    0.779162 0.680410 0.853437 0.093617
H34   H     H_    0.489158 0.937902 0.658948 0.123069
H35   H     H_    0.727727 0.739610 0.683203 0.107728
H36   H     H_    0.638200 0.397178 0.094772 0.084736
H37   H     H_    0.301811 0.525064 0.897484 0.099436
H38   H     H_    0.638918 0.403098 0.272962 0.121634
H39   H     H_    0.305954 0.524591 0.722154 0.165841
H40   H     H_    0.356134 0.593554 0.225086 0.134285
I1    I     I_    0.837792 0.634051 0.368189 -0.293731
I2    I     I_    0.162072 0.657682 0.598287 -0.430393
I3    I     I_    0.741026 0.263351 0.667476 -0.421741
I4    I     I_    0.532031 0.763958 0.275101 -0.362227
N1    N     N_R   0.500000 0.500020 0.258690 -0.208406
N2    N     N_R   0.500000 0.499980 0.741310 -0.216615
O1    O     O_R   0.500010 0.371450 0.581440 -0.470361
O2    O     O_R   0.499990 0.628550 0.418560 -0.460330
O3    O     O_R   0.500010 0.371460 0.418560 -0.517723
O4    O     O_R   0.499990 0.628540 0.581440 -0.484465
O5    O     O_R   0.320690 0.500000 0.551510 -0.495922
O6    O     O_R   0.679310 0.500000 0.448490 -0.471924
O7    O     O_R   0.320690 0.500010 0.388630 -0.509999
O8    O     O_R   0.679310 0.499990 0.611370 -0.509605

loop_
_geom_bond_atom_site_label_1
_geom_bond_atom_site_label_2
_ccdc_geom_bond_type
Cu1   O8    S    
C40   C41   A    
C66   N1    A    
C2    N2    A    
C41   C42   A    
C35   C36   A    
C49   H22   S    
C60   H31   S    
C8    O8    A    
C53   C54   A    
C1    C18   S    
C29   C30   A    
C28   C29   A    
C3    H1    S    
Cu1   N2    S    
C15   C44   S    
C4    H12   S    
C20   C51   S    
C38   C39   A    
C56   C65   A    
C25   C30   A    
C15   C17   A    
C65   N2    A    
Cu1   O1    S    
C13   I1    S    
C17   C19   A    
C46   C47   A    
C31   C32   A    
C50   H24   S    
C22   H23   S    
C51   C57   A    
C15   C34   A    
C24   H34   S    
Cu2   N1    S    
C62   H33   S    
C59   C60   A    
C11   I2    S    
C26   H3    S    
C40   H15   S    
C37   H13   S    
C7    O7    A    
C28   H5    S    
C44   C46   A    
Cu1   Cu2   S    
C7    O5    A    
C63   H35   S    
C66   H40   S    
C39   C40   A    
C29   H6    S    
C58   C59   A    
C41   H16   S    
C5    C45   A    
C10   C13   D    
C24   C34   A    
C51   C52   A    
C60   C61   A    
C14   C23   A    
C2    C4    A    
C62   C63   A    
C45   H36   S    
Cu2   O3    S    
C14   C38   S    
C47   C48   A    
C23   C34   S    
C57   H29   S    
C26   C27   A    
C52   H25   S    
C42   H17   S    
C1    O3    A    
C9    C11   D    
C54   H27   S    
Cu2   O2    S    
C12   O4    A    
C10   C25   S    
C4    C6    A    
C48   C49   A    
C20   C22   A    
C48   H21   S    
C55   C57   A    
C14   C16   A    
C3    C66   A    
C42   C43   A    
C17   I4    S    
C52   C53   A    
C8    O6    A    
C46   H19   S    
C44   C50   A    
C58   C63   A    
C7    C9    S    
C54   C55   A    
C36   C37   A    
C64   N1    A    
C45   C64   A    
C19   C21   A    
C53   H26   S    
C43   H18   S    
C16   C18   A    
C39   H14   S    
C6    C56   A    
C55   H28   S    
C3    C5    A    
C36   H11   S    
Cu2   O7    S    
C32   H8    S    
C64   H38   S    
C35   H10   S    
C47   H20   S    
C25   C26   A    
C38   C43   A    
C32   C33   A    
C30   H7    S    
C11   C13   S    
C33   H9    S    
C5    C6    S    
C12   C19   S    
C33   C35   A    
C18   C20   A    
C61   C62   A    
Cu1   O4    S    
C56   H37   S    
C9    C31   S    
C61   H32   S    
C31   C37   A    
C21   C58   S    
C8    C10   S    
C49   C50   A    
C21   C24   A    
C27   C28   A    
C59   H30   S    
C22   C23   A    
C1    O1    A    
C2    H2    S    
Cu1   O5    S    
C65   H39   S    
Cu2   O6    S    
C27   H4    S    
C16   I3    S    
C12   O2    A    
