data_mof_unit_13606.cif
_audit_creation_date              2012-12-10T18:35:47-0500
_audit_creation_method            fapswitch 2.2
_symmetry_space_group_name_H-M    P1
_symmetry_Int_Tables_number       1
_space_group_crystal_system       triclinic
_cell_length_a                    13.390761
_cell_length_b                    13.925466
_cell_length_c                    15.171797
_cell_angle_alpha                 90.047938
_cell_angle_beta                  92.016473
_cell_angle_gamma                 73.170776
_cell_volume                      2706.1521683

loop_
_atom_site_label
_atom_site_type_symbol
_atom_type_description
_atom_site_fract_x
_atom_site_fract_y
_atom_site_fract_z
_atom_type_partial_charge
C1    C     C_R   0.497329 0.500642 0.670336 0.842598
C2    C     C_R   0.981846 0.449822 0.479547 -0.034516
C3    C     C_R   0.872454 0.476073 0.462033 -0.021122
C4    C     C_R   0.033776 0.523722 0.464748 0.016158
C5    C     C_R   0.983436 0.610826 0.413750 0.069834
C6    C     C_R   0.879735 0.627188 0.383346 0.406025
C7    C     C_R   0.824673 0.561197 0.408530 -0.205319
C8    C     C_R   0.132893 0.515548 0.502721 -0.235688
C9    C     C_R   0.139694 0.665678 0.426441 -0.205163
C10   C     C_R   0.814850 0.414505 0.496465 -0.061948
C11   C     C_R   0.475386 0.415072 0.904294 0.380536
C12   C     C_R   0.700042 0.446650 0.497174 0.802897
C13   C     C_R   0.470192 0.419253 0.812046 0.336482
C14   C     C_R   0.488738 0.501879 0.767371 -0.316346
C15   C     C_R   0.495817 0.585986 0.817110 0.352556
C16   C     C_R   0.485590 0.586202 0.907687 -0.253936
C17   C     C_R   0.479896 0.500354 0.952606 -0.129233
C18   C     C_R   0.551350 0.545729 0.094815 -0.255173
C19   C     C_R   0.552680 0.551575 0.186408 0.437611
C20   C     C_R   0.494092 0.501777 0.234261 -0.127589
C21   C     C_R   0.427920 0.454873 0.189659 -0.272286
C22   C     C_R   0.420347 0.456849 0.098040 -0.120552
C23   C     C_R   0.498953 0.500353 0.330270 0.828893
C24   C     C_R   0.483808 0.500341 0.049815 0.091619
C25   C     C_R   0.412895 0.914562 0.460147 -0.296482
C26   C     C_R   0.417663 0.811903 0.460354 -0.013881
C27   C     C_R   0.580947 0.771417 0.538103 0.548135
C28   C     C_R   0.581106 0.871807 0.534124 -0.232619
C29   C     C_R   0.495047 0.946432 0.498700 0.098863
C30   C     C_R   0.536625 0.096176 0.573786 0.346480
C31   C     C_R   0.545802 0.194575 0.569072 0.435292
C32   C     C_R   0.450097 0.221577 0.432338 0.539392
C33   C     C_R   0.449924 0.120678 0.431209 -0.328155
C34   C     C_R   0.300182 0.553306 0.497845 0.774975
C35   C     C_R   0.492938 0.055730 0.501765 -0.122005
C36   C     C_R   0.037766 0.680477 0.394393 -0.164387
C37   C     C_R   0.187803 0.582336 0.479849 -0.040170
C38   C     C_R   0.867924 0.322667 0.537152 -0.285791
C39   C     C_R   0.976092 0.290215 0.542124 -0.124788
C40   C     C_R   0.034098 0.350500 0.510920 0.402236
Cu1   Cu    Cu3+1 0.500000 0.403570 0.500010 0.947908
Cu2   Cu    Cu3+1 0.500000 0.596430 0.499990 0.944341
H1    H     H_    0.182040 0.717242 0.406839 0.140928
H2    H     H_    0.487273 0.653053 0.943616 0.180139
H3    H     H_    0.602910 0.577409 0.058904 0.147655
H4    H     H_    0.379647 0.419413 0.225808 0.193755
H5    H     H_    0.364741 0.424628 0.065197 0.181747
H6    H     H_    0.344681 0.968474 0.430812 0.158216
H7    H     H_    0.354230 0.789206 0.429441 0.138042
H8    H     H_    0.649107 0.890699 0.560388 0.197983
H9    H     H_    0.414851 0.093726 0.374573 0.188918
H10   H     H_    0.002700 0.745550 0.353111 0.162695
H11   H     H_    0.169589 0.456723 0.549923 0.183350
H12   H     H_    0.825562 0.274617 0.564129 0.169162
H13   H     H_    0.015454 0.216136 0.568507 0.161772
H14   H     H_    0.745400 0.575956 0.382769 0.205206
N1    N     N_R   0.500000 0.741310 0.499980 -0.213474
N2    N     N_R   0.500060 0.258650 0.499980 -0.296579
O1    O     O_R   0.499990 0.418570 0.628550 -0.542569
O2    O     O_R   0.499990 0.581440 0.628540 -0.575543
O3    O     O_R   0.650980 0.378820 0.499990 -0.606348
O4    O     O_R   0.650980 0.541690 0.499970 -0.579414
O5    O     O_R   0.500010 0.418560 0.371460 -0.559472
O6    O     O_R   0.500010 0.581430 0.371450 -0.590783
O7    O     O_R   0.349020 0.458310 0.500030 -0.618105
O8    O     O_R   0.349020 0.621180 0.500010 -0.583656
O9    O     O_3   0.455642 0.337425 0.767084 -0.563321
C41   C     C_3   0.350865 0.358953 0.734604 0.128784
H15   H     H_    0.351735 0.318172 0.671496 0.177000
H16   H     H_    0.313442 0.440047 0.718840 0.102884
C42   C     C_3   0.285032 0.321401 0.799286 -0.370053
H17   H     H_    0.324786 0.241795 0.817260 0.229603
H18   H     H_    0.276376 0.366840 0.860275 0.235739
C43   C     C_3   0.176798 0.329409 0.758998 -0.910397
H19   H     H_    0.135469 0.408490 0.740505 0.259468
H20   H     H_    0.130216 0.303294 0.807747 0.261022
H21   H     H_    0.183260 0.281860 0.699416 0.278022
O10   O     O_3   0.513732 0.668978 0.779753 -0.701937
H22   H     H_    0.581893 0.644417 0.751509 0.321166
O11   O     O_3   0.614952 0.602423 0.228747 -0.615249
C44   C     C_3   0.558199 0.705205 0.235832 0.111039
H23   H     H_    0.573686 0.729626 0.303276 0.170429
H24   H     H_    0.471520 0.720712 0.228521 0.117217
C45   C     C_3   0.595398 0.768540 0.169159 -0.360463
H25   H     H_    0.680796 0.755957 0.179272 0.255674
H26   H     H_    0.580176 0.745833 0.101042 0.207853
C46   C     C_3   0.538840 0.879939 0.179044 -0.930589
H27   H     H_    0.454052 0.894540 0.163459 0.259949
H28   H     H_    0.570699 0.924472 0.132836 0.261965
H29   H     H_    0.549621 0.904556 0.247409 0.259484
O12   O     O_3   0.664363 0.705957 0.582036 -0.752062
H30   H     H_    0.637658 0.656663 0.612507 0.354865
O13   O     O_3   0.832999 0.705847 0.326009 -0.617332
C47   C     C_3   0.779603 0.790960 0.374428 0.051354
H31   H     H_    0.815599 0.794417 0.441535 0.146624
H32   H     H_    0.697853 0.789759 0.381861 0.159157
C48   C     C_3   0.780026 0.885609 0.323414 -0.351512
H33   H     H_    0.861284 0.890101 0.320434 0.211410
H34   H     H_    0.749724 0.882219 0.254770 0.237459
C49   C     C_3   0.713475 0.980225 0.366746 -0.901194
H35   H     H_    0.630691 0.980367 0.364368 0.261728
H36   H     H_    0.719452 0.047440 0.330478 0.263391
H37   H     H_    0.740199 0.984391 0.436420 0.259287
O14   O     O_3   0.577178 0.038223 0.647735 -0.589427
C50   C     C_3   0.496025 0.045714 0.706615 0.070554
H38   H     H_    0.426664 0.030587 0.673065 0.141778
H39   H     H_    0.472243 0.122114 0.735586 0.176034
C51   C     C_3   0.535627 0.968096 0.780508 -0.319304
H40   H     H_    0.558385 0.891656 0.751780 0.249202
H41   H     H_    0.605777 0.980643 0.814161 0.228932
C52   C     C_3   0.452282 0.974281 0.848081 -0.894944
H42   H     H_    0.429067 0.049750 0.878476 0.245514
H43   H     H_    0.483754 0.917280 0.900895 0.266657
H44   H     H_    0.382434 0.959326 0.816125 0.268287
O15   O     O_3   0.602168 0.222891 0.636422 -0.681952
H45   H     H_    0.637777 0.268612 0.611293 0.352438
O16   O     O_3   0.399163 0.280118 0.362474 -0.732334
H46   H     H_    0.361144 0.345815 0.386068 0.351880
O17   O     O_3   0.139746 0.305704 0.504086 -0.767698
H47   H     H_    0.162379 0.332934 0.450419 0.330325
O18   O     O_3   0.470585 0.328300 0.946145 -0.617908
C53   C     C_3   0.572192 0.269738 0.973351 0.056494
H48   H     H_    0.564747 0.229308 0.034748 0.176572
H49   H     H_    0.626626 0.315005 0.990305 0.129286
C54   C     C_3   0.618735 0.192437 0.902902 -0.295228
H50   H     H_    0.561266 0.152077 0.883107 0.239662
H51   H     H_    0.635954 0.231224 0.843905 0.256721
C55   C     C_3   0.719392 0.116540 0.936864 -0.934221
H52   H     H_    0.778158 0.155376 0.956962 0.259587
H53   H     H_    0.751693 0.062705 0.883798 0.269296
H54   H     H_    0.703813 0.074006 0.994122 0.256027

loop_
_geom_bond_atom_site_label_1
_geom_bond_atom_site_label_2
_ccdc_geom_bond_type
C46   H27   S    
C18   H3    S    
O13   C47   S    
C34   C37   S    
Cu1   Cu2   S    
C19   C20   A    
C45   C46   S    
C32   N2    A    
C32   O16   S    
C4    C8    A    
C55   H52   S    
C34   O8    A    
C48   H33   S    
C50   H39   S    
C43   H20   S    
C30   C35   A    
C18   C24   A    
C31   N2    A    
C28   C29   A    
C45   H26   S    
Cu1   N2    S    
C3    C7    A    
C1    O1    A    
C30   C31   A    
C15   O10   S    
C15   C16   A    
C5    C36   A    
C51   H40   S    
C34   O7    A    
C18   C19   A    
C48   H34   S    
C28   H8    S    
C39   H13   S    
C52   H42   S    
C41   H15   S    
C43   H21   S    
C54   C55   S    
C27   O12   S    
Cu1   O3    S    
C16   H2    S    
C36   H10   S    
C23   O5    A    
C22   H5    S    
C21   C22   A    
C11   O18   S    
C7    H14   S    
Cu2   N1    S    
C31   O15   S    
O14   C50   S    
C44   H24   S    
C44   H23   S    
C25   C29   A    
C38   C39   A    
C50   C51   S    
C9    H1    S    
C17   C24   S    
C43   H19   S    
O9    C41   S    
C45   H25   S    
Cu1   O1    S    
C27   N1    A    
C1    O2    A    
Cu2   O2    S    
C39   C40   A    
C42   H18   S    
O10   H22   S    
C16   C17   A    
Cu1   O7    S    
C47   C48   S    
C25   C26   A    
C49   H37   S    
C2    C4    A    
C9    C36   A    
C12   O4    A    
C38   H12   S    
C20   C23   S    
C6    O13   S    
C9    C37   A    
C47   H31   S    
C52   H43   S    
C47   H32   S    
C25   H6    S    
O18   C53   S    
C10   C12   S    
C23   O6    A    
C49   H36   S    
C46   H28   S    
C54   H50   S    
C22   C24   A    
C26   H7    S    
C8    C37   A    
Cu1   O5    S    
C53   H49   S    
C55   H54   S    
Cu2   O6    S    
O12   H30   S    
C44   C45   S    
C54   H51   S    
C21   H4    S    
C13   O9    S    
Cu2   O4    S    
C11   C17   A    
C48   C49   S    
O11   C44   S    
C55   H53   S    
C8    H11   S    
C42   C43   S    
O17   H47   S    
C6    C7    A    
C33   H9    S    
C50   H38   S    
C29   C35   S    
C51   C52   S    
C10   C38   A    
C32   C33   A    
C53   C54   S    
C2    C3    A    
C42   H17   S    
C3    C10   A    
O16   H46   S    
C12   O3    A    
C11   C13   A    
C5    C6    A    
C41   C42   S    
C49   H35   S    
C33   C35   A    
C51   H41   S    
C52   H44   S    
C19   O11   S    
C26   N1    A    
C2    C40   A    
C4    C5    A    
C40   O17   S    
C20   C21   A    
C41   H16   S    
C46   H29   S    
C30   O14   S    
C27   C28   A    
Cu2   O8    S    
C14   C15   A    
C1    C14   S    
C53   H48   S    
C13   C14   A    
O15   H45   S    
