data_mof_unit_24392.cif
_audit_creation_date              2013-03-05T16:34:21-0500
_audit_creation_method            fapswitch 2.2
_symmetry_space_group_name_H-M    P1
_symmetry_Int_Tables_number       1
_space_group_crystal_system       triclinic
_cell_length_a                    18.885651
_cell_length_b                    18.635766
_cell_length_c                    18.934321
_cell_angle_alpha                 109.321928
_cell_angle_beta                  109.900149
_cell_angle_gamma                 109.278187
_cell_volume                      5124.2468511

loop_
_atom_site_label
_atom_site_type_symbol
_atom_site_description
_atom_site_fract_x
_atom_site_fract_y
_atom_site_fract_z
_atom_type_partial_charge
O1    O     O_R   0.409800 0.552180 0.462000 -0.602347
O2    O     O_R   0.409830 0.447810 0.357640 -0.568847
C1    C     C_R   0.382368 0.501574 0.381558 0.784081
O3    O     O_R   0.590160 0.642370 0.552180 -0.583797
O4    O     O_R   0.590190 0.537990 0.447820 -0.575263
C2    C     C_R   0.620470 0.619590 0.502505 0.785309
Cu1   Cu    Cu3+1 0.499980 0.561800 0.561790 1.029401
Cu2   Cu    Cu3+1 0.500020 0.438200 0.438210 1.026576
O5    O     O_R   0.590170 0.552190 0.642360 -0.566504
O6    O     O_R   0.590200 0.447820 0.538000 -0.577544
O7    O     O_R   0.409810 0.462010 0.552180 -0.552502
O8    O     O_R   0.409840 0.357630 0.447820 -0.580694
C3    C     C_R   0.619199 0.500132 0.618330 0.766430
C4    C     C_R   0.379438 0.381036 0.497941 0.786110
C5    C     C_R   0.727994 0.868713 0.773955 -0.161497
H1    H     H_    0.711764 0.918541 0.798555 0.189835
C6    C     C_R   0.736059 0.852343 0.700307 -0.153721
H2    H     H_    0.725831 0.889557 0.668423 0.197630
C7    C     C_R   0.755879 0.787079 0.666954 0.176726
C8    C     C_R   0.770617 0.740793 0.710090 -0.166040
H3    H     H_    0.788680 0.692739 0.687018 0.134522
C9    C     C_R   0.760931 0.755967 0.782693 -0.172155
H4    H     H_    0.769095 0.717498 0.813439 0.158402
C10   C     C_R   0.739407 0.819704 0.814622 0.480675
C11   C     C_R   0.822048 0.828350 0.583121 0.270675
C12   C     C_R   0.812540 0.818231 0.502630 -0.168476
C13   C     C_R   0.735659 0.748489 0.424467 0.065103
C14   C     C_R   0.677088 0.682125 0.426743 -0.180075
H5    H     H_    0.619973 0.626737 0.366486 0.170267
C15   C     C_R   0.687891 0.689088 0.505617 -0.135335
C16   C     C_R   0.757010 0.765768 0.584674 -0.097548
C17   C     C_R   0.650429 0.767496 0.306526 -0.257004
H6    H     H_    0.619979 0.787191 0.342459 0.172213
C18   C     C_R   0.628514 0.766758 0.228064 0.396205
C19   C     C_R   0.667797 0.742007 0.181362 -0.247395
H7    H     H_    0.649694 0.741344 0.120297 0.236704
C20   C     C_R   0.728696 0.716446 0.211946 0.269373
C21   C     C_R   0.751043 0.717860 0.292009 0.316249
C22   C     C_R   0.712310 0.744184 0.339458 -0.050396
C23   C     C_R   0.466004 0.788423 0.540011 -0.097750
H8    H     H_    0.468667 0.815166 0.601658 0.175656
C24   C     C_R   0.398811 0.704233 0.473055 -0.063573
H9    H     H_    0.350209 0.666690 0.483762 0.177589
C25   C     C_R   0.394447 0.668808 0.392706 0.080606
C26   C     C_R   0.457456 0.719271 0.379806 -0.224197
H10   H     H_    0.454488 0.693364 0.317893 0.173351
C27   C     C_R   0.523759 0.804123 0.446475 -0.150543
H11   H     H_    0.571178 0.843449 0.435747 0.171524
C28   C     C_R   0.527795 0.838908 0.526372 0.444560
C29   C     C_R   0.256318 0.577545 0.253267 -0.123479
H12   H     H_    0.260295 0.638169 0.256753 0.189476
C30   C     C_R   0.185470 0.496720 0.182976 -0.066303
C31   C     C_R   0.179282 0.417304 0.178250 0.029285
C32   C     C_R   0.245361 0.421576 0.244740 -0.205003
H13   H     H_    0.242261 0.361305 0.241487 0.167357
C33   C     C_R   0.315476 0.502351 0.315400 -0.087501
C34   C     C_R   0.321036 0.581403 0.320398 0.014176
C35   C     C_R   0.062698 0.264406 0.119356 -0.210928
H14   H     H_    0.078617 0.280278 0.185026 0.154516
C36   C     C_R   0.998278 0.179091 0.050534 0.385378
C37   C     C_R   0.979316 0.158956 0.965649 -0.161281
H15   H     H_    0.930314 0.093831 0.911266 0.191032
C38   C     C_R   0.024321 0.222531 0.950192 -0.128268
H16   H     H_    0.010269 0.205403 0.884715 0.187060
C39   C     C_R   0.088261 0.307167 0.018865 -0.064370
H17   H     H_    0.123904 0.354991 0.005796 0.124916
C40   C     C_R   0.107638 0.329130 0.104112 0.054298
C41   C     C_R   0.236046 0.531836 0.523037 -0.269650
H18   H     H_    0.263036 0.597692 0.574395 0.212251
C42   C     C_R   0.253177 0.471362 0.544119 0.349413
C43   C     C_R   0.218200 0.385332 0.476379 -0.025855
C44   C     C_R   0.165468 0.361834 0.390453 -0.280343
H19   H     H_    0.138225 0.296377 0.338071 0.196596
C45   C     C_R   0.147814 0.422108 0.370964 -0.174791
H20   H     H_    0.106570 0.401882 0.304172 0.192138
C46   C     C_R   0.183391 0.507878 0.436792 0.348404
C47   C     C_R   0.174057 0.252646 0.491326 -0.183658
H21   H     H_    0.116753 0.255840 0.487910 0.170548
C48   C     C_R   0.184585 0.182796 0.495503 -0.110045
C49   C     C_R   0.257382 0.176720 0.496605 0.025844
C50   C     C_R   0.320787 0.243381 0.498467 -0.206468
H22   H     H_    0.377050 0.239194 0.499457 0.158300
C51   C     C_R   0.311318 0.313983 0.496404 -0.062431
C52   C     C_R   0.236844 0.318624 0.491584 0.091700
C53   C     C_R   0.335275 0.103925 0.549964 -0.193215
H23   H     H_    0.381281 0.165113 0.610567 0.191781
C54   C     C_R   0.347403 0.031479 0.535718 -0.201767
H24   H     H_    0.402160 0.037846 0.586368 0.189687
C55   C     C_R   0.290181 0.952191 0.456376 0.388593
C56   C     C_R   0.219978 0.946637 0.392141 -0.231712
H25   H     H_    0.175283 0.886696 0.330319 0.176716
C57   C     C_R   0.206979 0.018579 0.407057 -0.201780
H26   H     H_    0.153210 0.013313 0.356204 0.143869
C58   C     C_R   0.264879 0.097811 0.485834 0.132866
H27   H     H_    0.615172 0.465952 0.742058 0.182909
C59   C     C_R   0.781973 0.542719 0.622061 -0.259545
H28   H     H_    0.736007 0.551955 0.578596 0.171622
C60   C     C_R   0.857632 0.559631 0.619391 -0.221266
H29   H     H_    0.867299 0.579924 0.574443 0.199754
C61   C     C_R   0.918783 0.546929 0.670982 0.384722
C62   C     C_R   0.905748 0.519019 0.728494 0.273693
C63   C     C_R   0.831186 0.508463 0.738085 -0.078605
C64   C     C_R   0.767294 0.517493 0.680644 0.050038
C65   C     C_R   0.689733 0.501776 0.682835 -0.067884
C66   C     C_R   0.675282 0.479104 0.741481 -0.187544
H30   H     H_    0.724452 0.457086 0.845742 0.192259
C67   C     C_R   0.737171 0.472150 0.799249 -0.198369
C68   C     C_R   0.815874 0.488574 0.800729 -0.095547
O9    O     O_R   0.052200 0.909800 0.461980 -0.605637
O10   O     O_R   0.947810 0.909820 0.357620 -0.572484
C69   C     C_R   0.998150 0.878062 0.381694 0.814310
O11   O     O_R   0.962020 0.909790 0.552160 -0.536060
O12   O     O_R   0.857630 0.909810 0.447800 -0.593979
C70   C     C_R   0.880888 0.882147 0.500775 0.889570
Cu3   Cu    Cu3+1 0.061810 0.999960 0.561770 1.046112
Cu4   Cu    Cu3+1 0.938190 0.999990 0.438190 1.039179
O13   O     O_R   0.052190 0.090140 0.642340 -0.541683
O14   O     O_R   0.947800 0.090160 0.537980 -0.589995
O15   O     O_R   0.142370 0.090150 0.552150 -0.581527
O16   O     O_R   0.037980 0.090170 0.447800 -0.575816
C71   C     C_R   0.000823 0.119722 0.618635 0.822341
C72   C     C_R   0.118638 0.117339 0.498219 0.772793
O17   O     O_R   0.052180 0.461950 0.909820 -0.516632
O18   O     O_R   0.947800 0.357590 0.909850 -0.617891
C73   C     C_R   0.998835 0.380380 0.880530 0.811568
O19   O     O_R   0.142360 0.552150 0.090150 -0.583352
O20   O     O_R   0.037980 0.447790 0.090180 -0.564566
C74   C     C_R   0.118650 0.498206 0.117290 0.772873
Cu5   Cu    Cu3+1 0.061790 0.561750 0.999970 1.100996
Cu6   Cu    Cu3+1 0.938180 0.438170 0.000010 1.037451
O21   O     O_R   0.052170 0.642340 0.090130 -0.577669
O22   O     O_R   0.947790 0.537980 0.090160 -0.540075
O23   O     O_R   0.962000 0.552140 0.909800 -0.552690
O24   O     O_R   0.857610 0.447780 0.909830 -0.589694
C75   C     C_R   0.999370 0.619253 0.117280 0.785530
C76   C     C_R   0.881803 0.493737 0.874721 0.803472
H31   H     H_    0.132366 0.741295 0.629571 0.192055
C77   C     C_R   0.156189 0.812423 0.563638 -0.081760
H32   H     H_    0.215885 0.868301 0.620538 0.155050
C78   C     C_R   0.126559 0.812034 0.485308 -0.080145
H33   H     H_    0.165340 0.867849 0.483265 0.155340
C79   C     C_R   0.047751 0.741759 0.410694 -0.002833
C80   C     C_R   0.003690 0.664611 0.413888 0.390945
C81   C     C_R   0.034733 0.667468 0.494523 -0.124067
H34   H     H_    0.001700 0.611726 0.500205 0.204298
C82   C     C_R   0.109434 0.740914 0.568619 -0.109279
C83   C     C_R   0.023978 0.687807 0.262841 -0.071192
H35   H     H_    0.041724 0.640318 0.271644 0.189621
C84   C     C_R   0.001978 0.687339 0.184688 -0.066268
C85   C     C_R   0.986325 0.752817 0.173988 0.036164
C86   C     C_R   0.984487 0.812778 0.239722 -0.175174
H36   H     H_    0.971513 0.862728 0.231102 0.180771
C87   C     C_R   0.000719 0.810558 0.316631 -0.071357
C88   C     C_R   0.022204 0.747089 0.329323 0.079208
C89   C     C_R   0.030844 0.842256 0.107855 -0.196547
H37   H     H_    0.083673 0.895148 0.171947 0.155350
C90   C     C_R   0.019196 0.853723 0.036166 0.476497
C91   C     C_R   0.951255 0.785935 0.953310 -0.125194
H38   H     H_    0.941943 0.794405 0.897570 0.177088
C92   C     C_R   0.894597 0.707211 0.942311 -0.204861
H39   H     H_    0.841436 0.655692 0.878379 0.159135
C93   C     C_R   0.905921 0.695349 0.013703 -0.045627
H40   H     H_    0.860801 0.634287 0.004192 0.149826
C94   C     C_R   0.974562 0.762747 0.097031 0.050182
C95   C     C_R   0.301641 0.276362 0.844408 -0.182715
H41   H     H_    0.344318 0.270968 0.895133 0.210415
C96   C     C_R   0.222202 0.266972 0.836503 0.366262
C97   C     C_R   0.166139 0.273211 0.769897 0.008843
C98   C     C_R   0.191205 0.288823 0.712188 -0.228982
H42   H     H_    0.148916 0.293271 0.660295 0.171708
C99   C     C_R   0.270494 0.297629 0.720460 -0.105386
H43   H     H_    0.289008 0.308571 0.675302 0.206463
C100  C     C_R   0.325684 0.291479 0.786415 0.385281
C101  C     C_R   0.077089 0.323409 0.820213 -0.150608
H44   H     H_    0.137323 0.380763 0.875359 0.168112
C102  C     C_R   0.997383 0.311981 0.813206 -0.061945
C103  C     C_R   0.918697 0.236471 0.742079 0.012526
C104  C     C_R   0.921772 0.176218 0.677596 -0.163769
H45   H     H_    0.861709 0.118661 0.622370 0.170768
C105  C     C_R   0.001500 0.187373 0.685349 -0.057115
C106  C     C_R   0.080205 0.260528 0.758074 0.070354
C107  C     C_R   0.803892 0.186104 0.780020 -0.073759
H46   H     H_    0.844760 0.173654 0.824826 0.128410
C108  C     C_R   0.722744 0.170226 0.771054 -0.050719
H47   H     H_    0.701420 0.145843 0.808849 0.150898
C109  C     C_R   0.668930 0.185320 0.712974 -0.049568
H48   H     H_    0.606055 0.172845 0.705966 0.144533
C110  C     C_R   0.695861 0.215496 0.663165 -0.124593
H49   H     H_    0.653750 0.226227 0.617493 0.150812
C111  C     C_R   0.776972 0.231437 0.671966 -0.097310
H50   H     H_    0.796324 0.253355 0.631905 0.182932
C112  C     C_R   0.832477 0.218968 0.732090 0.097802
Cl1   Cl    Cl    0.726054 0.837341 0.904990 -0.469216
N1    N     N_R   0.766656 0.689758 0.161198 0.147757
O25   O     O_R   0.772940 0.719561 0.109103 -0.341270
O26   O     O_R   0.784821 0.627663 0.158085 -0.250791
Cl2   Cl    Cl    0.829139 0.690736 0.336566 -0.565675
Cl3   Cl    Cl    0.607932 0.947084 0.607981 -0.662485
N2    N     N_R   0.953402 0.113062 0.066930 0.149997
O27   O     O_R   0.970015 0.131773 0.145382 -0.329754
O28   O     O_R   0.896261 0.033246 0.003648 -0.294471
N3    N     N_R   0.165848 0.570189 0.416211 0.125313
O29   O     O_R   0.199553 0.650226 0.477026 -0.365229
O30   O     O_R   0.116673 0.547747 0.336320 -0.365539
N4    N     N_R   0.306462 0.498906 0.633723 0.152786
O31   O     O_R   0.295791 0.443020 0.661237 -0.359078
O32   O     O_R   0.361449 0.581668 0.689990 -0.311102
N5    N     N_R   0.302391 0.877453 0.441758 0.126868
O33   O     O_R   0.363920 0.880881 0.503277 -0.350283
O34   O     O_R   0.250616 0.804512 0.367838 -0.369541
Cl4   Cl    Cl    0.008586 0.559755 0.656296 -0.512557
N6    N     N_R   0.961433 0.489452 0.765162 0.140625
O35   O     O_R   0.044869 0.543496 0.813323 -0.261808
O36   O     O_R   0.933123 0.405697 0.728762 -0.408217
N7    N     N_R   0.930755 0.582462 0.338357 0.153875
O37   O     O_R   0.889029 0.576398 0.264217 -0.253377
O38   O     O_R   0.904747 0.511447 0.343665 -0.306288
Cl5   Cl    Cl    0.089146 0.953397 0.050305 -0.510974
Cl6   Cl    Cl    0.424667 0.301835 0.795730 -0.598172
Cl7   Cl    Cl    0.193467 0.243421 0.908568 -0.588062
N8    N     N_R   0.894228 0.905065 0.663063 0.130116
O39   O     O_R   0.909793 0.982922 0.675463 -0.382634
O40   O     O_R   0.939552 0.897186 0.726398 -0.307280
Cl8   Cl    Cl    0.551456 0.796907 0.188124 -0.523014

loop_
_geom_bond_atom_site_label_1
_geom_bond_atom_site_label_2
_geom_bond_distance
_ccdc_geom_bond_type
C11   C16   1.403963 A    
N1    O26   1.300391 A    
C99   H43   1.080160 S    
C38   C39   1.397473 A    
C111  H50   1.082102 S    
C92   C93   1.397856 A    
C89   C90   1.398672 A    
C98   H42   1.083300 S    
C7    C8    1.399508 A    
C54   H24   1.082466 S    
C7    C16   1.484608 S    
O11   C70   1.300755 A    
C104  H45   1.085142 S    
C30   C74   1.455150 S    
Cu1   Cu2   2.686338 S    
C27   C28   1.398031 A    
C47   H21   1.084595 S    
C108  H47   1.082290 S    
C42   N4    1.440448 S    
Cu1   O7    1.966066 S    
C66   C67   1.379418 A    
C12   C13   1.416284 A    
C95   H41   1.082858 S    
C45   C46   1.400786 A    
C14   H5    1.085515 S    
C83   C84   1.390312 A    
C78   C79   1.408305 A    
C93   H40   1.083086 S    
O21   C75   1.286757 A    
O9    C69   1.285568 A    
C53   H23   1.083094 S    
C15   C16   1.417479 A    
C108  C109  1.397843 A    
O7    C4    1.289468 A    
C46   N3    1.440716 S    
O17   C73   1.297614 A    
C55   N5    1.438780 S    
H30   C67   1.083710 S    
C35   C36   1.406594 A    
C80   C81   1.412027 A    
C33   C34   1.410348 A    
O19   C74   1.294787 A    
C110  C111  1.398398 A    
C18   C19   1.395619 A    
C1    C33   1.453299 S    
C17   C22   1.400614 A    
C37   C38   1.394843 A    
C83   C88   1.392498 A    
O5    C3    1.295237 A    
C101  H44   1.084761 S    
C90   Cl5   1.754141 S    
O13   C71   1.291104 A    
H27   C66   1.084163 S    
C36   N2    1.439458 S    
C107  H46   1.082582 S    
C90   C91   1.396884 A    
C83   H35   1.085693 S    
O16   C72   1.291895 A    
N5    O33   1.300556 A    
C39   C40   1.403050 A    
C59   C60   1.380555 A    
O23   C76   1.291500 A    
C29   C30   1.400250 A    
C86   H36   1.084939 S    
C11   N8    1.438641 S    
C42   C43   1.419495 A    
Cu2   O8    1.972654 S    
C44   H19   1.083502 S    
O12   Cu4   1.968420 S    
C47   C48   1.403040 A    
N1    O25   1.301607 A    
N2    O27   1.301647 A    
C95   C96   1.400094 A    
C103  C112  1.480691 S    
O17   Cu5   1.967481 S    
C86   C87   1.400208 A    
C91   C92   1.396503 A    
C98   C99   1.398148 A    
Cu6   O24   1.968883 S    
C107  C112  1.404667 A    
C4    C51   1.451316 S    
O3    Cu1   1.972653 S    
C31   C40   1.487898 S    
C101  C106  1.393295 A    
C9    H4    1.079209 S    
C65   C66   1.388029 A    
C50   C51   1.396148 A    
C18   Cl8   1.754228 S    
C50   H22   1.085194 S    
C71   C105  1.452479 S    
C93   C94   1.403024 A    
C28   Cl3   1.753335 S    
C26   C27   1.399089 A    
C62   N6    1.424894 S    
C21   C22   1.405570 A    
C48   C72   1.457300 S    
C32   C33   1.397996 A    
C89   H37   1.083745 S    
C79   C80   1.436993 A    
C45   H20   1.080872 S    
C53   C54   1.397591 A    
C63   C64   1.424422 A    
C62   C63   1.438542 A    
C97   C98   1.405084 A    
H31   C82   1.082513 S    
C78   H33   1.078298 S    
C44   C45   1.395282 A    
N3    O29   1.301292 A    
C13   C22   1.483123 S    
C96   C97   1.412192 A    
Cu5   Cu6   2.684378 S    
C41   H18   1.082311 S    
O24   C76   1.307407 A    
C47   C52   1.395452 A    
Cu3   O13   1.969342 S    
C11   C12   1.411268 A    
C26   H10   1.083214 S    
O10   C69   1.310313 A    
C36   C37   1.404506 A    
O1    C1    1.291258 A    
C19   H7    1.082846 S    
C17   C18   1.393817 A    
C43   C52   1.486320 S    
Cu6   O22   1.967598 S    
N7    O37   1.299044 A    
C12   C70   1.459287 S    
C20   C21   1.416884 A    
N8    O39   1.301023 A    
C99   C100  1.395198 A    
C53   C58   1.401538 A    
C56   C57   1.396947 A    
C51   C52   1.411450 A    
O8    C4    1.297264 A    
C25   C34   1.480085 S    
C67   C68   1.403327 A    
C59   H28   1.080076 S    
C57   C58   1.402432 A    
C6    H2    1.081131 S    
C21   Cl2   1.752121 S    
O18   Cu6   1.974119 S    
C29   H12   1.085193 S    
C79   C88   1.497750 S    
C3    C65   1.451833 S    
C63   C68   1.442753 A    
C69   C87   1.469000 S    
N3    O30   1.301598 A    
C109  H48   1.082458 S    
C38   H16   1.080538 S    
Cu5   O23   1.970549 S    
O3    C2    1.286590 A    
C5    C10   1.398542 A    
C2    C15   1.453161 S    
N6    O36   1.297428 A    
C97   C106  1.484660 S    
Cu3   O15   1.968657 S    
C54   C55   1.406943 A    
C91   H38   1.082560 S    
C9    C10   1.397312 A    
C24   H9    1.081483 S    
C109  C110  1.397505 A    
O20   C74   1.292518 A    
C55   C56   1.405752 A    
O10   Cu4   1.969225 S    
C96   Cl7   1.758440 S    
C64   C65   1.413944 A    
C30   C31   1.415304 A    
C80   N7    1.450502 S    
O12   C70   1.287077 A    
O15   C72   1.296591 A    
Cu1   O5    1.968210 S    
N4    O31   1.299479 A    
C32   H13   1.084976 S    
C23   H8    1.082540 S    
C111  C112  1.404387 A    
C19   C20   1.405669 A    
O1    Cu1   1.971377 S    
C29   C34   1.392331 A    
C103  C104  1.392460 A    
Cu2   O6    1.971379 S    
O2    Cu2   1.968209 S    
C25   C26   1.403933 A    
C8    C9    1.396875 A    
C49   C50   1.392259 A    
C27   H11   1.081355 S    
O6    C3    1.289539 A    
C81   C82   1.392408 A    
O4    Cu2   1.966068 S    
C104  C105  1.398088 A    
C31   C32   1.395392 A    
C77   C78   1.392138 A    
C89   C94   1.406436 A    
C41   C46   1.404896 A    
C85   C94   1.480562 S    
C61   Cl4   1.763007 S    
C60   C61   1.381840 A    
O19   Cu5   1.968765 S    
C68   C76   1.471905 S    
C81   H34   1.082397 S    
C20   N1    1.439702 S    
C14   C15   1.391272 A    
O2    C1    1.296413 A    
C35   H14   1.080452 S    
C24   C25   1.403996 A    
C43   C44   1.402883 A    
N8    O40   1.301181 A    
C75   C84   1.444183 S    
C84   C85   1.406553 A    
C17   H6    1.081112 S    
C73   C102  1.458885 S    
C56   H25   1.081648 S    
O4    C2    1.300887 A    
C10   Cl1   1.753759 S    
C77   C82   1.388292 A    
O22   C75   1.295047 A    
C5    H1    1.082626 S    
C23   C24   1.397509 A    
C57   H26   1.083487 S    
C6    C7    1.404072 A    
C101  C102  1.400924 A    
Cu4   O14   1.972508 S    
C39   H17   1.082519 S    
C37   H15   1.082741 S    
C100  Cl6   1.754319 S    
C92   H39   1.078042 S    
C107  C108  1.398310 A    
O20   Cu6   1.970574 S    
N7    O38   1.301999 A    
C77   H32   1.082428 S    
O9    Cu3   1.972414 S    
C102  C103  1.415936 A    
C48   C49   1.410040 A    
Cu4   O16   1.970280 S    
C35   C40   1.407014 A    
C8    H3    1.073994 S    
N5    O34   1.301724 A    
C60   H29   1.083435 S    
C59   C64   1.413013 A    
C13   C14   1.385400 A    
N2    O28   1.301214 A    
C41   C42   1.408777 A    
C85   C86   1.390542 A    
C110  H49   1.082404 S    
C49   C58   1.477439 S    
C61   C62   1.410569 A    
Cu3   Cu4   2.684869 S    
C87   C88   1.435296 A    
C5    C6    1.398073 A    
N4    O32   1.301581 A    
C95   C100  1.396758 A    
O14   C71   1.294736 A    
O11   Cu3   1.970187 S    
C105  C106  1.410811 A    
C23   C28   1.398075 A    
N6    O35   1.301928 A    
O18   C73   1.291329 A    
Cu5   O21   1.974213 S    
