data_mof_unit_8038.cif
_audit_creation_date              2013-03-05T15:53:06-0500
_audit_creation_method            fapswitch 2.2
_symmetry_space_group_name_H-M    P1
_symmetry_Int_Tables_number       1
_space_group_crystal_system       triclinic
_cell_length_a                    9.910425
_cell_length_b                    10.696607
_cell_length_c                    15.364251
_cell_angle_alpha                 93.453975
_cell_angle_beta                  68.342538
_cell_angle_gamma                 90.237612
_cell_volume                      1510.71800996

loop_
_atom_site_label
_atom_site_type_symbol
_atom_site_description
_atom_site_fract_x
_atom_site_fract_y
_atom_site_fract_z
_atom_type_partial_charge
O1    O     O_R   0.385310 0.683220 0.500000 -0.601513
O2    O     O_R   0.614640 0.683250 0.500010 -0.658837
C1    C     C_R   0.501975 0.739296 0.497327 0.838452
O3    O     O_R   0.319840 0.499980 0.632240 -0.641285
O4    O     O_R   0.549160 0.500000 0.632250 -0.633369
C2    C     C_R   0.409578 0.502908 0.676376 0.863556
Zn1   Zn    Zn3+2 0.346880 0.499980 0.499990 1.012266
Zn2   Zn    Zn3+2 0.653120 0.500020 0.500010 0.960905
O5    O     O_R   0.385360 0.316750 0.499990 -0.608875
O6    O     O_R   0.614690 0.316780 0.500000 -0.612999
O7    O     O_R   0.450840 0.500000 0.367750 -0.536752
O8    O     O_R   0.680160 0.500020 0.367760 -0.604711
C3    C     C_R   0.504038 0.260002 0.492335 0.943407
C4    C     C_R   0.589384 0.514020 0.325290 1.006982
C5    C     C_R   0.357809 0.534188 0.777445 -0.072127
C6    C     C_R   0.643587 0.547907 0.226696 -0.170952
C7    C     C_R   0.194375 0.654035 0.914011 -0.158595
C8    C     C_R   0.223048 0.593671 0.825708 -0.146880
C9    C     C_R   0.459400 0.528751 0.820274 -0.245667
C10   C     C_R   0.436945 0.594951 0.905666 0.092525
C11   C     C_R   0.300710 0.655533 0.954231 0.151143
C12   C     C_R   0.545436 0.599217 0.945042 0.070973
C13   C     C_R   0.505873 0.639882 0.040442 0.082529
C14   C     C_R   0.375682 0.710834 0.083936 -0.112063
C15   C     C_R   0.274188 0.718272 0.041348 -0.223319
C16   C     C_R   0.692007 0.565776 0.892378 -0.195239
C17   C     C_R   0.792025 0.559249 0.935692 -0.153193
C18   C     C_R   0.745503 0.572825 0.033203 0.133576
C19   C     C_R   0.598851 0.607179 0.087744 -0.019263
C20   C     C_R   0.842387 0.545589 0.076654 -0.197871
C21   C     C_R   0.792292 0.536140 0.172927 -0.161107
C22   C     C_R   0.547167 0.591845 0.185666 0.246395
H1    H     H_    0.173563 0.770566 0.077624 0.149327
H2    H     H_    0.869447 0.512049 0.204238 0.217428
H3    H     H_    0.903616 0.533466 0.893375 0.137836
H4    H     H_    0.090921 0.702366 0.949622 0.163506
H5    H     H_    0.143240 0.598613 0.793384 0.167326
H6    H     H_    0.557935 0.474272 0.784405 0.163365
H7    H     H_    0.352391 0.763837 0.149965 0.196376
H8    H     H_    0.732784 0.547852 0.817162 0.149009
H9    H     H_    0.955581 0.523885 0.035658 0.158919
H10   H     H_    0.297440 0.897218 0.598107 0.200844
C23   C     C_R   0.745645 0.852671 0.355049 -0.162084
H11   H     H_    0.751304 0.752013 0.353999 0.169160
C24   C     C_R   0.860602 0.908702 0.287998 -0.195317
H12   H     H_    0.951094 0.852020 0.240457 0.164875
C25   C     C_R   0.854353 0.035747 0.277291 -0.165482
H13   H     H_    0.939140 0.075262 0.219057 0.191011
C26   C     C_R   0.733216 0.108770 0.334363 0.312320
C27   C     C_R   0.623684 0.055931 0.411843 -0.020611
C28   C     C_R   0.627254 0.925265 0.419054 0.073761
C29   C     C_R   0.508266 0.870507 0.487726 -0.062709
C30   C     C_R   0.389201 0.940894 0.547416 -0.159649
H14   H     H_    0.299838 0.122027 0.596533 0.172263
C31   C     C_R   0.389976 0.068191 0.545488 -0.188757
C32   C     C_R   0.507375 0.126269 0.481016 -0.096599
H15   H     H_    0.935351 0.356650 0.393137 0.181321
C33   C     C_R   0.790163 0.667849 0.624041 -0.224043
H16   H     H_    0.681693 0.675877 0.626691 0.227047
C34   C     C_R   0.824035 0.747754 0.687374 -0.272362
H17   H     H_    0.740223 0.810679 0.734792 0.205574
C35   C     C_R   0.962928 0.746505 0.690236 0.307557
C36   C     C_R   0.068779 0.664344 0.626886 -0.276600
H18   H     H_    0.174262 0.666056 0.630159 0.223308
C37   C     C_R   0.037301 0.581704 0.562072 0.131375
C38   C     C_R   0.893203 0.582456 0.561385 0.174795
N1    N     N_R   0.856800 0.501200 0.500850 -0.122032
C39   C     C_R   0.961891 0.421201 0.441085 -0.097608
H19   H     H_    0.186119 0.357142 0.392789 0.175894
C40   C     C_R   0.105066 0.421418 0.440966 -0.009020
N2    N     N_R   0.142390 0.501280 0.500880 -0.109833
N3    N     N_R   0.711412 0.226083 0.301359 0.183429
O9    O     O_R   0.590805 0.245261 0.288360 -0.411966
O10   O     O_R   0.824022 0.291394 0.256627 -0.440696
N4    N     N_R   0.395210 0.606519 0.241358 0.190441
O11   O     O_R   0.349489 0.697142 0.306366 -0.406241
O12   O     O_R   0.303547 0.525449 0.230432 -0.387899
N5    N     N_R   0.995805 0.828361 0.757517 0.202805
O13   O     O_R   0.893988 0.896930 0.820608 -0.377458
O14   O     O_R   0.127174 0.834752 0.757022 -0.451998

loop_
_geom_bond_atom_site_label_1
_geom_bond_atom_site_label_2
_geom_bond_distance
_ccdc_geom_bond_type
C5    C8    1.399136 A    
C31   C32   1.392233 A    
C36   C37   1.411143 A    
C9    C10   1.395031 A    
N4    O11   1.302103 A    
C23   C28   1.417955 A    
C22   N4    1.435046 S    
C25   C26   1.403028 A    
C24   H12   1.083066 S    
C6    C21   1.400201 A    
C5    C9    1.394334 A    
C16   C17   1.386856 A    
C13   C19   1.423798 A    
C18   C19   1.420537 A    
C8    H5    1.080953 S    
C19   C22   1.418808 A    
H10   C30   1.081373 S    
Zn1   N2    2.021676 S    
O4    C2    1.296052 A    
O7    C4    1.297007 A    
N5    O14   1.300673 A    
C33   C34   1.388736 A    
C14   H7    1.078349 S    
C34   C35   1.393466 A    
O5    C3    1.288740 A    
C2    C5    1.461943 S    
C33   C38   1.407134 A    
C26   N3    1.427682 S    
C13   C14   1.413474 A    
C20   H9    1.082627 S    
C40   N2    1.366721 A    
C7    H4    1.083544 S    
C3    C32   1.429625 S    
C24   C25   1.383040 A    
C38   N1    1.377788 A    
O3    Zn1   1.949004 S    
C27   C28   1.410316 A    
C30   C31   1.363684 A    
N1    C39   1.366365 A    
C14   C15   1.392460 A    
N3    O10   1.300440 A    
N5    O13   1.301645 A    
C17   H3    1.082597 S    
C33   H16   1.064263 S    
C37   N2    1.376912 A    
C7    C11   1.404283 A    
C28   C29   1.413237 A    
C34   H17   1.082875 S    
O1    C1    1.288579 A    
Zn1   O7    1.909065 S    
C23   H11   1.077226 S    
C35   C36   1.403963 A    
C9    H6    1.079665 S    
N4    O12   1.301497 A    
C25   H13   1.083031 S    
Zn2   O8    1.949001 S    
C7    C8    1.396333 A    
C21   H2    1.081940 S    
C23   C24   1.385954 A    
O3    C2    1.301577 A    
C10   C12   1.414393 A    
C26   C27   1.427255 A    
C4    C6    1.475997 S    
H15   C39   1.081139 S    
C29   C30   1.387692 A    
Zn1   O5    1.998246 S    
C11   C15   1.394475 A    
H14   C31   1.085088 S    
O1    Zn1   1.995158 S    
C35   N5    1.441721 S    
Zn2   O6    1.995156 S    
O2    Zn2   1.998247 S    
O8    C4    1.305261 A    
N3    O9    1.301463 A    
O6    C3    1.290903 A    
O4    Zn2   1.909065 S    
C1    C29   1.418777 S    
C6    C22   1.419664 A    
C18   C20   1.396901 A    
O2    C1    1.284644 A    
C16   H8    1.079249 S    
C20   C21   1.385712 A    
H19   C40   1.081773 S    
C27   C32   1.425083 A    
C36   H18   1.064996 S    
C10   C11   1.415972 A    
Zn2   N1    2.023336 S    
C39   C40   1.418244 A    
C37   C38   1.432059 A    
C12   C16   1.412285 A    
C17   C18   1.393808 A    
C12   C13   1.411303 A    
C15   H1    1.083895 S    
