data_mof_unit_15596.cif
_audit_creation_date              2012-12-10T19:09:38-0500
_audit_creation_method            fapswitch 2.2
_symmetry_space_group_name_H-M    P1
_symmetry_Int_Tables_number       1
_space_group_crystal_system       triclinic
_cell_length_a                    9.551564
_cell_length_b                    10.859971
_cell_length_c                    17.055734
_cell_angle_alpha                 89.416048
_cell_angle_beta                  94.323915
_cell_angle_gamma                 90.599384
_cell_volume                      1763.97579051

loop_
_atom_site_label
_atom_site_type_symbol
_atom_type_description
_atom_site_fract_x
_atom_site_fract_y
_atom_site_fract_z
_atom_type_partial_charge
C1    C     C_R   0.499662 0.262524 0.502421 0.841071
C2    C     C_R   0.500762 0.129567 0.511233 -0.123478
C3    C     C_R   0.390038 0.063520 0.543484 0.110163
C4    C     C_R   0.517801 0.497395 0.651067 0.826428
C5    C     C_R   0.391184 0.933123 0.543698 0.102016
C6    C     C_R   0.503003 0.870817 0.511394 -0.107962
C7    C     C_R   0.620563 0.939126 0.492147 -0.031107
C8    C     C_3   0.707759 0.937052 0.422067 0.311016
C9    C     C_3   0.702178 0.077808 0.421049 0.006334
C10   C     C_R   0.067388 0.572045 0.447866 0.274094
C11   C     C_R   0.081633 0.435172 0.554698 -0.126218
C12   C     C_R   0.658829 0.494929 0.780377 -0.259492
C13   C     C_R   0.932602 0.434461 0.554818 0.235282
C14   C     C_R   0.920173 0.570563 0.447325 0.167254
C15   C     C_3   0.902749 0.561309 0.360020 -0.490038
C16   C     C_R   0.500790 0.737653 0.502420 0.845914
C17   C     C_3   0.061211 0.564439 0.360397 -0.466791
C18   C     C_R   0.482343 0.503437 0.349369 0.851982
C19   C     C_R   0.527805 0.491042 0.737382 -0.079207
C20   C     C_R   0.405369 0.477321 0.777158 -0.292520
C21   C     C_R   0.412628 0.468274 0.858981 0.124304
C22   C     C_R   0.544551 0.474937 0.902216 0.375698
C23   C     C_R   0.538283 0.422182 0.140660 -0.191709
C24   C     C_R   0.668057 0.485427 0.862646 0.103373
C25   C     C_R   0.537470 0.413862 0.222513 0.069812
C26   C     C_R   0.475794 0.522937 0.099327 0.330338
C27   C     C_R   0.473361 0.507118 0.263511 -0.035781
C28   C     C_R   0.410056 0.607491 0.222401 0.064542
C29   C     C_R   0.410852 0.613906 0.140506 -0.240259
C30   C     C_R   0.618739 0.065875 0.491879 -0.062311
Cu1   Cu    Cu3+1 0.640670 0.499980 0.500000 0.952868
Cu2   Cu    Cu3+1 0.359330 0.500020 0.500000 0.971547
H1    H     H_    0.856450 0.471679 0.339809 0.236599
H2    H     H_    0.694481 0.901217 0.304232 0.227107
H3    H     H_    0.826959 0.232588 0.425199 0.247890
H4    H     H_    0.873094 0.130253 0.496676 0.215097
H5    H     H_    0.640969 0.116982 0.368911 0.143859
H6    H     H_    0.143380 0.380625 0.597740 0.152524
H7    H     H_    0.897594 0.269488 0.605254 0.183241
H8    H     H_    0.905487 0.389261 0.667378 0.179444
H9    H     H_    0.852168 0.644023 0.331927 0.200228
H10   H     H_    0.104997 0.477478 0.339168 0.220806
H11   H     H_    0.586120 0.349263 0.109428 0.155938
H12   H     H_    0.753925 0.505186 0.750111 0.162103
H13   H     H_    0.101300 0.650117 0.333801 0.208998
H14   H     H_    0.882788 0.503009 0.869432 0.206883
H15   H     H_    0.818451 0.402597 0.933088 0.220133
H16   H     H_    0.247449 0.718166 0.239627 0.219169
H17   H     H_    0.406282 0.786171 0.252733 0.232727
H18   H     H_    0.218649 0.521499 0.883178 0.218639
H19   H     H_    0.238357 0.367613 0.876291 0.208751
H20   H     H_    0.362383 0.691303 0.108799 0.153157
H21   H     H_    0.303345 0.471790 0.744904 0.164429
H22   H     H_    0.182543 0.103083 0.543337 0.219118
H23   H     H_    0.516945 0.258391 0.285426 0.198202
H24   H     H_    0.271391 0.103836 0.633614 0.202892
H25   H     H_    0.649467 0.253163 0.226454 0.219578
H26   H     H_    0.273695 0.887801 0.634335 0.207604
H27   H     H_    0.184346 0.887663 0.544182 0.219480
H28   H     H_    0.837565 0.791696 0.445496 0.221847
H29   H     H_    0.890162 0.916332 0.494873 0.207393
H30   H     H_    0.631123 0.787336 0.358835 0.223052
N1    N     N_2   0.555988 0.466332 0.985267 -0.235418
N2    N     N_3   0.866646 0.360629 0.611516 -0.524323
N3    N     N_3   0.802144 0.489232 0.906892 -0.568379
N4    N     N_3   0.350133 0.705541 0.263859 -0.596465
N5    N     N_3   0.286472 0.448537 0.898022 -0.563741
N6    N     N_3   0.276628 0.128489 0.574523 -0.584581
N7    N     N_2   0.471549 0.533934 0.016284 -0.201470
N8    N     N_R   0.147870 0.500930 0.499500 -0.193251
N9    N     N_R   0.851960 0.500890 0.499500 -0.182666
N10   N     N_3   0.599367 0.310150 0.264458 -0.597785
N11   N     N_3   0.278906 0.864355 0.575368 -0.568582
N12   N     N_3   0.848687 0.886510 0.439709 -0.562351
N13   N     N_3   0.634466 0.883017 0.351908 -0.617758
N14   N     N_3   0.839189 0.138564 0.437131 -0.557178
O1    O     O_R   0.618810 0.319640 0.500000 -0.570295
O2    O     O_R   0.381230 0.319680 0.499990 -0.554096
O3    O     O_R   0.631790 0.498830 0.613930 -0.558797
O4    O     O_R   0.394210 0.498870 0.613920 -0.589519
O5    O     O_R   0.618770 0.680320 0.500010 -0.609220
O6    O     O_R   0.381190 0.680360 0.500000 -0.538953
O7    O     O_R   0.605790 0.501130 0.386080 -0.580190
O8    O     O_R   0.368210 0.501170 0.386070 -0.579036

loop_
_geom_bond_atom_site_label_1
_geom_bond_atom_site_label_2
_ccdc_geom_bond_type
C1    O1    A    
C14   N9    A    
C3    N6    S    
C11   N8    A    
Cu1   O7    S    
C7    C8    S    
H7    N2    S    
C28   C29   A    
C17   H13   S    
C4    O4    A    
C5    C6    A    
H22   N6    S    
C10   C17   S    
C23   H11   S    
C1    C2    S    
C23   C26   A    
C17   H10   S    
H4    N14   S    
C22   N1    S    
C4    C19   S    
C19   C20   A    
C8    C9    S    
C18   O8    A    
C9    N14   S    
H18   N5    S    
H27   N11   S    
H23   N10   S    
H2    N13   S    
Cu1   N9    S    
C7    C30   A    
C21   C22   A    
C21   N5    S    
C1    O2    A    
C16   O6    A    
Cu1   O1    S    
Cu2   O8    S    
H3    N14   S    
H17   N4    S    
N1    N7    D    
C15   H9    S    
H14   N3    S    
C10   C14   A    
Cu2   N8    S    
C13   N9    A    
H24   N6    S    
Cu2   O2    S    
C8    N13   S    
C11   H6    S    
C28   N4    S    
Cu2   O4    S    
Cu1   Cu2   S    
C8    N12   S    
C18   O7    A    
C25   N10   S    
H19   N5    S    
C24   N3    S    
C4    O3    A    
C9    C30   S    
C22   C24   A    
H30   N13   S    
C10   N8    A    
C9    H5    S    
C15   C17   S    
C18   C27   S    
C20   H21   S    
C3    C5    A    
H8    N2    S    
Cu1   O3    S    
C6    C7    A    
H29   N12   S    
C25   C27   A    
Cu2   O6    S    
C12   C24   A    
Cu1   O5    S    
C2    C30   A    
C2    C3    A    
C12   H12   S    
C11   C13   A    
C13   N2    S    
C12   C19   A    
H28   N12   S    
C16   O5    A    
H15   N3    S    
C23   C25   A    
H25   N10   S    
C5    N11   S    
C6    C16   S    
C20   C21   A    
C26   C29   A    
C27   C28   A    
C26   N7    S    
C14   C15   S    
H16   N4    S    
C15   H1    S    
H26   N11   S    
C29   H20   S    
