data_mof_unit_5609.cif
_audit_creation_date              2012-12-10T19:43:25-0500
_audit_creation_method            fapswitch 2.2
_symmetry_space_group_name_H-M    P1
_symmetry_Int_Tables_number       1
_space_group_crystal_system       triclinic
_cell_length_a                    10.886949
_cell_length_b                    10.801179
_cell_length_c                    9.643389
_cell_angle_alpha                 89.609007
_cell_angle_beta                  90.802391
_cell_angle_gamma                 92.175859
_cell_volume                      1133.03310318

loop_
_atom_site_label
_atom_site_type_symbol
_atom_type_description
_atom_site_fract_x
_atom_site_fract_y
_atom_site_fract_z
_atom_type_partial_charge
C1    C     C_R   0.496472 0.262804 0.500530 0.774423
C2    C     C_R   0.189719 0.539945 0.965257 -0.235754
C3    C     C_R   0.932292 0.538361 0.385591 -0.252696
C4    C     C_R   0.870460 0.498109 0.504187 -0.081829
C5    C     C_R   0.937094 0.455180 0.620333 0.018790
C6    C     C_R   0.064635 0.459273 0.615936 -0.211143
C7    C     C_R   0.127134 0.496858 0.496358 -0.060308
C8    C     C_R   0.058882 0.532866 0.378224 0.016889
C9    C     C_R   0.881868 0.457739 0.871072 -0.110951
C10   C     C_R   0.822360 0.404534 0.985544 -0.215697
C11   C     C_R   0.756775 0.291399 0.972642 -0.100324
C12   C     C_R   0.262033 0.495941 0.498621 0.799012
C13   C     C_R   0.750672 0.229836 0.845302 0.473954
C14   C     C_R   0.811900 0.283020 0.730293 -0.210427
C15   C     C_R   0.877062 0.397324 0.742856 0.096019
C16   C     C_R   0.307714 0.124401 0.656462 -0.186449
C17   C     C_R   0.218754 0.058153 0.731303 -0.228426
C18   C     C_R   0.209480 0.930224 0.722066 -0.138122
C19   C     C_R   0.288510 0.867160 0.637267 0.398693
C20   C     C_R   0.389387 0.931424 0.572029 -0.003297
C21   C     C_R   0.395865 0.062706 0.578441 0.075608
C22   C     C_R   0.487150 0.128805 0.501640 -0.075784
C23   C     C_R   0.494323 0.737097 0.499466 0.801413
C24   C     C_R   0.570275 0.066822 0.421135 -0.209233
C25   C     C_R   0.568569 0.939146 0.420372 -0.202418
C26   C     C_R   0.481712 0.870747 0.497250 -0.098471
C27   C     C_R   0.654400 0.672119 0.144240 -0.168691
C28   C     C_R   0.729530 0.756560 0.072793 -0.207219
C29   C     C_R   0.729898 0.756138 0.929905 -0.178369
C30   C     C_R   0.655069 0.671304 0.857594 -0.132029
C31   C     C_R   0.573506 0.586597 0.925741 0.219888
C32   C     C_R   0.573506 0.586598 0.075068 0.210459
C33   C     C_R   0.439174 0.410904 0.073443 -0.030727
C34   C     C_R   0.737064 0.498867 0.501309 0.771443
C35   C     C_R   0.440928 0.409954 0.925928 -0.062526
C36   C     C_R   0.190491 0.650393 0.040321 -0.165891
C37   C     C_R   0.149921 0.649799 0.177156 -0.136521
C38   C     C_R   0.109756 0.537968 0.238645 0.048908
C39   C     C_R   0.108815 0.427840 0.163476 -0.124114
C40   C     C_R   0.148808 0.427316 0.027465 0.422003
Cu1   Cu    Cu3+1 0.499990 0.499990 0.640660 0.949955
Cu2   Cu    Cu3+1 0.500010 0.500010 0.359340 0.934048
H1    H     H_    0.222625 0.542708 0.860298 0.183617
H2    H     H_    0.709954 0.251750 0.061778 0.146422
H3    H     H_    0.807584 0.236709 0.630902 0.098211
H4    H     H_    0.639535 0.117802 0.361755 0.148775
H5    H     H_    0.304419 0.224045 0.659347 0.142827
H6    H     H_    0.134600 0.880273 0.773259 0.149773
H7    H     H_    0.637681 0.893284 0.361747 0.139913
H8    H     H_    0.388084 0.338221 0.127758 0.159646
H9    H     H_    0.222352 0.736361 0.992244 0.163603
H10   H     H_    0.667260 0.674986 0.253367 0.194160
H11   H     H_    0.790499 0.820536 0.129094 0.150355
H12   H     H_    0.791312 0.819627 0.874483 0.158439
H13   H     H_    0.669152 0.672552 0.748946 0.192077
H14   H     H_    0.394278 0.335044 0.870889 0.145061
H15   H     H_    0.149280 0.735577 0.234596 0.129143
H16   H     H_    0.076212 0.341675 0.210997 0.144281
H17   H     H_    0.115001 0.425297 0.703194 0.138161
H18   H     H_    0.825953 0.451700 0.084136 0.154217
N1    N     N_R   0.501190 0.501210 0.147910 -0.205724
N2    N     N_R   0.501230 0.501290 0.852040 -0.205670
O1    O     O_R   0.499990 0.319640 0.618810 -0.581505
O2    O     O_R   0.500000 0.319660 0.381240 -0.583107
O3    O     O_R   0.319640 0.500000 0.618780 -0.568104
O4    O     O_R   0.319650 0.500020 0.381210 -0.575176
O5    O     O_R   0.500000 0.680340 0.618760 -0.562741
O6    O     O_R   0.500010 0.680360 0.381190 -0.599652
O7    O     O_R   0.680350 0.499980 0.618790 -0.593104
O8    O     O_R   0.680360 0.500000 0.381220 -0.609302
O9    O     O_3   0.684045 0.118926 0.836320 -0.738131
H19   H     H_    0.688086 0.087930 0.739959 0.318190
H20   H     H_    0.152738 0.106526 0.791473 0.189319
O10   O     O_3   0.255109 0.746799 0.607918 -0.730796
H21   H     H_    0.258635 0.739739 0.505627 0.294122
O11   O     O_3   0.147358 0.315205 0.960237 -0.763371
H22   H     H_    0.190494 0.326012 0.871591 0.294383
H23   H     H_    0.881427 0.567895 0.294514 0.152668
H24   H     H_    0.930221 0.546701 0.881807 0.144927

loop_
_geom_bond_atom_site_label_1
_geom_bond_atom_site_label_2
_ccdc_geom_bond_type
Cu2   O6    S    
C16   C21   A    
Cu1   Cu2   S    
C19   C20   A    
C7    C8    A    
Cu1   O5    S    
C37   C38   A    
C36   C37   A    
C32   N1    A    
C5    C6    A    
C29   H12   S    
Cu2   O8    S    
C18   C19   A    
C9    H24   S    
C23   C26   S    
C23   O5    A    
C33   H8    S    
C16   C17   A    
C9    C10   A    
C34   O8    A    
C27   C32   A    
C1    C22   S    
C21   C22   A    
C17   H20   S    
C31   N2    A    
C8    C38   S    
Cu1   N2    S    
C1    O1    A    
C16   H5    S    
C14   H3    S    
C7    C12   S    
C4    C34   S    
O10   H21   S    
C24   C25   A    
C3    C8    A    
C39   C40   A    
Cu1   O3    S    
C13   O9    S    
C25   C26   A    
C39   H16   S    
C12   O4    A    
C40   O11   S    
C23   O6    A    
C10   H18   S    
C29   C30   A    
C31   C32   A    
Cu2   N1    S    
C2    H1    S    
C17   C18   A    
C11   H2    S    
O11   H22   S    
C34   O7    A    
C36   H9    S    
C22   C24   A    
Cu1   O1    S    
C3    C4    A    
C1    O2    A    
Cu2   O2    S    
C27   H10   S    
Cu1   O7    S    
C12   O3    A    
C2    C36   A    
C28   C29   A    
C35   H14   S    
C6    H17   S    
C19   O10   S    
C4    C5    A    
C18   H6    S    
C28   H11   S    
C6    C7    A    
C30   H13   S    
C24   H4    S    
C9    C15   A    
O9    H19   S    
C11   C13   A    
C30   C31   A    
C38   C39   A    
C20   C26   A    
C33   C35   A    
C35   N2    A    
C25   H7    S    
C5    C15   S    
C10   C11   A    
C2    C40   A    
C20   C21   A    
C33   N1    A    
C27   C28   A    
Cu2   O4    S    
C14   C15   A    
C13   C14   A    
C3    H23   S    
C37   H15   S    
