data_mof_unit_67109.cif
_audit_creation_date              2013-03-05T15:58:39-0500
_audit_creation_method            fapswitch 2.2
_symmetry_space_group_name_H-M    P1
_symmetry_Int_Tables_number       1
_space_group_crystal_system       triclinic
_cell_length_a                    8.448619
_cell_length_b                    13.387483
_cell_length_c                    15.040635
_cell_angle_alpha                 97.319511
_cell_angle_beta                  97.463
_cell_angle_gamma                 99.533888
_cell_volume                      1644.07007285

loop_
_atom_site_label
_atom_site_type_symbol
_atom_site_description
_atom_site_fract_x
_atom_site_fract_y
_atom_site_fract_z
_atom_type_partial_charge
P1    P     P_3+3 0.998770 0.403620 0.291990 0.514078
O1    O     O_2   0.827930 0.435360 0.277760 -0.322029
O2    O     O_3   0.100310 0.439010 0.391180 -0.405165
O3    O     O_3   0.625610 0.634200 0.333270 -0.333456
O4    O     O_2   0.667210 0.531735 0.177278 -0.234189
O5    O     O_3   0.915611 0.274716 0.270659 -0.575318
O6    O     O_3   0.644323 0.722450 0.177944 -0.500361
C1    C     C_3   0.483789 0.837121 0.119441 -0.716589
H1    H     H_    0.557793 0.828704 0.064602 0.286966
H2    H     H_    0.362196 0.791828 0.091843 0.192962
P2    P     P_3+3 0.687370 0.751000 0.571300 0.524601
P3    P     P_3+3 0.120509 0.821903 0.378673 0.652596
O7    O     O_2   0.857120 0.766320 0.543890 -0.242116
O8    O     O_3   0.056570 0.691100 0.379020 -0.314821
O9    O     O_2   0.030938 0.872811 0.450224 -0.224994
O10   O     O_3   0.738817 0.777743 0.689459 -0.506699
O11   O     O_3   0.017436 0.853300 0.280136 -0.471243
C2    C     C_3   0.094868 0.834793 0.203753 0.544936
H3    H     H_    0.227555 0.845092 0.222926 -0.079769
C3    C     C_3   0.056617 0.914358 0.141766 0.308074
H4    H     H_    0.074935 0.986678 0.188665 0.116002
C4    C     C_3   0.344959 0.772918 0.686324 0.680051
H5    H     H_    0.415478 0.718875 0.655525 0.011508
C5    C     C_3   0.464829 0.856908 0.748565 -0.642596
H6    H     H_    0.533587 0.824148 0.802024 0.223367
H7    H     H_    0.548683 0.897724 0.708714 0.250788
H8    H     H_    0.397991 0.910909 0.781224 0.314069
Ba1   Ba    Ba6+2 0.843760 0.550230 0.455610 1.756355
C6    C     C_3   0.029393 0.214416 0.286903 0.911983
H9    H     H_    0.127480 0.250660 0.342926 0.072722
C7    C     C_3   0.096659 0.187791 0.199732 -0.785871
H10   H     H_    0.999512 0.143673 0.145550 0.308029
H11   H     H_    0.193980 0.143869 0.212592 0.261428
H12   H     H_    0.150155 0.258663 0.175532 0.207586
C8    C     C_3   0.776307 0.691115 0.724540 0.310837
H13   H     H_    0.865008 0.657023 0.687798 0.109236
H14   H     H_    0.664040 0.633284 0.720021 0.089269
C9    C     C_3   0.849862 0.724045 0.824006 -0.681417
H15   H     H_    0.980197 0.758338 0.829942 0.297254
H16   H     H_    0.838756 0.657878 0.861107 0.175277
H17   H     H_    0.785889 0.781158 0.856754 0.297448
P4    P     P_3+3 0.190950 0.596470 0.708020 0.486571
O12   O     O_2   0.361790 0.564680 0.722290 -0.409165
O13   O     O_3   0.089410 0.561080 0.608830 -0.374953
O14   O     O_3   0.564100 0.365890 0.666740 -0.328632
O15   O     O_3   0.233617 0.729155 0.737341 -0.581599
P5    P     P_3+3 0.090319 0.175526 0.619673 0.666116
O16   O     O_3   0.601940 0.368260 0.453780 -0.369227
O17   O     O_3   0.133140 0.308990 0.620990 -0.333794
O18   O     O_2   0.196734 0.131949 0.554318 -0.264311
O19   O     O_3   0.185131 0.145656 0.723090 -0.449880
Ba2   Ba    Ba6+2 0.346080 0.449860 0.544400 1.733128
P6    P     P_3+3 0.567439 0.609398 0.215314 0.602364
C10   C     C_3   0.551051 0.796053 0.203499 0.967686
H18   H     H_    0.446883 0.768656 0.238114 -0.166012
H19   H     H_    0.475288 0.918559 0.135666 0.328219
O20   O     O_3   0.587770 0.631830 0.546230 -0.435175
C11   C     C_3   0.537067 0.276425 0.268999 0.594850
H20   H     H_    0.663658 0.294156 0.300545 0.137041
C12   C     C_3   0.525280 0.239397 0.168107 0.166099
H21   H     H_    0.396637 0.217217 0.136851 0.161882
H22   H     H_    0.583989 0.301853 0.134786 0.180066
P7    P     P_3+3 0.508397 0.233677 0.428861 0.562085
O21   O     O_2   0.332600 0.233710 0.456170 -0.313880
O22   O     O_3   0.455531 0.201858 0.310977 -0.535351
C13   C     C_3   0.103224 0.168448 0.796565 0.551886
H23   H     H_    0.978121 0.128741 0.777166 0.059092
C14   C     C_3   0.165511 0.126551 0.883749 0.464025
H24   H     H_    0.065059 0.117970 0.924807 0.073500
P8    P     P_3+3 0.607799 0.393620 0.784802 0.634196
C15   C     C_3   0.622291 0.196978 0.799154 1.010603
O23   O     O_2   0.497387 0.465546 0.819037 -0.310500
O24   O     O_3   0.539773 0.278301 0.824474 -0.465734
C16   C     C_3   0.696198 0.160464 0.886703 -0.148358
H25   H     H_    0.627339 0.179627 0.942348 0.239012
H26   H     H_    0.819794 0.202828 0.910024 0.165254
C17   C     C_R   0.347020 0.564611 0.170494 0.090624
H27   H     H_    0.291763 0.553951 0.304396 0.180954
H28   H     H_    0.496996 0.632355 0.034333 0.197098
C18   C     C_R   0.098580 0.467774 0.203460 0.211884
C19   C     C_R   0.923743 0.480341 0.766697 -0.422227
C20   C     C_R   0.820668 0.452875 0.828789 0.094074
C21   C     C_R   0.876582 0.476130 0.922689 0.235234
C22   C     C_R   0.045787 0.506442 0.954021 0.094604
C23   C     C_R   0.145647 0.545505 0.890877 -0.000253
C24   C     C_R   0.117823 0.501930 0.046275 0.079587
C25   C     C_R   0.281486 0.552697 0.076879 -0.010379
C26   C     C_R   0.372832 0.594551 0.014337 -0.096794
C27   C     C_R   0.306308 0.592708 0.924462 0.001315
C28   C     C_R   0.038057 0.446437 0.109134 0.357163
C29   C     C_R   0.245099 0.536076 0.232560 -0.362506
C30   C     C_R   0.081584 0.535174 0.795963 0.241786
H29   H     H_    0.875509 0.466434 0.695075 0.165282
H30   H     H_    0.383701 0.629772 0.882017 0.151461
C31   C     C_R   0.780107 0.172751 0.521051 -0.336220
C32   C     C_R   0.437786 0.810477 0.462470 -0.411716
C33   C     C_R   0.411262 0.974406 0.419233 0.332631
C34   C     C_R   0.343510 0.872047 0.420211 0.086732
C35   C     C_R   0.590642 0.850574 0.514530 0.237365
C36   C     C_R   0.655945 0.960536 0.521352 -0.120369
C37   C     C_R   0.561153 0.023692 0.472748 -0.105650
C38   C     C_R   0.620477 0.133606 0.478540 0.250552
C39   C     C_R   0.876420 0.113386 0.566028 0.170068
C40   C     C_R   0.811893 0.010610 0.570903 0.420158
H31   H     H_    0.830145 0.252591 0.520886 0.143603
H32   H     H_    0.386600 0.730155 0.458837 0.158361
Cl1   Cl    Cl    0.676773 0.893963 0.284043 -0.484807
Cl2   Cl    Cl    0.915181 0.105625 0.319102 -0.497321
Cl3   Cl    Cl    0.445206 0.384758 0.280822 -0.708236
Cl4   Cl    Cl    0.620545 0.132273 0.147694 -0.377339
N1    N     N_R   0.166029 0.929169 0.074864 0.218830
O25   O     O_R   0.259559 0.017869 0.080546 -0.336442
O26   O     O_R   0.146327 0.864792 0.000097 -0.296051
N2    N     N_R   0.112385 0.278477 0.819382 0.224602
O27   O     O_R   0.222955 0.342075 0.792911 -0.267127
O28   O     O_R   0.046240 0.311008 0.887570 -0.471656
Cl5   Cl    Cl    0.326678 0.215952 0.956116 -0.529016
N3    N     N_R   0.210374 0.026333 0.865122 0.268213
O29   O     O_R   0.342289 0.008680 0.909944 -0.261931
O30   O     O_R   0.100557 0.948587 0.824859 -0.292260
Cl6   Cl    Cl    0.768648 0.224131 0.727261 -0.765552
Cl7   Cl    Cl    0.482743 0.096516 0.729232 -0.521066
N4    N     N_R   0.701167 0.050950 0.877599 0.264080
O31   O     O_R   0.656633 0.999237 0.940471 -0.239104
O32   O     O_R   0.777407 0.009183 0.817664 -0.369554
N5    N     N_R   0.035909 0.730538 0.157148 0.226806
O33   O     O_R   0.073356 0.703472 0.077884 -0.429849
O34   O     O_R   0.956502 0.662078 0.196724 -0.303650
Cl8   Cl    Cl    0.892354 0.334220 0.071249 -0.610240
N6    N     N_R   0.762933 0.494007 0.983360 0.244477
O35   O     O_R   0.636537 0.424898 0.986231 -0.299322
O36   O     O_R   0.769382 0.587041 0.022471 -0.321063
N7    N     N_R   0.339025 0.021406 0.350480 0.221469
O37   O     O_R   0.202587 0.049649 0.359111 -0.363264
O38   O     O_R   0.385643 0.011028 0.271424 -0.398552
Cl9   Cl    Cl    0.931496 0.954942 0.646592 -0.433591
N8    N     N_R   0.888329 0.893749 0.097135 0.262667
O39   O     O_R   0.833380 0.814299 0.034991 -0.321832
O40   O     O_R   0.803118 0.965494 0.106850 -0.282567
N9    N     N_R   0.254924 0.811845 0.614344 0.209814
O41   O     O_R   0.152428 0.745650 0.555212 -0.347973
O42   O     O_R   0.263397 0.909407 0.612106 -0.323901

loop_
_geom_bond_atom_site_label_1
_geom_bond_atom_site_label_2
_geom_bond_distance
_ccdc_geom_bond_type
O7    Ba1   3.003129 S    
C13   C14   1.554654 S    
C25   C26   1.405006 A    
P7    O22   1.750274 S    
C37   C38   1.461403 A    
O3    P6    1.751764 S    
C11   Cl3   1.755086 S    
Ba1   Ba2   4.616588 S    
C15   Cl7   1.759861 S    
P6    C17   1.866247 S    
N1    O25   1.299064 A    
C5    H8    1.095271 S    
C33   N7    1.402414 S    
C1    H19   1.102745 S    
C33   C34   1.397551 A    
N4    O31   1.299246 A    
P5    O17   1.760327 S    
Ba1   O20   2.982895 S    
N8    O40   1.297224 A    
N5    O33   1.295589 A    
C16   H26   1.092272 S    
C10   Cl1   1.764596 S    
P2    C35   1.908817 S    
O2    Ba1   3.016816 S    
C8    H14   1.109168 S    
C22   C24   1.453802 A    
P1    O1    1.567083 D    
O10   C8    1.399252 S    
C9    H15   1.108071 S    
O12   Ba2   2.886413 S    
N4    O32   1.296862 A    
C11   C12   1.520246 S    
C32   C35   1.403434 A    
C4    N9    1.443419 S    
C36   C40   1.437282 A    
C2    C3    1.548250 S    
C12   H22   1.109167 S    
C2    H3    1.101613 S    
P4    O15   1.739747 S    
C27   H30   1.078426 S    
N3    O29   1.298120 A    
C31   H31   1.082792 S    
C14   N3    1.456873 S    
C28   Cl8   1.756131 S    
C17   C29   1.396266 A    
C21   C22   1.419312 A    
C14   H24   1.112088 S    
C32   C34   1.391872 A    
P3    O11   1.753912 S    
P1    Ba1   3.475871 S    
C7    H11   1.098661 S    
C6    Cl2   1.767025 S    
C40   Cl9   1.743349 S    
P3    C34   1.886534 S    
C31   C38   1.399574 A    
O13   Ba2   3.017666 S    
C16   N4    1.463128 S    
C19   C30   1.397091 A    
P4    O13   1.593398 S    
P7    C38   1.934235 S    
H28   C26   1.072573 S    
O3    Ba1   2.894629 S    
C23   C30   1.440209 A    
C31   C39   1.399862 A    
N2    O27   1.294455 A    
P5    O18   1.540159 D    
N9    O41   1.292711 A    
P5    C39   1.887081 S    
C16   H25   1.107215 S    
P1    O5    1.724327 S    
C8    C9    1.522618 S    
C5    H6    1.108701 S    
C21   N6    1.435280 S    
Ba2   O21   3.003437 S    
C1    C10   1.522372 S    
C15   O24   1.425179 S    
C23   C27   1.397621 A    
C24   C25   1.424559 A    
C1    H1    1.103424 S    
O16   P7    1.813989 S    
P5    O19   1.778179 S    
O14   Ba2   2.893951 S    
C11   H20   1.086604 S    
Ba1   O13   2.865595 S    
C19   C20   1.399439 A    
C12   H21   1.102375 S    
P1    O2    1.593397 S    
O19   C13   1.405676 S    
C3    N8    1.457118 S    
N6    O36   1.297217 A    
C6    H9    1.101557 S    
C14   Cl5   1.792891 S    
C3    N1    1.462218 S    
C19   H29   1.082085 S    
P2    O10   1.749612 S    
C11   O22   1.384014 S    
C35   C36   1.469623 A    
P3    O9    1.546230 D    
O17   Ba2   2.843975 S    
C3    H4    1.098584 S    
P8    O24   1.760580 S    
O11   C2    1.409115 S    
C7    H12   1.107096 S    
N1    O26   1.300773 A    
C22   C23   1.440764 A    
C9    H17   1.108800 S    
C4    O15   1.391553 S    
P3    O8    1.745843 S    
C24   C28   1.441724 A    
N7    O37   1.288141 A    
C4    C5    1.508173 S    
P4    O12   1.567409 D    
O6    P6    1.736209 S    
O4    P6    1.543643 D    
C32   H32   1.082186 S    
C10   H18   1.113942 S    
Ba1   O16   2.903285 S    
N5    O34   1.297481 A    
C13   N2    1.456036 S    
O14   P8    1.744604 S    
P8    O23   1.535734 D    
C15   Cl6   1.768891 S    
C7    H10   1.108888 S    
C5    H7    1.106922 S    
C15   C16   1.553809 S    
N2    O28   1.292095 A    
O2    Ba2   2.866216 S    
N9    O42   1.301162 A    
H27   C29   1.082732 S    
N8    O39   1.300335 A    
C18   C29   1.393680 A    
N6    O35   1.301178 A    
C6    C7    1.520069 S    
C2    N5    1.455060 S    
C9    H16   1.103106 S    
P2    O7    1.531836 D    
P2    Ba1   3.546804 S    
C36   C37   1.456144 A    
C13   H23   1.085863 S    
P4    C30   1.902521 S    
C18   C28   1.419770 A    
P8    C20   1.840107 S    
N3    O30   1.297847 A    
C12   Cl4   1.770059 S    
Ba2   O20   2.902665 S    
P7    O21   1.591636 D    
O16   Ba2   2.981967 S    
O5    C6    1.371786 S    
C26   C27   1.390441 A    
C17   C25   1.423220 A    
C1    H2    1.101839 S    
C20   C21   1.407361 A    
C39   C40   1.408307 A    
N7    O38   1.298447 A    
P1    C18   1.888098 S    
C4    H5    1.105475 S    
O1    Ba1   2.886009 S    
C8    H13   1.109919 S    
O6    C10   1.406787 S    
O8    Ba1   2.843344 S    
P2    O20   1.647758 S    
C33   C37   1.417753 A    
P4    Ba2   3.476439 S    
