data_mof_unit_10450.cif
_audit_creation_date              2012-12-11T15:53:52-0500
_audit_creation_method            fapswitch 2.2
_symmetry_space_group_name_H-M    P1
_symmetry_Int_Tables_number       1
_space_group_crystal_system       triclinic
_cell_length_a                    10.693221
_cell_length_b                    10.689546
_cell_length_c                    16.936879
_cell_angle_alpha                 80.71374
_cell_angle_beta                  99.655959
_cell_angle_gamma                 119.008011
_cell_volume                      1661.92305539

loop_
_atom_site_label
_atom_site_type_symbol
_atom_type_description
_atom_site_fract_x
_atom_site_fract_y
_atom_site_fract_z
_atom_type_partial_charge
C1    C     C_R   0.385160 0.285134 0.632020 0.537570
C2    C     C_R   0.516627 0.715000 0.739199 0.203183
C3    C     C_R   0.495728 0.714608 0.819573 -0.001350
C4    C     C_3   0.094001 0.492325 0.770568 -0.241753
C5    C     C_3   0.119577 0.477552 0.687941 -0.237329
C6    C     C_R   0.399970 0.623672 0.686895 -0.001158
C7    C     C_1   0.854301 0.670541 0.702202 0.003519
C8    C     C_1   0.901598 0.705087 0.769218 -0.007017
C9    C     C_1   0.365752 0.235380 0.714701 -0.032786
C10   C     C_1   0.333961 0.188317 0.781935 -0.032957
C11   C     C_1   0.317910 0.682647 0.280413 -0.056081
C12   C     C_R   0.413657 0.621854 0.602380 0.571767
C13   C     C_1   0.297252 0.707006 0.209670 -0.063596
C14   C     C_R   0.866785 0.683628 0.167160 0.020218
C15   C     C_R   0.924226 0.611676 0.225606 0.026504
C16   C     C_R   0.912706 0.606000 0.305353 0.014853
C17   C     C_R   0.816458 0.773461 0.272733 -0.155954
C18   C     C_R   0.824471 0.775194 0.191399 -0.167905
C19   C     C_3   0.902958 0.461684 0.232438 -0.267820
C20   C     C_3   0.888682 0.454056 0.320704 -0.269943
C21   C     C_R   0.846042 0.675960 0.329157 0.021260
C22   C     C_R   0.264813 0.059223 0.179347 -0.002402
C23   C     C_R   0.782784 0.621869 0.625774 0.545012
C24   C     C_R   0.160721 0.073494 0.210939 0.050661
C25   C     C_R   0.175155 0.097698 0.289528 0.019126
C26   C     C_R   0.404538 0.098372 0.310402 -0.156096
C27   C     C_R   0.381837 0.059176 0.232055 -0.176358
C28   C     C_3   0.076081 0.154239 0.182529 -0.113312
C29   C     C_3   0.084069 0.172918 0.270570 -0.245721
C30   C     C_R   0.306569 0.131210 0.336623 0.012899
C31   C     C_R   0.949832 0.725877 0.851989 0.559697
C32   C     C_R   0.316212 0.703886 0.899762 0.548669
C33   C     C_R   0.286629 0.119003 0.858626 0.558364
C34   C     C_R   0.348206 0.221186 0.401676 0.557611
C35   C     C_R   0.891607 0.692818 0.085525 0.533847
C36   C     C_R   0.284940 0.739135 0.125520 0.543136
C37   C     C_R   0.247188 0.039990 0.094904 0.551848
C38   C     C_R   0.361883 0.657205 0.361905 0.558153
C39   C     C_R   0.775323 0.624842 0.401343 0.548369
C40   C     C_R   0.354087 0.644253 0.841458 -0.017635
C41   C     C_R   0.249017 0.536095 0.795373 -0.012847
C42   C     C_R   0.273055 0.523580 0.720279 -0.033032
Cr1   Cr    Cr6+3 0.608440 0.389080 0.519680 1.029515
Cr2   Cr    Cr6+3 0.288640 0.400090 0.490760 1.005730
Cr3   Cr    Cr6+3 0.602940 0.710800 0.489510 1.058246
Cr4   Cr    Cr6+3 0.052530 0.947560 0.964210 0.981613
Cr5   Cr    Cr6+3 0.059970 0.626800 0.992920 0.978884
Cr6   Cr    Cr6+3 0.373320 0.938440 0.995370 0.992280
H1    H     H_    0.801869 0.388192 0.198063 0.143991
H2    H     H_    0.778915 0.374103 0.336203 0.161571
H3    H     H_    0.978060 0.445204 0.360988 0.148462
H4    H     H_    0.503954 0.115724 0.346958 0.136945
H5    H     H_    0.461748 0.041565 0.211018 0.142293
H6    H     H_    0.964623 0.084270 0.157235 0.122483
H7    H     H_    0.139291 0.286799 0.284352 0.164806
H8    H     H_    0.978622 0.107951 0.295410 0.117202
H9    H     H_    0.068486 0.580976 0.770742 0.141748
H10   H     H_    0.022187 0.388224 0.802424 0.151235
H11   H     H_    0.063172 0.364604 0.672222 0.167489
H12   H     H_    0.106479 0.556606 0.640484 0.155560
H13   H     H_    0.770564 0.834990 0.289446 0.141934
H14   H     H_    0.790957 0.841687 0.147556 0.122644
H15   H     H_    0.001054 0.458341 0.222063 0.140558
O1    O     O_R   0.754020 0.497590 0.609930 -0.525344
O2    O     O_R   0.295080 0.533620 0.397890 -0.507494
O3    O     O_R   0.485280 0.746620 0.388440 -0.509902
O4    O     O_R   0.720550 0.696220 0.420010 -0.509552
O5    O     O_3   0.500010 0.499990 0.499980 -0.294650
O6    O     O_R   0.163320 0.092900 0.874450 -0.504534
O7    O     O_R   0.934650 0.822080 0.882840 -0.491841
O8    O     O_R   0.915520 0.604140 0.893670 -0.519182
O9    O     O_R   0.191760 0.638110 0.923230 -0.509727
O10   O     O_R   0.406180 0.826930 0.920660 -0.515002
O11   O     O_R   0.358620 0.062870 0.901950 -0.490450
O12   O     O_R   0.481420 0.271390 0.600630 -0.473772
O13   O     O_R   0.163910 0.085460 0.050210 -0.521108
O14   O     O_R   0.935200 0.815170 0.045770 -0.524326
O15   O     O_R   0.916120 0.596690 0.069430 -0.519648
O16   O     O_R   0.192310 0.631200 0.086170 -0.514871
O17   O     O_R   0.406770 0.819480 0.096420 -0.522810
O18   O     O_R   0.359170 0.055960 0.064880 -0.515319
O19   O     O_3   0.161940 0.837600 0.984160 -0.296056
O20   O     O_R   0.263810 0.254550 0.589590 -0.501092
O21   O     O_R   0.300820 0.531200 0.560890 -0.523606
O22   O     O_R   0.491480 0.744020 0.564270 -0.440188
O23   O     O_R   0.726290 0.693800 0.583010 -0.461485
O24   O     O_R   0.747830 0.500190 0.434090 -0.521791
O25   O     O_R   0.475680 0.273800 0.437630 -0.494044
O26   O     O_R   0.257620 0.257160 0.413750 -0.521288
Cl1   Cl    Cl    0.682063 0.842838 0.703517 -0.623514
C43   C     C_3   0.148853 0.300496 0.131084 -0.246381
C44   C     C_3   0.312104 0.390177 0.150513 -0.391947
H16   H     H_    0.341324 0.409240 0.215068 0.146723
H17   H     H_    0.370138 0.337586 0.134069 0.166481
H18   H     H_    0.350002 0.495968 0.114558 0.165682
H19   H     H_    0.124947 0.283590 0.066265 0.177767
H20   H     H_    0.097001 0.364861 0.139528 0.149954
C45   C     C_3   0.621477 0.776401 0.883563 -0.207613
C46   C     C_3   0.705814 0.941099 0.876272 -0.323743
H21   H     H_    0.793724 0.981109 0.837393 0.205159
H22   H     H_    0.634712 0.989889 0.851584 0.181106
H23   H     H_    0.756414 0.978497 0.936622 0.106803
H24   H     H_    0.584925 0.738647 0.944701 0.134167
H25   H     H_    0.690712 0.727934 0.881216 0.190034

loop_
_geom_bond_atom_site_label_1
_geom_bond_atom_site_label_2
_ccdc_geom_bond_type
C5    C42   S    
C16   C21   A    
C41   C42   A    
C14   C18   A    
C19   C20   S    
Cr5   O16   S    
Cr2   O20   S    
Cr4   O13   S    
C7    C8    T    
C32   O9    A    
C15   C19   S    
C30   C34   S    
C26   C27   A    
C12   O22   A    
Cr1   O25   S    
C28   C29   S    
C20   H3    S    
C6    C12   S    
C45   H25   S    
C4    C41   S    
C15   C16   A    
Cr6   O18   S    
C12   O21   A    
Cr5   O19   S    
C2    Cl1   S    
Cr4   O6    S    
C20   H2    S    
C17   H13   S    
C43   H19   S    
Cr4   O19   S    
C31   O7    A    
C38   O3    A    
C19   H15   S    
Cr1   O5    S    
C23   O23   A    
C4    H9    S    
Cr3   O4    S    
C39   O24   A    
C28   C43   S    
C9    C10   T    
C33   O6    A    
C31   O8    A    
Cr1   O12   S    
C37   O18   A    
Cr2   O2    S    
C2    C6    A    
Cr1   O1    S    
C25   C29   S    
C5    H11   S    
C1    O12   A    
Cr6   O11   S    
C1    C9    S    
C24   C25   A    
C13   C36   S    
C36   O17   A    
C43   C44   S    
C28   H6    S    
C18   H14   S    
C29   H7    S    
C22   C37   S    
C35   O14   A    
C44   H18   S    
C17   C21   A    
C11   C38   S    
Cr3   O22   S    
C26   H4    S    
C19   H1    S    
C46   H21   S    
C21   C39   S    
C38   O2    A    
C16   C20   S    
Cr3   O5    S    
C44   H17   S    
C17   C18   A    
C34   O25   A    
C43   H20   S    
Cr5   O8    S    
C40   C41   A    
C46   H22   S    
C37   O13   A    
C3    C40   A    
C26   C30   A    
C22   C27   A    
C22   C24   A    
Cr2   O5    S    
C14   C35   S    
C25   C30   A    
C23   O1    A    
C5    H12   S    
C8    C31   S    
C39   O4    A    
Cr6   O10   S    
C24   C28   S    
C4    C5    S    
Cr2   O21   S    
C36   O16   A    
Cr4   O14   S    
C27   H5    S    
C29   H8    S    
C1    O20   A    
C35   O15   A    
Cr1   O24   S    
Cr6   O17   S    
C2    C3    A    
C34   O26   A    
C11   C13   T    
C3    C45   S    
C7    C23   S    
C44   H16   S    
Cr6   O19   S    
Cr3   O23   S    
C10   C33   S    
C32   C40   S    
Cr5   O9    S    
Cr4   O7    S    
C33   O11   A    
C46   H23   S    
C45   C46   S    
C6    C42   A    
C4    H10   S    
Cr3   O3    S    
C14   C15   A    
Cr5   O15   S    
C32   O10   A    
Cr2   O26   S    
C45   H24   S    
