data_mof_unit_59208.cif
_audit_creation_date              2012-12-10T17:14:27-0500
_audit_creation_method            fapswitch 2.2
_symmetry_space_group_name_H-M    P1
_symmetry_Int_Tables_number       1
_space_group_crystal_system       triclinic
_cell_length_a                    15.964768
_cell_length_b                    15.381545
_cell_length_c                    10.039894
_cell_angle_alpha                 89.940981
_cell_angle_beta                  86.336195
_cell_angle_gamma                 90.037969
_cell_volume                      2460.38362548

loop_
_atom_site_label
_atom_site_type_symbol
_atom_type_description
_atom_site_fract_x
_atom_site_fract_y
_atom_site_fract_z
_atom_type_partial_charge
C1    C     C_R   0.388752 0.121580 0.550443 0.917399
C2    C     C_2   0.509316 0.999645 0.072586 -0.137620
C3    C     C_2   0.990701 0.498933 0.927418 -0.134499
C4    C     C_2   0.009303 0.500791 0.072562 -0.132582
C5    C     C_2   0.298189 0.854444 0.583684 -0.429109
C6    C     C_2   0.682901 0.179605 0.434871 -0.434098
C7    C     C_2   0.688070 0.829171 0.429282 -0.442191
C8    C     C_2   0.330065 0.194414 0.568525 -0.428643
C9    C     C_2   0.805690 0.342305 0.584372 -0.432029
C10   C     C_2   0.169234 0.695878 0.431209 -0.426597
C11   C     C_2   0.200315 0.352026 0.415856 -0.431315
C12   C     C_R   0.615873 0.884780 0.448705 0.943683
C13   C     C_2   0.806746 0.660063 0.578625 -0.428538
C14   C     C_2   0.243802 0.827757 0.492460 0.118801
C15   C     C_2   0.705078 0.231962 0.536939 0.121953
C16   C     C_2   0.717852 0.780203 0.528620 0.119600
C17   C     C_2   0.309027 0.248604 0.467645 0.115618
C18   C     C_2   0.755046 0.309417 0.494226 0.117172
C19   C     C_2   0.190812 0.749875 0.532484 0.117035
C20   C     C_2   0.254402 0.324911 0.507361 0.118407
C21   C     C_2   0.765028 0.701176 0.484191 0.129378
C22   C     C_3   0.685915 0.201346 0.685825 -0.335347
C23   C     C_R   0.614388 0.117453 0.449551 0.925902
C24   C     C_3   0.725974 0.230310 0.814994 -0.445696
C25   C     C_3   0.699331 0.169584 0.931613 -0.901455
C26   C     C_3   0.255671 0.861664 0.344981 -0.352971
C27   C     C_3   0.183882 0.869838 0.247003 -0.369099
C28   C     C_3   0.216712 0.923141 0.123239 -0.919767
C29   C     C_3   0.330050 0.217974 0.319910 -0.341257
C30   C     C_3   0.299261 0.253764 0.188408 -0.427615
C31   C     C_3   0.332295 0.196729 0.068795 -0.855579
C32   C     C_3   0.705313 0.812919 0.677676 -0.344854
C33   C     C_3   0.757835 0.788349 0.796805 -0.415933
C34   C     C_R   0.381525 0.888996 0.553162 0.943497
C35   C     C_3   0.741575 0.851144 0.914165 -0.922812
C36   C     C_3   0.171103 0.718798 0.680544 -0.341026
C37   C     C_3   0.202616 0.757106 0.810673 -0.418159
C38   C     C_3   0.174190 0.700366 0.933297 -0.867826
C39   C     C_3   0.762091 0.342328 0.346241 -0.339049
C40   C     C_3   0.688601 0.336804 0.250888 -0.364534
C41   C     C_3   0.719375 0.376266 0.114875 -0.921053
C42   C     C_3   0.770400 0.666112 0.336659 -0.355188
C43   C     C_3   0.702147 0.685946 0.236436 -0.388453
C44   C     C_3   0.698883 0.617036 0.127285 -0.931223
C45   C     C_R   0.883162 0.612941 0.552358 0.930653
C46   C     C_3   0.242047 0.358161 0.654883 -0.354563
C47   C     C_3   0.310857 0.362040 0.757291 -0.380103
C48   C     C_3   0.275912 0.412070 0.882597 -0.915089
C49   C     C_R   0.118514 0.388907 0.446750 0.946389
C50   C     C_R   0.110970 0.622243 0.449821 0.920616
C51   C     C_R   0.882912 0.387307 0.553034 0.939227
C52   C     C_2   0.490715 0.001046 0.927440 -0.140661
H1    H     H_    0.389479 0.001979 0.140378 0.156379
H2    H     H_    0.791918 0.340163 0.688341 0.146443
H3    H     H_    0.782671 0.655163 0.678912 0.141216
H4    H     H_    0.219496 0.360977 0.313619 0.140359
H5    H     H_    0.574152 0.998324 0.098552 0.170324
H6    H     H_    0.425890 0.002815 0.901495 0.169789
H7    H     H_    0.074129 0.502529 0.098512 0.167582
H8    H     H_    0.925898 0.496620 0.901444 0.165569
H9    H     H_    0.629656 0.164636 0.943658 0.269671
H10   H     H_    0.726415 0.103463 0.913701 0.246047
H11   H     H_    0.723281 0.194983 0.025636 0.262493
H12   H     H_    0.610512 0.997495 0.859505 0.162176
H13   H     H_    0.795743 0.225928 0.802674 0.238839
H14   H     H_    0.703706 0.296722 0.842998 0.234318
H15   H     H_    0.616801 0.207964 0.708508 0.227084
H16   H     H_    0.706771 0.131803 0.684109 0.239815
H17   H     H_    0.223960 0.993397 0.149655 0.249753
H18   H     H_    0.278848 0.897610 0.081565 0.254132
H19   H     H_    0.171905 0.918257 0.042880 0.257211
H20   H     H_    0.163786 0.806724 0.203356 0.220848
H21   H     H_    0.127041 0.902579 0.296218 0.226700
H22   H     H_    0.272759 0.931495 0.354941 0.236800
H23   H     H_    0.889470 0.497781 0.140436 0.151902
H24   H     H_    0.308892 0.825476 0.293254 0.212525
H25   H     H_    0.403194 0.201942 0.053193 0.261047
H26   H     H_    0.314933 0.125666 0.083965 0.235642
H27   H     H_    0.301821 0.218885 0.978493 0.253239
H28   H     H_    0.228566 0.249424 0.190237 0.232228
H29   H     H_    0.323779 0.321241 0.171575 0.226665
H30   H     H_    0.399939 0.217195 0.304423 0.230511
H31   H     H_    0.301603 0.151697 0.317785 0.234819
H32   H     H_    0.756812 0.919359 0.885033 0.252782
H33   H     H_    0.674644 0.847468 0.951829 0.262437
H34   H     H_    0.110498 0.503597 0.859623 0.158931
H35   H     H_    0.781076 0.832673 0.996759 0.255767
H36   H     H_    0.737224 0.724713 0.839230 0.228820
H37   H     H_    0.826041 0.788676 0.766522 0.243266
H38   H     H_    0.718506 0.883766 0.670807 0.238232
H39   H     H_    0.638884 0.800743 0.712821 0.224767
H40   H     H_    0.103213 0.696115 0.945785 0.263772
H41   H     H_    0.201048 0.632364 0.922972 0.238953
H42   H     H_    0.199282 0.729642 0.023553 0.253914
H43   H     H_    0.273606 0.755826 0.805945 0.233552
H44   H     H_    0.175259 0.823561 0.827477 0.227402
H45   H     H_    0.720763 0.177479 0.341732 0.140472
H46   H     H_    0.101182 0.717182 0.697326 0.228433
H47   H     H_    0.199870 0.652580 0.682796 0.231895
H48   H     H_    0.740938 0.445114 0.126797 0.253725
H49   H     H_    0.774544 0.338314 0.068544 0.259309
H50   H     H_    0.667351 0.374675 0.046027 0.260708
H51   H     H_    0.667327 0.269605 0.224360 0.225577
H52   H     H_    0.631362 0.372974 0.294479 0.218909
H53   H     H_    0.770738 0.414372 0.351872 0.221828
H54   H     H_    0.819173 0.311706 0.295033 0.215284
H55   H     H_    0.763195 0.595278 0.093611 0.254065
H56   H     H_    0.276331 0.870021 0.683093 0.137436
H57   H     H_    0.660284 0.561283 0.165107 0.270602
H58   H     H_    0.669030 0.644300 0.039321 0.258695
H59   H     H_    0.639017 0.691880 0.288364 0.244097
H60   H     H_    0.718530 0.745760 0.179532 0.226831
H61   H     H_    0.831379 0.686536 0.286910 0.211249
H62   H     H_    0.769126 0.593967 0.344476 0.231294
H63   H     H_    0.270455 0.482917 0.858966 0.246665
H64   H     H_    0.212050 0.387461 0.918079 0.255545
H65   H     H_    0.318059 0.404615 0.965741 0.258261
H66   H     H_    0.329690 0.297730 0.795357 0.222841
H67   H     H_    0.299823 0.198826 0.667623 0.142940
H68   H     H_    0.368699 0.395379 0.714139 0.227514
H69   H     H_    0.227811 0.428573 0.645701 0.235928
H70   H     H_    0.187106 0.323017 0.703549 0.217865
H71   H     H_    0.719601 0.832183 0.332155 0.139965
H72   H     H_    0.198232 0.701151 0.329976 0.142822
N1    N     N_2   0.549450 0.000000 0.831550 -0.202795
N2    N     N_2   0.450550 0.000000 0.168450 -0.198794
N3    N     N_2   0.049450 0.500000 0.831550 -0.200588
N4    N     N_2   0.950550 0.500000 0.168450 -0.201087
O1    O     O_R   0.398960 0.091100 0.433300 -0.639521
O2    O     O_R   0.569290 0.908910 0.353790 -0.608621
O3    O     O_R   0.569290 0.091090 0.353790 -0.615629
O4    O     O_R   0.430710 0.908910 0.646210 -0.611864
O5    O     O_R   0.930710 0.591090 0.646210 -0.620260
O6    O     O_R   0.069290 0.408910 0.353790 -0.609362
O7    O     O_R   0.069290 0.591090 0.353790 -0.609863
O8    O     O_R   0.930710 0.408910 0.646210 -0.613825
O9    O     O_R   0.601040 0.908900 0.566700 -0.634038
O10   O     O_R   0.601040 0.091100 0.566700 -0.638039
O11   O     O_R   0.398960 0.908900 0.433300 -0.629296
O12   O     O_R   0.898960 0.591100 0.433300 -0.637068
O13   O     O_R   0.101040 0.408900 0.566700 -0.628856
O14   O     O_R   0.101040 0.591100 0.566700 -0.638697
O15   O     O_R   0.898960 0.408900 0.433300 -0.632481
O16   O     O_R   0.430710 0.091090 0.646210 -0.613770
Zn1   Zn    Zn3+2 0.478810 0.000000 0.357840 0.920268
Zn2   Zn    Zn3+2 0.521190 0.000000 0.642160 0.917884
Zn3   Zn    Zn3+2 0.978810 0.500000 0.357840 0.922394
Zn4   Zn    Zn3+2 0.021190 0.500000 0.642160 0.919635

loop_
_geom_bond_atom_site_label_1
_geom_bond_atom_site_label_2
_ccdc_geom_bond_type
C39   H54   S    
C49   O6    A    
C16   C21   S    
C15   C18   S    
C1    C8    S    
C17   C29   S    
C23   O10   A    
C28   H17   S    
C9    C51   S    
C43   C44   S    
C2    H5    S    
O15   Zn3   S    
O6    Zn3   S    
C26   C27   S    
C29   C30   S    
C12   O2    A    
C36   C37   S    
C33   H36   S    
C29   H31   S    
C1    O1    A    
C19   C36   S    
C30   C31   S    
C3    N3    D    
C32   H39   S    
C38   H40   S    
C34   O11   A    
C17   C20   S    
C41   H50   S    
C37   H43   S    
H23   N4    S    
C25   H11   S    
O13   Zn4   S    
C33   C35   S    
C6    C15   D    
C35   H35   S    
C42   H62   S    
C47   H66   S    
C32   H38   S    
C49   O13   A    
N1    Zn2   S    
C26   H24   S    
C46   H69   S    
O1    Zn1   S    
C24   H14   S    
N3    Zn4   S    
C48   H64   S    
C30   H28   S    
C3    H8    S    
C34   O4    A    
O2    Zn1   S    
C43   H59   S    
O12   Zn3   S    
N2    Zn1   S    
C31   H25   S    
C15   C22   S    
C7    C12   S    
C52   H6    S    
C28   H18   S    
C11   C20   D    
C4    N4    D    
C13   C21   D    
C6    H45   S    
O14   Zn4   S    
O9    Zn2   S    
C24   C25   S    
O16   Zn2   S    
C39   C40   S    
C45   O12   A    
C37   H44   S    
C18   C39   S    
C37   C38   S    
C11   C49   S    
C33   H37   S    
C40   H52   S    
C4    H7    S    
C51   O8    A    
C42   H61   S    
C47   C48   S    
C10   C19   D    
C35   H32   S    
C5    C34   S    
C38   H42   S    
C41   H48   S    
C23   O3    A    
O5    Zn4   S    
C25   H9    S    
C14   C26   S    
C22   H16   S    
C5    C14   D    
O8    Zn4   S    
C2    C52   S    
C24   H13   S    
C48   H63   S    
C2    N2    D    
C40   C41   S    
O7    Zn3   S    
C22   C24   S    
C28   H19   S    
C42   C43   S    
C3    C4    S    
C10   C50   S    
C31   H26   S    
C44   H55   S    
C39   H53   S    
C46   C47   S    
O11   Zn1   S    
H34   N3    S    
C45   O5    A    
C14   C19   S    
C7    C16   D    
C7    H71   S    
C52   N1    D    
N4    Zn3   S    
C31   H27   S    
C48   H65   S    
C51   O15   A    
C16   C32   S    
C10   H72   S    
C8    C17   D    
C50   O7    A    
O4    Zn2   S    
C32   C33   S    
C30   H29   S    
C29   H30   S    
C1    O16   A    
C44   H57   S    
C40   H51   S    
C13   C45   S    
C35   H33   S    
O10   Zn2   S    
C6    C23   S    
C38   H41   S    
C26   H22   S    
C41   H49   S    
O3    Zn1   S    
C36   H47   S    
C25   H10   S    
C22   H15   S    
H1    N2    S    
C27   H20   S    
C21   C42   S    
C9    C18   D    
H12   N1    S    
C43   H60   S    
C27   C28   S    
C47   H68   S    
C12   O9    A    
C46   H70   S    
C36   H46   S    
C9    H2    S    
C27   H21   S    
C20   C46   S    
C11   H4    S    
C50   O14   A    
C8    H67   S    
C13   H3    S    
C5    H56   S    
C44   H58   S    
