data_mof_unit_13091.cif
_audit_creation_date              2013-03-05T15:42:04-0500
_audit_creation_method            fapswitch 2.2
_symmetry_space_group_name_H-M    P1
_symmetry_Int_Tables_number       1
_space_group_crystal_system       triclinic
_cell_length_a                    7.810823
_cell_length_b                    8.593689
_cell_length_c                    15.712455
_cell_angle_alpha                 90.915547
_cell_angle_beta                  87.030919
_cell_angle_gamma                 92.754015
_cell_volume                      1051.95095816

loop_
_atom_site_label
_atom_site_type_symbol
_atom_site_description
_atom_site_fract_x
_atom_site_fract_y
_atom_site_fract_z
_atom_type_partial_charge
O1    O     O_R   0.389250 0.738570 0.505570 -0.594349
O2    O     O_R   0.610750 0.261430 0.494430 -0.594362
O3    O     O_R   0.678390 0.711630 0.491020 -0.575366
O4    O     O_R   0.321610 0.288370 0.508980 -0.575310
C1    C     C_R   0.544109 0.794046 0.498230 0.904394
C2    C     C_R   0.455892 0.205954 0.501770 0.904416
O5    O     O_R   0.355460 0.513480 0.630490 -0.585909
O6    O     O_R   0.644540 0.486520 0.369510 -0.585901
O7    O     O_R   0.644600 0.486540 0.615950 -0.582486
O8    O     O_R   0.355400 0.513460 0.384050 -0.582494
C3    C     C_R   0.503862 0.500051 0.661652 0.876772
C4    C     C_R   0.496138 0.499949 0.338348 0.876788
Zn1   Zn    Zn3+2 0.306940 0.517990 0.509710 1.170931
Zn2   Zn    Zn3+2 0.693060 0.482010 0.490290 1.170909
C5    C     C_2   0.563660 0.955316 0.511183 0.108653
C6    C     C_2   0.436341 0.044683 0.488818 0.108680
C7    C     C_3   0.434403 0.637225 0.028954 -0.291151
C8    C     C_3   0.565598 0.362776 0.971046 -0.291148
C9    C     C_3   0.602893 0.619177 0.974280 0.239345
C10   C     C_3   0.397107 0.380824 0.025720 0.239345
H1    H     H_    0.380386 0.747836 0.052790 0.248836
H2    H     H_    0.619614 0.252165 0.947210 0.248838
C11   C     C_1   0.512957 0.499565 0.750035 -0.005646
C12   C     C_1   0.487043 0.500435 0.249965 -0.005653
C13   C     C_3   0.346766 0.514150 0.970316 0.248161
C14   C     C_3   0.653235 0.485851 0.029684 0.248160
C15   C     C_3   0.513922 0.499390 0.915908 -0.142033
C16   C     C_3   0.486078 0.500611 0.084092 -0.142032
N1    N     N_2   0.950320 0.457950 0.477300 0.040640
N2    N     N_2   0.049680 0.542050 0.522700 0.040627
C17   C     C_1   0.517298 0.499339 0.825092 0.179024
C18   C     C_1   0.482702 0.500661 0.174908 0.179021
N3    N     N_R   0.718096 0.749277 0.946901 0.267472
O9    O     O_R   0.778173 0.847201 0.003149 -0.249861
O10   O     O_R   0.756846 0.771471 0.866389 -0.281251
N4    N     N_R   0.281904 0.250724 0.053098 0.267471
O11   O     O_R   0.221827 0.152800 0.996851 -0.249859
O12   O     O_R   0.243154 0.228529 0.133611 -0.281252
N5    N     N_R   0.820344 0.471746 0.065074 0.255815
O13   O     O_R   0.901565 0.344074 0.053202 -0.258165
O14   O     O_R   0.882196 0.581219 0.114400 -0.279829
N6    N     N_R   0.179656 0.528255 0.934926 0.255815
O15   O     O_R   0.117804 0.418782 0.885600 -0.279832
O16   O     O_R   0.098435 0.655927 0.946797 -0.258163
Cl1   Cl    Cl    0.736645 0.017817 0.575019 -0.429275
Cl2   Cl    Cl    0.263358 0.982180 0.424981 -0.429264
N7    N     N_R   0.016633 0.431381 0.395225 0.308344
O17   O     O_R   0.014345 0.540795 0.339052 -0.299687
O18   O     O_R   0.039552 0.289080 0.369397 -0.273419
N8    N     N_R   0.983386 0.568588 0.604782 0.308340
O19   O     O_R   0.985504 0.459075 0.660910 -0.299694
O20   O     O_R   0.960746 0.710909 0.630673 -0.273405

loop_
_geom_bond_atom_site_label_1
_geom_bond_atom_site_label_2
_geom_bond_distance
_ccdc_geom_bond_type
C13   N6    1.456078 S    
N8    O20   1.300030 A    
O7    Zn2   1.991153 S    
C12   C18   1.181611 T    
N1    N2    1.272981 D    
C13   C15   1.532453 S    
C9    C15   1.533268 S    
C4    C12   1.394279 S    
C14   C16   1.532453 S    
N7    O17   1.301233 A    
C8    C14   1.549422 S    
C16   C18   1.425818 S    
O6    C4    1.292333 A    
C7    C13   1.549422 S    
N4    O12   1.300320 A    
N3    O9    1.300268 A    
N2    N8    1.384289 S    
N5    O14   1.300370 A    
O5    C3    1.292333 A    
O7    C3    1.290491 A    
O2    C2    1.278884 A    
O3    Zn2   1.981912 S    
N6    O16   1.299666 A    
N1    N7    1.384286 S    
O1    C1    1.278884 A    
O8    C4    1.290491 A    
C3    C11   1.394279 S    
N4    O11   1.300268 A    
C7    C9    1.546698 S    
N8    O19   1.301266 A    
C8    C10   1.546699 S    
C9    N3    1.457175 S    
O2    Zn2   1.973155 S    
C14   N5    1.456077 S    
C1    C5    1.399768 S    
O4    C2    1.292695 A    
O1    Zn1   1.973156 S    
N6    O15   1.300368 A    
C5    Cl1   1.781458 S    
Zn2   N1    2.029343 S    
C2    C6    1.399770 S    
C5    C6    1.349251 D    
C10   N4    1.457175 S    
Zn1   N2    2.029344 S    
O5    Zn1   1.955723 S    
N7    O18   1.299944 A    
C10   C13   1.528349 S    
C6    Cl2   1.781458 S    
N5    O13   1.299667 A    
C9    C14   1.528350 S    
O6    Zn2   1.955723 S    
C10   C16   1.533268 S    
N3    O10   1.300320 A    
C8    H2    1.110241 S    
C7    C16   1.551147 S    
C15   C17   1.425816 S    
C7    H1    1.110241 S    
C8    C15   1.551147 S    
O4    Zn1   1.981911 S    
O3    C1    1.292694 A    
O8    Zn1   1.991153 S    
C11   C17   1.181613 T    
