data_mof_unit_47321.cif
_audit_creation_date              2013-03-05T16:11:05-0500
_audit_creation_method            fapswitch 2.2
_symmetry_space_group_name_H-M    P1
_symmetry_Int_Tables_number       1
_space_group_crystal_system       triclinic
_cell_length_a                    11.449612
_cell_length_b                    10.225277
_cell_length_c                    10.737678
_cell_angle_alpha                 89.992384
_cell_angle_beta                  86.16772
_cell_angle_gamma                 90.56818
_cell_volume                      1254.24550463

loop_
_atom_site_label
_atom_site_type_symbol
_atom_site_description
_atom_site_fract_x
_atom_site_fract_y
_atom_site_fract_z
_atom_type_partial_charge
O1    O     O_R   0.317570 0.620260 0.500070 -0.602163
O2    O     O_R   0.317570 0.379740 0.500070 -0.602957
C1    C     C_R   0.263582 0.499820 0.517575 0.856451
O3    O     O_R   0.499850 0.620240 0.316900 -0.574688
O4    O     O_R   0.499850 0.379760 0.316900 -0.544605
C2    C     C_R   0.488119 0.500191 0.262081 0.803242
Cu1   Cu    Cu3+1 0.499860 0.642410 0.500060 0.922738
Cu2   Cu    Cu3+1 0.499860 0.357590 0.500060 0.941847
O5    O     O_R   0.682190 0.620260 0.500030 -0.600550
O6    O     O_R   0.682190 0.379740 0.500030 -0.602595
O7    O     O_R   0.499910 0.620280 0.683200 -0.595813
O8    O     O_R   0.499910 0.379720 0.683200 -0.576929
C3    C     C_R   0.737515 0.500112 0.520370 0.683279
C4    C     C_R   0.505763 0.500112 0.736345 0.828394
C5    C     C_3   0.425370 0.606425 0.031452 0.005156
C6    C     C_3   0.433825 0.390639 0.034144 -0.076302
C7    C     C_3   0.386235 0.495136 0.948619 -0.111819
C8    C     C_3   0.502735 0.500476 0.872441 -0.125190
C9    C     C_3   0.544667 0.611701 0.954254 -0.164178
C10   C     C_3   0.552057 0.395909 0.955663 -0.210261
C11   C     C_3   0.592296 0.507224 0.041231 0.216130
C12   C     C_3   0.473947 0.501865 0.121858 -0.094750
H1    H     H_    0.593648 0.700617 0.920701 0.169070
H2    H     H_    0.606301 0.312214 0.921540 0.155938
C13   C     C_3   0.074064 0.615800 0.626813 -0.008943
C14   C     C_3   0.070542 0.380485 0.619951 -0.023957
H3    H     H_    0.088257 0.591172 0.724447 0.183818
H4    H     H_    0.079500 0.400947 0.719431 0.178748
C15   C     C_3   0.935163 0.621395 0.623799 0.333818
C16   C     C_3   0.933656 0.368670 0.609017 0.352047
H5    H     H_    0.902825 0.591229 0.361519 0.168903
H6    H     H_    0.903304 0.426166 0.352996 0.168393
C17   C     C_3   0.075297 0.506852 0.402810 0.264110
C18   C     C_3   0.126203 0.500602 0.538705 0.025653
C19   C     C_3   0.880355 0.499234 0.545182 0.004935
C20   C     C_3   0.938125 0.506024 0.410354 -0.413571
C21   C     C_3   0.618816 0.083531 0.520284 0.417234
C22   C     C_3   0.618110 0.919405 0.525976 0.425314
H7    H     H_    0.449083 0.108889 0.700590 0.198096
H8    H     H_    0.421926 0.876027 0.692556 0.190488
C23   C     C_3   0.425296 0.078654 0.607165 -0.250045
C24   C     C_3   0.416722 0.920712 0.599316 -0.264858
C25   C     C_3   0.450932 0.079664 0.380753 0.142196
C26   C     C_3   0.464252 0.915606 0.375897 0.121506
N1    N     N_3   0.500250 0.143650 0.502780 -0.183731
N2    N     N_3   0.500250 0.856350 0.502780 -0.197868
H9    H     H_    0.337530 0.118590 0.613963 0.166604
H10   H     H_    0.326149 0.897015 0.583576 0.162226
C27   C     C_2   0.268140 0.487266 0.896802 0.831549
O9    O     O_2   0.261519 0.489733 0.784503 -0.683003
O10   O     O_R   0.167374 0.475840 0.977198 -0.725554
H11   H     H_    0.092995 0.471769 0.931320 0.302677
C28   C     C_3   0.666958 0.137020 0.644509 -0.774453
H12   H     H_    0.757395 0.105201 0.652471 0.201838
H13   H     H_    0.661123 0.241551 0.655956 0.282903
H14   H     H_    0.622341 0.103584 0.732792 0.196408
C29   C     C_3   0.652159 0.869213 0.658449 -0.778038
H15   H     H_    0.651733 0.763228 0.666098 0.276221
H16   H     H_    0.740651 0.900826 0.681542 0.191015
H17   H     H_    0.594035 0.900487 0.738660 0.209226
C30   C     C_3   0.704938 0.130296 0.410316 -0.784162
H18   H     H_    0.684710 0.084276 0.329015 0.259697
H19   H     H_    0.704140 0.227773 0.372742 0.303276
H20   H     H_    0.795876 0.099477 0.415664 0.188570
C31   C     C_3   0.718917 0.868041 0.431613 -0.765755
H21   H     H_    0.754859 0.911063 0.346264 0.189442
H22   H     H_    0.800720 0.901570 0.466846 0.197405
H23   H     H_    0.704038 0.779016 0.379655 0.265885
C32   C     C_3   0.319011 0.119818 0.375954 -0.799799
H24   H     H_    0.261654 0.078893 0.451596 0.193715
H25   H     H_    0.311798 0.224422 0.363879 0.280295
H26   H     H_    0.274846 0.085804 0.293141 0.245160
C33   C     C_3   0.342112 0.855526 0.344797 -0.716366
H27   H     H_    0.266843 0.875024 0.409369 0.184921
H28   H     H_    0.316098 0.888344 0.252355 0.241116
H29   H     H_    0.345606 0.751363 0.333293 0.281740
C34   C     C_2   0.493042 0.127624 0.244595 0.899896
O11   O     O_2   0.444154 0.076917 0.158529 -0.571948
O12   O     O_R   0.589395 0.207052 0.208787 -0.767777
H30   H     H_    0.611378 0.205318 0.115922 0.335961
C35   C     C_2   0.543852 0.871476 0.252499 0.885260
O13   O     O_2   0.505451 0.794704 0.180363 -0.580825
O14   O     O_R   0.641808 0.937646 0.198815 -0.825836
H31   H     H_    0.675754 0.899450 0.117009 0.341425
C36   C     C_2   0.344723 0.723057 0.033705 0.912332
O15   O     O_2   0.377783 0.824636 0.981740 -0.573895
O16   O     O_R   0.230517 0.712584 0.085881 -0.789202
H32   H     H_    0.184822 0.796261 0.077842 0.321251
C37   C     C_2   0.354967 0.273363 0.040758 0.956216
O17   O     O_2   0.276332 0.263978 0.122425 -0.629521
O18   O     O_R   0.365222 0.180622 0.944986 -0.748510
H33   H     H_    0.303912 0.108522 0.955371 0.352603
C38   C     C_3   0.714019 0.515470 0.090226 -0.862944
H34   H     H_    0.722805 0.607028 0.144496 0.238290
H35   H     H_    0.728146 0.430445 0.151434 0.249286
H36   H     H_    0.781085 0.515115 0.010823 0.228912
C39   C     C_3   0.141076 0.746923 0.637933 -0.833148
H37   H     H_    0.143275 0.805962 0.552818 0.232620
H38   H     H_    0.098519 0.807713 0.713644 0.220692
H39   H     H_    0.229688 0.730387 0.670139 0.268827
C40   C     C_3   0.136866 0.251791 0.627949 -0.847860
H40   H     H_    0.144716 0.205182 0.536986 0.251419
H41   H     H_    0.221918 0.269428 0.668431 0.279629
H42   H     H_    0.089753 0.182796 0.694297 0.224655
C41   C     C_3   0.875768 0.632800 0.759897 -0.907280
H43   H     H_    0.876050 0.734878 0.795672 0.241111
H44   H     H_    0.782765 0.600688 0.763105 0.221219
H45   H     H_    0.921876 0.579930 0.830875 0.213715
C42   C     C_3   0.870690 0.338272 0.740833 -0.889278
H46   H     H_    0.779775 0.374475 0.747949 0.219710
H47   H     H_    0.868948 0.232446 0.763278 0.238243
H48   H     H_    0.915308 0.378261 0.820366 0.210568
C43   C     C_3   0.911464 0.748406 0.564346 -0.863333
H49   H     H_    0.936246 0.836978 0.616665 0.224604
H50   H     H_    0.944014 0.759850 0.466616 0.231091
H51   H     H_    0.820096 0.744059 0.572277 0.291286
C44   C     C_3   0.916854 0.248385 0.530993 -0.873295
H52   H     H_    0.954104 0.247516 0.434866 0.227246
H53   H     H_    0.938587 0.154323 0.575090 0.227288
H54   H     H_    0.827667 0.251839 0.526977 0.294041
C45   C     C_3   0.117496 0.629867 0.328058 -0.768515
H55   H     H_    0.068273 0.640346 0.242878 0.263829
H56   H     H_    0.109272 0.721430 0.379713 0.215637
H57   H     H_    0.210235 0.620506 0.295764 0.252469
C46   C     C_3   0.121899 0.393070 0.317819 -0.723291
H58   H     H_    0.215864 0.408500 0.289829 0.245794
H59   H     H_    0.118057 0.296969 0.362080 0.215497
H60   H     H_    0.074849 0.387549 0.230639 0.267347

loop_
_geom_bond_atom_site_label_1
_geom_bond_atom_site_label_2
_geom_bond_distance
_ccdc_geom_bond_type
O16   H32   1.013981 S    
C38   H34   1.110091 S    
C30   H20   1.095994 S    
C23   C24   1.619559 S    
C4    C8    1.459454 S    
C19   C20   1.552213 S    
C35   O13   1.203473 D    
Cu1   Cu2   2.912362 S    
H7    C23   1.100468 S    
C34   O11   1.224627 D    
C5    C9    1.550134 S    
C41   H44   1.109534 S    
C40   H40   1.085571 S    
C16   C19   1.642085 S    
H6    C20   1.109754 S    
C9    C11   1.546049 S    
C3    C19   1.674620 S    
C42   H47   1.108277 S    
C14   C40   1.531086 S    
C24   N2    1.517365 S    
O4    C2    1.376455 A    
O7    C4    1.358867 A    
C29   H16   1.104379 S    
C2    C12   1.525239 S    
C39   H37   1.093993 S    
C17   C20   1.567179 S    
C30   H19   1.075592 S    
C8    C9    1.530197 S    
C33   H27   1.089386 S    
C32   H25   1.082047 S    
O5    C3    1.411430 A    
Cu2   N1    2.187840 S    
C45   H57   1.099868 S    
C35   O14   1.395136 S    
C14   C18   1.607990 S    
C5    C12   1.574316 S    
C10   H2    1.110216 S    
C28   H12   1.097214 S    
C6    C7    1.536277 S    
C31   H22   1.085785 S    
C7    C8    1.517886 S    
C46   H60   1.111986 S    
C37   O18   1.398901 S    
C30   H18   1.030610 S    
Cu2   O8    1.979543 S    
C13   C18   1.605516 S    
C5    C36   1.514722 S    
C43   H51   1.044410 S    
C21   C28   1.573131 S    
C28   H13   1.078137 S    
C6    C37   1.492730 S    
C25   C32   1.573326 S    
C11   C12   1.558968 S    
C17   C45   1.547831 S    
C33   H28   1.108158 S    
C15   C41   1.574951 S    
C26   C33   1.577980 S    
O3    Cu1   1.979772 S    
C39   H38   1.112617 S    
C26   N2    1.572584 S    
Cu1   O7    1.979485 S    
C34   O12   1.396415 S    
C13   C15   1.594443 S    
C41   H45   1.100520 S    
C22   N2    1.525280 S    
C36   O16   1.390849 S    
O10   H11   1.012437 S    
Cu1   N2    2.187759 S    
O3    C2    1.370713 A    
C26   C35   1.623814 S    
C44   H54   1.025896 S    
C7    C27   1.497581 S    
O18   H33   1.013891 S    
C29   H17   1.102101 S    
C16   C42   1.574408 S    
C1    C18   1.574232 S    
C27   O10   1.397904 S    
C36   O15   1.223640 D    
O1    C1    1.379648 A    
C32   H26   1.106393 S    
C9    H1    1.110734 S    
C25   C26   1.686463 S    
C21   C22   1.679256 S    
C22   C29   1.586402 S    
O14   H31   1.016204 S    
C22   C31   1.578143 S    
C6    C10   1.546500 S    
C31   H23   1.085678 S    
C17   C46   1.555208 S    
C17   C18   1.608556 S    
C23   H9    1.086375 S    
C24   H10   1.086805 S    
C25   N1    1.598620 S    
C45   H55   1.111636 S    
C13   C39   1.546771 S    
O8    C4    1.359881 A    
C14   C16   1.582917 S    
C38   H36   1.108660 S    
C46   H58   1.107304 S    
C33   H29   1.073093 S    
C42   H48   1.100796 S    
C25   C34   1.584729 S    
C21   N1    1.518796 S    
C39   H39   1.108072 S    
C43   H49   1.110270 S    
C28   H14   1.099174 S    
Cu1   O5    2.102068 S    
C15   C43   1.482487 S    
C6    C12   1.561844 S    
O1    Cu1   2.097160 S    
Cu2   O6    2.097603 S    
O2    Cu2   2.101626 S    
O6    C3    1.402507 A    
O4    Cu2   1.979713 S    
C21   C30   1.558891 S    
C5    C7    1.526514 S    
C16   C44   1.506260 S    
C13   H3    1.101096 S    
C41   H43   1.112316 S    
C15   C19   1.649926 S    
C14   H4    1.099809 S    
C44   H53   1.109766 S    
O2    C1    1.387309 A    
C42   H46   1.106106 S    
C29   H15   1.086762 S    
C38   H35   1.109421 S    
C11   C38   1.523779 S    
H8    C24   1.105922 S    
C8    C10   1.529660 S    
C31   H21   1.071750 S    
C32   H24   1.090527 S    
C45   H56   1.089945 S    
O12   H30   1.012191 S    
C10   C11   1.548703 S    
C40   H41   1.105853 S    
C27   O9    1.213538 D    
C46   H59   1.090713 S    
C23   N1    1.514734 S    
H5    C20   1.110217 S    
C40   H42   1.112290 S    
C37   O17   1.217182 D    
C44   H52   1.090236 S    
C43   H50   1.095736 S    
