data_mof_unit_23389.cif
_audit_creation_date              2012-12-10T17:17:32-0500
_audit_creation_method            fapswitch 2.2
_symmetry_space_group_name_H-M    P1
_symmetry_Int_Tables_number       1
_space_group_crystal_system       triclinic
_cell_length_a                    10.278202
_cell_length_b                    10.520993
_cell_length_c                    12.232377
_cell_angle_alpha                 91.57013
_cell_angle_beta                  110.219273
_cell_angle_gamma                 95.159074
_cell_volume                      1233.80689776

loop_
_atom_site_label
_atom_site_type_symbol
_atom_type_description
_atom_site_fract_x
_atom_site_fract_y
_atom_site_fract_z
_atom_type_partial_charge
C1    C     C_R   0.047445 0.733361 0.487654 0.952042
C2    C     C_R   0.201004 0.499082 0.842008 -0.209989
C3    C     C_2   0.061806 0.867117 0.464316 -0.375561
C4    C     C_R   0.133307 0.507136 0.715215 0.867416
C5    C     C_2   0.947292 0.923975 0.408312 0.179175
C6    C     C_2   0.906918 0.128061 0.483488 -0.079787
C7    C     C_2   0.958376 0.062402 0.414590 -0.210679
C8    C     C_2   0.435158 0.505110 0.519268 0.147038
C9    C     C_2   0.567220 0.483258 0.496967 -0.026922
C10   C     C_R   0.946510 0.265491 0.502249 0.870790
C11   C     C_R   0.864911 0.486567 0.285270 0.872884
C12   C     C_R   0.408043 0.456139 0.000220 0.024515
C13   C     C_R   0.724757 0.315639 0.988635 -0.210182
C14   C     C_R   0.784287 0.456143 0.162463 -0.058801
C15   C     C_R   0.156041 0.566148 0.922932 0.067027
C16   C     C_R   0.228016 0.562914 0.042571 0.159348
C17   C     C_R   0.353939 0.507765 0.082701 0.007057
C18   C     C_R   0.318921 0.430809 0.884165 -0.015922
C19   C     C_R   0.547648 0.430247 0.027669 0.070767
C20   C     C_R   0.585700 0.345742 0.954122 0.123107
C21   C     C_R   0.483288 0.295044 0.848497 0.046768
C22   C     C_R   0.351946 0.339170 0.813745 -0.181492
C23   C     C_R   0.651900 0.495312 0.122260 -0.254563
C24   C     C_R   0.822716 0.367786 0.094559 -0.188133
H1    H     H_    0.312312 0.387834 0.385579 0.146992
H2    H     H_    0.374316 0.650289 0.599876 0.233187
H3    H     H_    0.764476 0.675866 0.681585 0.190322
H4    H     H_    0.713619 0.741451 0.551840 0.208687
H5    H     H_    0.591436 0.246375 0.745905 0.182854
H6    H     H_    0.544629 0.124283 0.817652 0.182670
H7    H     H_    0.757411 0.249223 0.936670 0.134656
H8    H     H_    0.629519 0.573671 0.169508 0.159287
H9    H     H_    0.048483 0.703928 0.828921 0.186157
H10   H     H_    0.947031 0.573284 0.847469 0.211585
H11   H     H_    0.475446 0.413935 0.221515 0.198919
H12   H     H_    0.925856 0.335872 0.125068 0.150191
H13   H     H_    0.467745 0.573238 0.250061 0.186560
H14   H     H_    0.246356 0.688447 0.176883 0.182734
H15   H     H_    0.154577 0.546037 0.175851 0.210904
H16   H     H_    0.275951 0.300270 0.731285 0.187010
H17   H     H_    0.025429 0.110474 0.373039 0.149575
H18   H     H_    0.741819 0.876735 0.381135 0.204768
H19   H     H_    0.783230 0.877793 0.259252 0.168714
H20   H     H_    0.867943 0.086183 0.629952 0.178141
H21   H     H_    0.725174 0.105378 0.513401 0.186680
H22   H     H_    0.163487 0.922014 0.501980 0.125077
H23   H     H_    0.564483 0.400128 0.441456 0.100751
H24   H     H_    0.445003 0.529274 0.687614 0.218646
N1    N     N_2   0.313640 0.446500 0.454900 -0.217399
N2    N     N_3   0.172058 0.617575 0.123349 -0.428002
N3    N     N_2   0.686360 0.553430 0.545150 -0.072610
N4    N     N_3   0.815467 0.851439 0.345584 -0.428195
N5    N     N_3   0.819903 0.065422 0.540058 -0.463600
N6    N     N_3   0.448861 0.585690 0.619833 -0.420720
N7    N     N_3   0.685310 0.670527 0.599897 -0.377220
N8    N     N_3   0.511351 0.204709 0.771813 -0.470346
N9    N     N_3   0.036652 0.636713 0.887082 -0.433759
N10   N     N_3   0.411745 0.488306 0.205381 -0.498021
O1    O     O_R   0.936910 0.692950 0.509080 -0.584144
O2    O     O_R   0.138320 0.658600 0.480130 -0.620740
O3    O     O_R   0.002900 0.525670 0.675280 -0.614243
O4    O     O_R   0.204310 0.491320 0.646330 -0.620369
O5    O     O_R   0.861680 0.341400 0.519870 -0.608593
O6    O     O_R   0.063090 0.307050 0.490920 -0.609704
O7    O     O_R   0.795690 0.508680 0.353670 -0.607267
O8    O     O_R   0.997100 0.474330 0.324720 -0.614110
Zn1   Zn    Zn3+2 0.865520 0.522940 0.519330 0.921268
Zn2   Zn    Zn3+2 0.134480 0.477060 0.480670 0.906806

loop_
_geom_bond_atom_site_label_1
_geom_bond_atom_site_label_2
_ccdc_geom_bond_type
C12   C17   A    
C6    C10   S    
C21   N8    S    
C2    C4    S    
C11   O7    A    
C5    N4    S    
C6    C7    D    
H14   N2    S    
N1    Zn2   S    
H10   N9    S    
O3    Zn1   S    
H3    N7    S    
C19   C23   A    
H13   N10   S    
C13   C20   A    
C11   O8    A    
O4    Zn2   S    
C17   N10   S    
C3    C5    D    
C22   H16   S    
C23   H8    S    
C19   C20   A    
C1    O1    A    
H20   N5    S    
H21   N5    S    
N3    Zn1   S    
C21   C22   A    
H24   N6    S    
C2    C15   A    
C15   N9    S    
C24   H12   S    
C14   C24   A    
H11   N10   S    
H2    N6    S    
C12   C19   A    
H5    N8    S    
C14   C23   A    
C16   N2    S    
C9    H23   S    
H1    N1    S    
C7    H17   S    
C11   C14   S    
O5    Zn1   S    
H19   N4    S    
C8    N1    D    
C2    C18   A    
O8    Zn2   S    
C6    N5    S    
C12   C18   A    
C15   C16   A    
O6    Zn2   S    
C4    O4    A    
H15   N2    S    
O1    Zn1   S    
C20   C21   A    
O2    Zn2   S    
C1    O2    A    
C8    N6    S    
C5    C7    S    
C13   H7    S    
C16   C17   A    
H9    N9    S    
C3    H22   S    
N3    N7    S    
C1    C3    S    
C18   C22   A    
H6    N8    S    
C4    O3    A    
H4    N7    S    
C10   O6    A    
C10   O5    A    
C13   C24   A    
H18   N4    S    
C8    C9    S    
O7    Zn1   S    
C9    N3    D    
