data_mof_unit_63058.cif
_audit_creation_date              2012-12-10T18:24:47-0500
_audit_creation_method            fapswitch 2.2
_symmetry_space_group_name_H-M    P1
_symmetry_Int_Tables_number       1
_space_group_crystal_system       triclinic
_cell_length_a                    16.054621
_cell_length_b                    16.042482
_cell_length_c                    19.513336
_cell_angle_alpha                 95.387712
_cell_angle_beta                  90.608111
_cell_angle_gamma                 84.10191
_cell_volume                      4977.08283858

loop_
_atom_site_label
_atom_site_type_symbol
_atom_type_description
_atom_site_fract_x
_atom_site_fract_y
_atom_site_fract_z
_atom_type_partial_charge
C1    C     C_R   0.275756 0.510884 0.491005 0.814331
C2    C     C_2   0.474698 0.513277 0.982590 -0.164990
C3    C     C_2   0.531016 0.467037 0.018250 -0.247913
C4    C     C_R   0.724140 0.489225 0.508993 0.812652
C5    C     C_R   0.515523 0.483671 0.236568 0.003568
C6    C     C_1   0.186180 0.515401 0.487416 -0.131219
C7    C     C_2   0.020926 0.523525 0.480887 -0.160192
C8    C     C_2   0.978948 0.477022 0.519099 -0.159945
C9    C     C_1   0.888987 0.481331 0.515546 0.011022
C10   C     C_1   0.110893 0.519146 0.484419 0.013242
C11   C     C_1   0.813706 0.484945 0.512551 -0.133844
C12   C     C_R   0.476796 0.511784 0.906749 0.109410
C13   C     C_1   0.516301 0.184857 0.487066 -0.130993
C14   C     C_2   0.524560 0.018804 0.480318 -0.160420
C15   C     C_2   0.474884 0.981273 0.519611 -0.160398
C16   C     C_R   0.511695 0.274874 0.490864 0.813867
C17   C     C_1   0.479402 0.890877 0.516019 0.013680
C18   C     C_1   0.520114 0.109197 0.483940 0.012449
C19   C     C_1   0.483346 0.815212 0.512909 -0.130976
C20   C     C_R   0.488189 0.725183 0.509118 0.815739
C21   C     C_R   0.510120 0.489739 0.311496 0.795103
C22   C     C_R   0.490047 0.510131 0.688500 0.805792
C23   C     C_R   0.402620 0.530757 0.868441 -0.008460
C24   C     C_R   0.485488 0.513443 0.763353 -0.022479
C25   C     C_R   0.558070 0.494531 0.801145 -0.193246
C26   C     C_R   0.554133 0.495474 0.872153 -0.158754
C27   C     C_2   0.317795 0.544934 0.899904 0.881058
C28   C     C_R   0.408497 0.533269 0.797034 -0.232539
C29   C     C_R   0.450499 0.459609 0.125108 -0.140275
C30   C     C_R   0.445688 0.464929 0.196531 -0.205087
C31   C     C_R   0.590822 0.495068 0.204563 -0.194304
C32   C     C_R   0.596281 0.487343 0.133006 -0.164632
C33   C     C_R   0.525790 0.471046 0.093217 0.181422
H1    H     H_    0.618268 0.480539 0.775773 0.156737
H2    H     H_    0.395839 0.446038 0.094685 0.169889
H3    H     H_    0.352350 0.546720 0.766983 0.190644
H4    H     H_    0.425584 0.553814 0.010571 0.182411
H5    H     H_    0.612441 0.484577 0.899693 0.138134
H6    H     H_    0.200117 0.602302 0.896140 0.350869
H7    H     H_    0.654743 0.495951 0.108675 0.137417
H8    H     H_    0.011973 0.435279 0.553377 0.162511
H9    H     H_    0.987908 0.565265 0.446603 0.162112
H10   H     H_    0.430436 0.018286 0.554822 0.162781
H11   H     H_    0.569013 0.981784 0.445114 0.162862
H12   H     H_    0.387181 0.455744 0.220508 0.160511
H13   H     H_    0.645549 0.508686 0.234865 0.155486
H14   H     H_    0.582619 0.427145 0.993200 0.156528
O1    O     O_3   0.500000 0.500000 0.500000 -0.484147
O2    O     O_R   0.462330 0.445560 0.340470 -0.642138
O3    O     O_R   0.440930 0.559110 0.655640 -0.638636
O4    O     O_R   0.554010 0.538050 0.348260 -0.643052
O5    O     O_R   0.542730 0.457290 0.655630 -0.642108
O6    O     O_2   0.301133 0.507993 0.949255 -0.639614
O7    O     O_R   0.255520 0.598399 0.870985 -0.799508
O8    O     O_R   0.555880 0.314540 0.535300 -0.632483
O9    O     O_R   0.439840 0.689760 0.546310 -0.631615
O10   O     O_R   0.320170 0.458170 0.449830 -0.635346
O11   O     O_R   0.684110 0.537530 0.468570 -0.636501
O12   O     O_R   0.310830 0.559620 0.535340 -0.631860
O13   O     O_R   0.684890 0.444680 0.546270 -0.635022
O14   O     O_R   0.463420 0.314900 0.449800 -0.633198
O15   O     O_R   0.540870 0.680800 0.468590 -0.634307
Zn1   Zn    Zn3+2 0.569660 0.430340 0.558290 0.980310
Zn2   Zn    Zn3+2 0.437560 0.430860 0.436130 0.981014
Zn3   Zn    Zn3+2 0.568560 0.563000 0.447270 0.978007
Zn4   Zn    Zn3+2 0.424220 0.575810 0.558310 0.988644

loop_
_geom_bond_atom_site_label_1
_geom_bond_atom_site_label_2
_ccdc_geom_bond_type
C6    C10   T    
C7    C10   S    
C27   O6    D    
C29   C30   A    
C1    O10   A    
O1    Zn3   S    
O14   Zn2   S    
C9    C11   T    
C14   C18   S    
O11   Zn3   S    
C19   C20   S    
C12   C23   A    
C20   O9    A    
C25   H1    S    
C22   O3    A    
C2    C12   S    
C32   C33   A    
C4    O13   A    
C21   O2    A    
C2    C3    D    
C13   C16   S    
C16   O8    A    
C15   H10   S    
C7    C8    D    
O2    Zn2   S    
C23   C28   A    
C24   C25   A    
C4    C11   S    
O3    Zn4   S    
C2    H4    S    
C13   C18   T    
O13   Zn1   S    
O9    Zn4   S    
C12   C26   A    
C3    H14   S    
C17   C19   T    
C1    O12   A    
C14   H11   S    
C23   C27   S    
C32   H7    S    
O12   Zn4   S    
C20   O15   A    
C22   C24   S    
C27   O7    S    
H6    O7    S    
O1    Zn2   S    
C16   O14   A    
C3    C33   S    
C1    C6    S    
C29   C33   A    
C21   O4    A    
C5    C21   S    
C8    H8    S    
C28   H3    S    
O10   Zn2   S    
C22   O5    A    
C5    C30   A    
O4    Zn3   S    
C7    H9    S    
C4    O11   A    
C15   C17   S    
C29   H2    S    
C14   C15   D    
C26   H5    S    
O1    Zn1   S    
C30   H12   S    
O15   Zn3   S    
O1    Zn4   S    
C25   C26   A    
O5    Zn1   S    
C31   C32   A    
C24   C28   A    
C8    C9    S    
C5    C31   A    
C31   H13   S    
O8    Zn1   S    
