data_mof_unit_31948.cif
_audit_creation_date              2012-12-11T14:36:25-0500
_audit_creation_method            fapswitch 2.2
_symmetry_space_group_name_H-M    P1
_symmetry_Int_Tables_number       1
_space_group_crystal_system       triclinic
_cell_length_a                    13.491097
_cell_length_b                    13.505807
_cell_length_c                    27.501853
_cell_angle_alpha                 90.482159
_cell_angle_beta                  90.163704
_cell_angle_gamma                 60.094992
_cell_volume                      4343.69586271

loop_
_atom_site_label
_atom_site_type_symbol
_atom_type_description
_atom_site_fract_x
_atom_site_fract_y
_atom_site_fract_z
_atom_type_partial_charge
C1    C     C_R   0.619577 0.099878 0.570768 0.548291
C2    C     C_1   0.638978 0.722973 0.661918 0.005178
C3    C     C_3   0.068956 0.193149 0.735885 0.104140
C4    C     C_R   0.598546 0.781481 0.569529 0.540869
C5    C     C_3   0.125288 0.093113 0.772006 0.235997
C6    C     C_1   0.096721 0.201444 0.901967 0.027352
C7    C     C_1   0.234699 0.135359 0.617915 0.031803
C8    C     C_3   0.096599 0.264944 0.771463 0.261798
C9    C     C_3   0.150990 0.165629 0.807736 0.068211
C10   C     C_3   0.213322 0.221699 0.747779 0.209134
C11   C     C_3   0.187619 0.149236 0.712372 -0.004458
C12   C     C_1   0.625153 0.742396 0.618879 0.013516
C13   C     C_3   0.269897 0.121563 0.783860 -0.156014
C14   C     C_3   0.243725 0.047147 0.747819 -0.129558
C15   C     C_1   0.125488 0.181028 0.859946 0.051759
C16   C     C_R   0.278529 0.121372 0.569681 0.545298
C17   C     C_1   0.209984 0.142498 0.660212 0.027955
C18   C     C_3   0.649213 0.249041 0.741167 -0.059884
C19   C     C_3   0.559264 0.258319 0.778521 -0.089964
C20   C     C_1   0.687627 0.204294 0.904376 0.011317
C21   C     C_1   0.632119 0.125893 0.620279 0.013949
C22   C     C_3   0.746471 0.162341 0.774174 -0.058562
C23   C     C_3   0.694638 0.589853 0.774626 0.113488
C24   C     C_3   0.656393 0.171758 0.810940 0.044390
C25   C     C_3   0.741887 0.062448 0.748557 -0.102176
C26   C     C_3   0.644912 0.149467 0.716217 0.042179
C27   C     C_3   0.652169 0.071576 0.786122 -0.124962
C28   C     C_R   0.621956 0.099566 0.431165 0.549003
C29   C     C_3   0.554831 0.157985 0.752786 -0.113939
C30   C     C_1   0.669025 0.188204 0.862956 -0.025387
C31   C     C_1   0.638895 0.138856 0.663338 -0.021953
C32   C     C_R   0.744467 0.692311 0.362028 0.224918
C33   C     C_R   0.752628 0.680970 0.311227 0.063726
C34   C     C_3   0.665945 0.688283 0.811106 0.016797
C35   C     C_R   0.766259 0.662167 0.208840 0.018636
C36   C     C_R   0.851394 0.669127 0.235855 -0.156111
C37   C     C_R   0.845097 0.677318 0.286350 -0.106723
C38   C     C_R   0.775783 0.642290 0.157963 0.230757
C39   C     C_R   0.686921 0.636631 0.133053 0.039384
C40   C     C_R   0.603536 0.773376 0.431153 0.541264
C41   C     C_R   0.564250 0.691670 0.359102 -0.148839
C42   C     C_R   0.570910 0.680310 0.308851 0.004062
C43   C     C_R   0.664461 0.677825 0.284583 0.003137
C44   C     C_R   0.482308 0.679049 0.282058 0.103451
C45   C     C_3   0.584406 0.668278 0.746791 0.273841
C46   C     C_R   0.485558 0.679307 0.231626 -0.080858
C47   C     C_R   0.578969 0.674090 0.207412 -0.028785
C48   C     C_R   0.669956 0.671590 0.233587 0.023240
C49   C     C_R   0.585448 0.663395 0.157334 -0.174336
C50   C     C_R   0.643324 0.709576 0.385119 -0.022033
C51   C     C_R   0.197985 0.065552 0.360882 -0.130854
C52   C     C_R   0.276691 0.121545 0.431424 0.547947
C53   C     C_R   0.166152 0.081538 0.311852 -0.038092
C54   C     C_R   0.124181 0.104699 0.210971 0.004741
C55   C     C_R   0.130021 0.010347 0.236184 0.245565
C56   C     C_3   0.649570 0.709453 0.715029 0.029666
C57   C     C_R   0.153810 0.998834 0.285976 -0.056580
C58   C     C_R   0.108255 0.117492 0.160404 -0.130226
C59   C     C_R   0.097319 0.214808 0.137361 -0.007281
C60   C     C_R   0.184114 0.251950 0.363170 -0.120421
C61   C     C_R   0.158155 0.266384 0.314076 0.018761
C62   C     C_R   0.151441 0.179747 0.287875 0.047834
C63   C     C_R   0.146046 0.363026 0.290334 -0.116955
C64   C     C_3   0.761443 0.631223 0.742728 -0.107783
C65   C     C_R   0.131756 0.371945 0.240282 -0.114722
C66   C     C_R   0.126865 0.285542 0.213751 0.012508
C67   C     C_3   0.556321 0.764758 0.783020 0.239152
C68   C     C_R   0.133689 0.190006 0.237516 0.027998
C69   C     C_R   0.111583 0.295611 0.163907 -0.123300
C70   C     C_R   0.212705 0.148304 0.385815 0.000098
C71   C     C_R   0.557312 0.233948 0.361509 -0.129530
C72   C     C_R   0.562681 0.250964 0.311724 -0.039252
C73   C     C_R   0.573885 0.282685 0.210932 0.005232
C74   C     C_R   0.483672 0.368494 0.239671 0.250690
C75   C     C_R   0.477858 0.349607 0.289266 -0.055348
C76   C     C_3   0.732645 0.729940 0.779773 -0.165100
C77   C     C_R   0.587566 0.296229 0.161021 -0.132015
C78   C     C_3   0.620299 0.808893 0.751321 -0.112034
C79   C     C_R   0.679764 0.209713 0.135019 -0.006599
C80   C     C_R   0.733857 0.051737 0.355708 -0.118022
C81   C     C_R   0.737728 0.065385 0.306017 0.016993
C82   C     C_R   0.652121 0.165709 0.283752 0.047142
C83   C     C_R   0.823208 0.977520 0.278071 -0.110870
C84   C     C_R   0.824351 0.988852 0.228080 -0.114462
C85   C     C_R   0.742391 0.089742 0.205849 0.011400
C86   C     C_R   0.655649 0.179542 0.233463 0.028224
C87   C     C_R   0.750458 0.103925 0.156685 -0.123492
C88   C     C_1   0.690192 0.625073 0.903839 0.023957
C89   C     C_1   0.677065 0.662273 0.863194 -0.000593
C90   C     C_R   0.641335 0.132964 0.383300 0.000272
C91   C     C_R   0.048816 0.236552 0.949730 0.547540
C92   C     C_R   0.710222 0.566137 0.949134 0.554976
C93   C     C_R   0.721642 0.225182 0.951152 0.553755
C94   C     C_R   0.046989 0.245791 0.088849 0.541719
C95   C     C_R   0.708001 0.575349 0.086423 0.565504
C96   C     C_R   0.718325 0.233361 0.089112 0.544401
Cr1   Cr    Cr6+3 0.417550 0.169090 0.500530 1.045752
Cr2   Cr    Cr6+3 0.669180 0.913420 0.499920 1.054061
Cr3   Cr    Cr6+3 0.413260 0.917540 0.499520 1.048276
Cr4   Cr    Cr6+3 0.909170 0.177380 0.020380 1.041668
Cr5   Cr    Cr6+3 0.912710 0.429210 0.018220 1.079638
Cr6   Cr    Cr6+3 0.657170 0.432570 0.019030 1.035666
H1    H     H_    0.793599 0.755873 0.793854 0.133860
H2    H     H_    0.923437 0.668850 0.218603 0.125333
H3    H     H_    0.912683 0.681916 0.305762 0.171654
H4    H     H_    0.515739 0.662405 0.137991 0.141437
H5    H     H_    0.416225 0.680205 0.211276 0.162328
H6    H     H_    0.490516 0.699051 0.377765 0.181083
H7    H     H_    0.100507 0.054826 0.138563 0.133920
H8    H     H_    0.217987 0.986267 0.378564 0.141242
H9    H     H_    0.588097 0.899376 0.741379 0.118623
H10   H     H_    0.160401 0.925708 0.304729 0.172530
H11   H     H_    0.103545 0.370814 0.146309 0.138959
H12   H     H_    0.351770 0.093727 0.803280 0.144428
H13   H     H_    0.124589 0.446364 0.222303 0.125991
H14   H     H_    0.151163 0.429944 0.310246 0.128133
H15   H     H_    0.192385 0.317799 0.382495 0.139170
H16   H     H_    0.531872 0.374376 0.142163 0.124441
H17   H     H_    0.485248 0.296598 0.382711 0.132242
H18   H     H_    0.407451 0.413980 0.310622 0.165343
H19   H     H_    0.819509 0.035123 0.136284 0.138483
H20   H     H_    0.891019 0.919788 0.206921 0.134416
H21   H     H_    0.888196 0.899498 0.294790 0.130716
H22   H     H_    0.798717 0.973013 0.372065 0.157090
H23   H     H_    0.483950 0.338818 0.791311 0.129039
H24   H     H_    0.302020 0.957173 0.736697 0.188768
H25   H     H_    0.266784 0.325087 0.764398 0.327292
H26   H     H_    0.015884 0.423620 0.755471 0.341638
H27   H     H_    0.940033 0.576690 0.152438 0.311242
H28   H     H_    0.834669 0.661165 0.420575 0.334531
H29   H     H_    0.057044 0.962664 0.187970 0.313381
H30   H     H_    0.428003 0.494143 0.193984 0.317178
H31   H     H_    0.430544 0.782012 0.821694 0.332948
H32   H     H_    0.481547 0.611425 0.757763 0.327679
H33   H     H_    0.071560 0.989786 0.755680 0.333701
H34   H     H_    0.647486 0.321668 0.721819 0.181251
H35   H     H_    0.477079 0.154039 0.743108 0.158151
H36   H     H_    0.653041 0.999151 0.805290 0.119153
H37   H     H_    0.817154 0.982032 0.735663 0.128053
H38   H     H_    0.826514 0.162212 0.783695 0.196769
H39   H     H_    0.845300 0.576329 0.724989 0.147330
I1    I     I_    0.340053 0.676816 0.314147 -0.419464
I2    I     I_    0.749339 0.421383 0.799701 -0.360317
I3    I     I_    0.921358 0.241444 0.691663 -0.382732
O1    O     O_R   0.301710 0.195650 0.554160 -0.495555
O2    O     O_R   0.635520 0.542770 0.964420 -0.502783
O3    O     O_R   0.665950 0.325030 0.970100 -0.490220
O4    O     O_R   0.522390 0.158990 0.550460 -0.490326
O5    O     O_R   0.816620 0.158530 0.074540 -0.522228
O6    O     O_R   0.004460 0.188870 0.069750 -0.506127
O7    O     O_R   0.025800 0.341780 0.072300 -0.506335
O8    O     O_R   0.807650 0.528950 0.067500 -0.439914
O9    O     O_R   0.633420 0.550490 0.071810 -0.539327
O10   O     O_R   0.664000 0.332180 0.069640 -0.502588
O11   O     O_3   0.826350 0.346390 0.019210 -0.258757
O12   O     O_R   0.658900 0.818120 0.449760 -0.477028
O13   O     O_R   0.694390 0.003530 0.554040 -0.504743
O14   O     O_R   0.657700 0.819660 0.549320 -0.502518
O15   O     O_R   0.501930 0.803280 0.552920 -0.494542
O16   O     O_R   0.318170 0.023580 0.549580 -0.497899
O17   O     O_R   0.303010 0.193990 0.446760 -0.520415
O18   O     O_R   0.523600 0.157450 0.450900 -0.501747
O19   O     O_R   0.695690 0.001860 0.446640 -0.501790
O20   O     O_3   0.257003 0.291730 0.733761 -0.696613
O21   O     O_3   0.022479 0.378587 0.784758 -0.660494
O22   O     O_3   0.871663 0.623012 0.132233 -0.681365
O23   O     O_R   0.503220 0.801620 0.445520 -0.516625
O24   O     O_3   0.833187 0.691215 0.387666 -0.706318
O25   O     O_3   0.114607 0.927043 0.213999 -0.692703
O26   O     O_3   0.397906 0.470223 0.221338 -0.682874
O27   O     O_3   0.449623 0.834577 0.804505 -0.706333
O28   O     O_3   0.506796 0.636793 0.728981 -0.667491
O29   O     O_3   0.079275 0.025167 0.786119 -0.675068
O30   O     O_R   0.319370 0.022040 0.450020 -0.496315
O31   O     O_3   0.499990 0.000010 0.499990 -0.258928
O32   O     O_R   0.818720 0.150820 0.967160 -0.497655
O33   O     O_R   0.006410 0.181720 0.970200 -0.489289
O34   O     O_R   0.027890 0.334070 0.964920 -0.498679
O35   O     O_R   0.809600 0.521790 0.967960 -0.487325

loop_
_geom_bond_atom_site_label_1
_geom_bond_atom_site_label_2
_ccdc_geom_bond_type
C66   C68   A    
C20   C93   S    
C63   C65   A    
Cr1   O1    S    
C1    C21   S    
H25   O20   S    
Cr1   O31   S    
C41   H6    S    
Cr3   O15   S    
C27   C29   S    
C58   H7    S    
C41   C42   A    
C35   C36   A    
C18   C26   S    
C24   C27   S    
C9    C15   S    
C2    C12   T    
C66   C69   A    
C79   C87   A    
C81   C82   A    
C28   O18   A    
C47   C49   A    
C20   C30   T    
C85   C86   A    
C37   H3    S    
C21   C31   T    
C69   H11   S    
C42   C44   A    
H27   O22   S    
C83   C84   A    
C23   C45   S    
H33   O29   S    
C36   C37   A    
C25   H37   S    
C76   C78   S    
C80   H22   S    
C38   C39   A    
C11   C14   S    
C4    O15   A    
C54   C68   A    
C64   H39   S    
C35   C48   A    
C84   H20   S    
C6    C91   S    
C91   O34   A    
C22   H38   S    
C56   C78   S    
C18   C19   S    
C73   C74   A    
C61   C63   A    
C9    C13   S    
C40   O23   A    
Cr5   O34   S    
C6    C15   T    
C54   C55   A    
C73   C77   A    
C96   O10   A    
Cr2   O14   S    
C45   C56   S    
C8    C9    S    
C7    C17   T    
C22   C25   S    
C45   C67   S    
C56   C64   S    
C18   H34   S    
C78   H9    S    
C59   C94   S    
C4    C12   S    
C43   C48   A    
Cr6   O10   S    
C13   H12   S    
Cr2   O12   S    
C52   O17   A    
C76   H1    S    
C85   C87   A    
C26   C31   S    
H32   O28   S    
C13   C14   S    
C65   H13   S    
C23   I2    S    
C67   C78   S    
H30   O26   S    
C72   C75   A    
Cr4   O33   S    
C81   C83   A    
C44   C46   A    
Cr2   O19   S    
Cr3   O30   S    
Cr3   O23   S    
C77   C79   A    
C4    O14   A    
C27   H36   S    
C74   C75   A    
C75   H18   S    
C92   O2    A    
C33   C43   A    
C88   C92   S    
C35   C38   A    
C3    C11   S    
C84   C85   A    
C3    C8    S    
C8    O21   S    
C87   H19   S    
C53   C57   A    
Cr4   O6    S    
C25   C26   S    
C82   C86   A    
Cr5   O7    S    
C33   C37   A    
C60   C61   A    
C95   O9    A    
C5    C9    S    
Cr5   O35   S    
C92   O35   A    
Cr6   O3    S    
C53   C62   A    
C40   O12   A    
C47   C48   A    
Cr2   O13   S    
C60   C70   A    
C23   C34   S    
C39   C95   S    
C46   H5    S    
C64   C76   S    
C60   H15   S    
C88   C89   T    
Cr6   O9    S    
C32   C50   A    
C5    C14   S    
C59   C69   A    
C63   H14   S    
Cr4   O11   S    
C44   I1    S    
C23   C64   S    
C51   C70   A    
C77   H16   S    
C51   H8    S    
Cr1   O17   S    
C55   C57   A    
H26   O21   S    
C72   C82   A    
Cr1   O4    S    
C22   C24   S    
C58   C59   A    
C94   O6    A    
C42   C43   A    
C19   C29   S    
C45   O28   S    
C52   O30   A    
C41   C50   A    
C54   C58   A    
C38   O22   S    
C46   C47   A    
H29   O25   S    
C10   O20   S    
Cr5   O8    S    
C39   C49   A    
C18   C22   S    
C5    O29   S    
C7    C16   S    
C3    I3    S    
C80   C81   A    
C3    C5    S    
C10   C13   S    
C11   C17   S    
C34   C67   S    
C49   H4    S    
C71   H17   S    
Cr4   O5    S    
C25   C27   S    
C29   H35   S    
C93   O32   A    
C14   H24   S    
C62   C68   A    
C36   H2    S    
C67   O27   S    
C32   C33   A    
C1    O13   A    
C19   C24   S    
C94   O7    A    
C34   C89   S    
C71   C72   A    
C2    C56   S    
Cr6   O2    S    
Cr2   O31   S    
C71   C90   A    
C40   C50   S    
C96   O5    A    
C91   O33   A    
Cr4   O32   S    
C19   H23   S    
C93   O3    A    
C65   C66   A    
C80   C90   A    
C61   C62   A    
C24   C30   S    
C73   C86   A    
C74   O26   S    
C52   C70   S    
C10   C11   S    
H31   O27   S    
C57   H10   S    
H28   O24   S    
C79   C96   S    
Cr3   O31   S    
C16   O16   A    
C26   C29   S    
C8    C10   S    
Cr1   O18   S    
C32   O24   S    
Cr5   O11   S    
C16   O1    A    
C1    O4    A    
C28   C90   S    
C95   O8    A    
C51   C53   A    
Cr3   O16   S    
Cr6   O11   S    
C55   O25   S    
C83   H21   S    
C28   O19   A    
C34   C76   S    
