data_mof_unit_46327.cif
_audit_creation_date              2012-12-11T15:48:55-0500
_audit_creation_method            fapswitch 2.2
_symmetry_space_group_name_H-M    P1
_symmetry_Int_Tables_number       1
_space_group_crystal_system       triclinic
_cell_length_a                    10.95115
_cell_length_b                    11.074599
_cell_length_c                    18.774984
_cell_angle_alpha                 90.20297
_cell_angle_beta                  89.6545
_cell_angle_gamma                 59.942573
_cell_volume                      1970.72469249

loop_
_atom_site_label
_atom_site_type_symbol
_atom_type_description
_atom_site_fract_x
_atom_site_fract_y
_atom_site_fract_z
_atom_type_partial_charge
C1    C     C_R   0.235129 0.646952 0.608844 0.538968
C2    C     C_R   0.584732 0.123577 0.703963 -0.185494
C3    C     C_R   0.594367 0.117925 0.776680 -0.199163
C4    C     C_R   0.650720 0.619520 0.602488 0.545461
C5    C     C_3   0.918494 0.141200 0.773763 -0.279431
C6    C     C_3   0.903068 0.164406 0.694319 -0.273297
C7    C     C_R   0.684745 0.136937 0.664114 0.014666
C8    C     C_R   0.156854 0.680354 0.830016 0.006706
C9    C     C_R   0.147481 0.576908 0.791572 0.021753
C10   C     C_R   0.159412 0.570695 0.717808 0.002669
C11   C     C_R   0.162549 0.785928 0.718339 -0.163050
C12   C     C_3   0.656261 0.554780 0.803380 -0.117651
C13   C     C_R   0.158317 0.786932 0.791909 -0.179311
C14   C     C_3   0.233870 0.422314 0.798049 -0.294403
C15   C     C_3   0.248817 0.415960 0.717610 -0.270525
C16   C     C_R   0.631812 0.222063 0.600215 0.538969
C17   C     C_R   0.174407 0.671510 0.680147 0.014700
C18   C     C_R   0.650757 0.659211 0.165180 0.014878
C19   C     C_R   0.746087 0.536911 0.201321 0.030264
C20   C     C_R   0.742735 0.530508 0.274090 0.038135
C21   C     C_R   0.532266 0.754870 0.278672 -0.162030
C22   C     C_R   0.534635 0.762247 0.203820 -0.172687
C23   C     C_3   0.689537 0.674609 0.814326 0.057971
C24   C     C_3   0.904929 0.453234 0.201132 -0.265538
C25   C     C_3   0.898948 0.449430 0.281301 -0.280376
C26   C     C_R   0.644161 0.642532 0.314619 0.019550
C27   C     C_R   0.633186 0.190822 0.168068 0.016526
C28   C     C_R   0.221274 0.648999 0.402075 0.553506
C29   C     C_R   0.515984 0.208196 0.206889 0.017460
C30   C     C_R   0.513576 0.219591 0.279712 0.034790
C31   C     C_R   0.729585 0.225885 0.276567 -0.154454
C32   C     C_R   0.730672 0.217822 0.202264 -0.155770
C33   C     C_3   0.447703 0.120194 0.210067 -0.271183
C34   C     C_3   0.661092 0.646278 0.678517 0.038013
C35   C     C_3   0.444370 0.134391 0.290227 -0.278518
C36   C     C_R   0.626864 0.214024 0.316138 0.022311
C37   C     C_R   0.115877 0.691381 0.188834 0.024744
C38   C     C_R   0.068920 0.810408 0.231655 0.048190
C39   C     C_R   0.082777 0.801676 0.304034 0.015195
C40   C     C_R   0.639827 0.619716 0.390647 0.548044
C41   C     C_R   0.172359 0.553315 0.295029 -0.164187
C42   C     C_R   0.158415 0.563191 0.221230 -0.180459
C43   C     C_3   0.101568 0.925885 0.226887 -0.264161
C44   C     C_3   0.112923 0.919708 0.307008 -0.274179
C45   C     C_3   0.815515 0.602742 0.694499 -0.256519
C46   C     C_R   0.147658 0.671043 0.335951 0.018636
C47   C     C_R   0.726268 0.048994 0.888159 0.547835
C48   C     C_R   0.722143 0.688562 0.888859 0.530924
C49   C     C_R   0.113242 0.708764 0.904299 0.527883
C50   C     C_R   0.672036 0.111871 0.102116 0.547544
C51   C     C_R   0.694473 0.688757 0.096769 0.543462
C52   C     C_R   0.612545 0.238088 0.392233 0.547403
C53   C     C_R   0.087960 0.712712 0.113915 0.544992
C54   C     C_3   0.568445 0.816959 0.782795 -0.096838
C55   C     C_3   0.565490 0.802225 0.700274 -0.232611
C56   C     C_3   0.611507 0.560055 0.724589 -0.205867
C57   C     C_3   0.827440 0.636196 0.771791 -0.252756
C58   C     C_3   0.419459 0.873690 0.818869 -0.259926
C59   C     C_3   0.348059 0.026076 0.844460 -0.329478
C60   C     C_3   0.234109 0.062657 0.901518 -0.442357
C61   C     C_3   0.549202 0.554043 0.858469 -0.286563
C62   C     C_3   0.582821 0.408757 0.881431 -0.306233
C63   C     C_3   0.492155 0.418075 0.945965 -0.428347
C64   C     C_R   0.718947 0.087039 0.812141 -0.003149
C65   C     C_R   0.834118 0.068156 0.769668 0.028981
C66   C     C_R   0.814598 0.097959 0.696516 0.023897
Cr1   Cr    Cr6+3 0.392960 0.397920 0.502240 1.003053
Cr2   Cr    Cr6+3 0.398340 0.708480 0.501250 0.999075
Cr3   Cr    Cr6+3 0.708670 0.393570 0.496460 1.002883
Cr4   Cr    Cr6+3 0.937650 0.938540 0.007610 0.993907
Cr5   Cr    Cr6+3 0.625330 0.937370 0.994520 0.971195
Cr6   Cr    Cr6+3 0.937940 0.625230 0.001190 0.992746
H1    H     H_    0.602388 0.893470 0.792544 0.155106
H2    H     H_    0.002758 0.099758 0.664115 0.127578
H3    H     H_    0.171608 0.868220 0.692477 0.134393
H4    H     H_    0.158238 0.870673 0.820062 0.134442
H5    H     H_    0.171078 0.375824 0.818257 0.133741
H6    H     H_    0.334537 0.387899 0.826074 0.136786
H7    H     H_    0.357656 0.382672 0.699445 0.170979
H8    H     H_    0.196749 0.363848 0.691183 0.128732
H9    H     H_    0.447130 0.839046 0.308257 0.120503
H10   H     H_    0.452845 0.852930 0.177167 0.114255
H11   H     H_    0.954859 0.513036 0.182522 0.178833
H12   H     H_    0.652325 0.453256 0.703909 0.114754
H13   H     H_    0.946495 0.348945 0.175735 0.120864
H14   H     H_    0.939178 0.342923 0.302510 0.130288
H15   H     H_    0.456044 0.843632 0.680952 0.137156
H16   H     H_    0.940719 0.510632 0.308177 0.145228
H17   H     H_    0.811378 0.235640 0.302967 0.127719
H18   H     H_    0.815534 0.217772 0.172497 0.118265
H19   H     H_    0.520433 0.012130 0.191739 0.170260
H20   H     H_    0.341143 0.172285 0.185799 0.126854
H21   H     H_    0.335787 0.196388 0.312488 0.132934
H22   H     H_    0.513453 0.034395 0.317824 0.139698
H23   H     H_    0.919844 0.542678 0.794355 0.147192
H24   H     H_    0.217227 0.450913 0.318516 0.143207
H25   H     H_    0.187560 0.470412 0.189687 0.120911
H26   H     H_    0.011847 0.023970 0.207409 0.142988
H27   H     H_    0.605613 0.865411 0.673857 0.113734
H28   H     H_    0.203740 0.893341 0.199366 0.137029
H29   H     H_    0.220480 0.890166 0.324610 0.162267
H30   H     H_    0.026940 0.013316 0.334183 0.129544
H31   H     H_    0.849332 0.724140 0.774358 0.125434
H32   H     H_    0.852686 0.658461 0.659060 0.126463
H33   H     H_    0.757654 0.457322 0.810492 0.134900
H34   H     H_    0.885366 0.488692 0.685072 0.135216
H35   H     H_    0.494790 0.609955 0.720731 0.128955
H36   H     H_    0.150435 0.042783 0.883533 0.157969
H37   H     H_    0.281593 0.000627 0.950351 0.154315
H38   H     H_    0.184974 0.175000 0.915695 0.132653
H39   H     H_    0.426963 0.041434 0.871953 0.217258
H40   H     H_    0.304217 0.097892 0.798498 0.142276
H41   H     H_    0.348789 0.862250 0.781718 0.132418
H42   H     H_    0.426948 0.814456 0.866857 0.169685
H43   H     H_    0.513951 0.468032 0.991795 0.147689
H44   H     H_    0.378521 0.479701 0.933088 0.149843
H45   H     H_    0.486262 0.141596 0.681364 0.139165
H46   H     H_    0.516403 0.312913 0.962762 0.196708
H47   H     H_    0.561652 0.358033 0.836180 0.172932
H48   H     H_    0.695290 0.345834 0.896849 0.178538
H49   H     H_    0.549461 0.607797 0.908291 0.157410
H50   H     H_    0.440501 0.609459 0.837271 0.149985
H51   H     H_    0.499976 0.141234 0.804692 0.133855
H52   H     H_    0.029716 0.075372 0.787007 0.125171
H53   H     H_    0.865538 0.236843 0.806285 0.118717
H54   H     H_    0.848153 0.274999 0.679046 0.153459
O1    O     O_R   0.507380 0.255700 0.581440 -0.535437
O2    O     O_R   0.837170 0.593410 0.915250 -0.528637
O3    O     O_R   0.065200 0.635530 0.931570 -0.502566
O4    O     O_R   0.280320 0.527350 0.578930 -0.503908
O5    O     O_R   0.068260 0.828890 0.091840 -0.520946
O6    O     O_R   0.798870 0.057410 0.079340 -0.502198
O7    O     O_R   0.584930 0.080350 0.076780 -0.526250
O8    O     O_R   0.626960 0.809650 0.067060 -0.507170
O9    O     O_R   0.816040 0.596610 0.076510 -0.524552
O10   O     O_R   0.045610 0.638500 0.081060 -0.512894
O11   O     O_3   0.833640 0.833710 0.001100 -0.254744
O12   O     O_R   0.524480 0.695810 0.424040 -0.507391
O13   O     O_R   0.260510 0.739590 0.584590 -0.533248
O14   O     O_R   0.532300 0.695080 0.573820 -0.509945
O15   O     O_R   0.744840 0.503500 0.576370 -0.531441
O16   O     O_R   0.699120 0.276560 0.571960 -0.507693
O17   O     O_R   0.498940 0.256500 0.419860 -0.520023
O18   O     O_R   0.272500 0.528080 0.429150 -0.511537
O19   O     O_R   0.252060 0.740380 0.423010 -0.525128
O20   O     O_R   0.736390 0.504290 0.414790 -0.519374
O21   O     O_R   0.691300 0.277290 0.422170 -0.511692
O22   O     O_3   0.499990 0.499990 0.499980 -0.251018
O23   O     O_R   0.089400 0.825690 0.930570 -0.535627
O24   O     O_R   0.818460 0.054440 0.929850 -0.501109
O25   O     O_R   0.606060 0.077150 0.915510 -0.565347
O26   O     O_R   0.646550 0.806680 0.917570 -0.528756

loop_
_geom_bond_atom_site_label_1
_geom_bond_atom_site_label_2
_ccdc_geom_bond_type
C21   C26   A    
C34   C56   S    
C8    C13   A    
C27   C29   A    
C41   C42   A    
Cr2   O12   S    
C2    C7    A    
Cr4   O24   S    
C43   H26   S    
C43   C44   S    
Cr1   O17   S    
Cr5   O8    S    
Cr6   O3    S    
Cr5   O11   S    
C3    C64   A    
Cr4   O23   S    
C12   C23   S    
C45   C57   S    
C28   O19   A    
C62   C63   S    
C30   C35   S    
Cr6   O2    S    
C22   H10   S    
C24   H11   S    
C10   C15   S    
C33   H19   S    
C12   H33   S    
C51   O8    A    
Cr6   O10   S    
C41   H24   S    
C48   O2    A    
C20   C25   S    
C10   C17   A    
Cr3   O15   S    
C29   C33   S    
C61   H49   S    
C18   C19   A    
C14   H5    S    
C37   C42   A    
C25   H14   S    
C60   H37   S    
C51   O9    A    
C32   H18   S    
Cr5   O26   S    
C8    C9    A    
C31   H17   S    
C40   O12   A    
C58   H41   S    
C59   H39   S    
C41   C46   A    
C13   H4    S    
C6    H2    S    
C28   O18   A    
C29   C30   A    
C24   H13   S    
C31   C36   A    
C62   H48   S    
C60   H36   S    
C27   C50   S    
C63   H43   S    
C59   C60   S    
C21   C22   A    
Cr3   O20   S    
C53   O10   A    
C30   C36   A    
Cr1   O18   S    
C9    C10   A    
C2    H45   S    
C3    H51   S    
C18   C51   S    
C56   H12   S    
C35   H21   S    
C38   C39   A    
C57   H31   S    
C4    C34   S    
C52   O17   A    
C60   H38   S    
C43   H28   S    
C6    H54   S    
C5    C65   S    
C1    O4    A    
C42   H25   S    
C47   C64   S    
C63   H46   S    
C44   H30   S    
Cr6   O9    S    
C58   C59   S    
C49   O3    A    
C25   H16   S    
C61   H50   S    
C16   O16   A    
C9    C14   S    
C56   H35   S    
C37   C38   A    
C45   H32   S    
Cr1   O1    S    
C4    O14   A    
C54   H1    S    
C15   H8    S    
C5    H52   S    
C47   O24   A    
C28   C46   S    
Cr4   O6    S    
C59   H40   S    
C34   C55   S    
C34   C45   S    
C24   C25   S    
C62   H47   S    
C12   C56   S    
C50   O6    A    
C49   O23   A    
C39   C46   A    
C53   O5    A    
C63   H44   S    
Cr6   O11   S    
C47   O25   A    
C52   O21   A    
C48   O26   A    
Cr3   O21   S    
C33   H20   S    
Cr1   O4    S    
C5    H53   S    
C4    O15   A    
Cr5   O25   S    
C45   H34   S    
C23   C54   S    
C1    O13   A    
C54   C58   S    
C35   H22   S    
C23   C57   S    
C54   C55   S    
C7    C16   S    
C23   C48   S    
C27   C32   A    
C18   C22   A    
C11   C17   A    
C31   C32   A    
C21   H9    S    
C50   O7    A    
Cr2   O22   S    
Cr5   O7    S    
C44   H29   S    
C39   C44   S    
C15   H7    S    
C36   C52   S    
C1    C17   S    
C40   O20   A    
C64   C65   A    
C19   C20   A    
C2    C3    A    
Cr3   O16   S    
C37   C53   S    
C38   C43   S    
C11   H3    S    
C7    C66   A    
C12   C61   S    
C11   C13   A    
C26   C40   S    
C5    C6    S    
C20   C26   A    
Cr4   O5    S    
C33   C35   S    
C19   C24   S    
C14   H6    S    
C55   H15   S    
C61   C62   S    
C16   O1    A    
Cr2   O14   S    
C6    C66   S    
Cr4   O11   S    
C65   C66   A    
C57   H23   S    
C55   H27   S    
Cr1   O22   S    
C58   H42   S    
Cr3   O22   S    
C14   C15   S    
Cr2   O13   S    
C8    C49   S    
Cr2   O19   S    
