data_mof_unit_35826.cif
_audit_creation_date              2012-12-11T17:23:14-0500
_audit_creation_method            fapswitch 2.2
_symmetry_space_group_name_H-M    P1
_symmetry_Int_Tables_number       1
_space_group_crystal_system       triclinic
_cell_length_a                    22.361901
_cell_length_b                    7.089996
_cell_length_c                    19.621249
_cell_angle_alpha                 89.998904
_cell_angle_beta                  98.996752
_cell_angle_gamma                 89.999818
_cell_volume                      3072.59405094

loop_
_atom_site_label
_atom_site_type_symbol
_atom_type_description
_atom_site_fract_x
_atom_site_fract_y
_atom_site_fract_z
_atom_type_partial_charge
O1    O     O_R   0.443980 0.494320 0.557430 -0.536769
O2    O     O_R   0.556020 0.994320 0.442570 -0.536768
O3    O     O_R   0.441210 0.822520 0.414610 -0.538536
O4    O     O_R   0.558790 0.322520 0.585390 -0.538534
C1    C     C_R   0.426497 0.655325 0.389672 0.692014
C2    C     C_R   0.573502 0.155321 0.610328 0.692015
O5    O     O_R   0.436920 0.823940 0.555180 -0.535806
O6    O     O_R   0.563080 0.323940 0.444820 -0.535806
O7    O     O_R   0.551700 0.995760 0.584140 -0.535921
O8    O     O_R   0.448300 0.495760 0.415860 -0.535919
C3    C     C_R   0.421554 0.655396 0.574809 0.719996
C4    C     C_R   0.578445 0.155397 0.425191 0.719994
O9    O     O_3   0.537660 0.661290 0.509340 -0.372282
O10   O     O_3   0.462340 0.161290 0.490660 -0.372283
V1    V     V_3+5 0.493010 0.935560 0.498270 1.432384
V2    V     V_3+5 0.506990 0.435560 0.501730 1.432386
C5    C     C_R   0.755154 0.941360 0.211160 -0.128360
C6    C     C_R   0.244845 0.441359 0.788841 -0.128363
C7    C     C_R   0.795016 0.091999 0.206577 0.074101
C8    C     C_R   0.204984 0.592002 0.793423 0.074095
C9    C     C_R   0.790489 0.253869 0.246440 -0.121834
C10   C     C_R   0.209512 0.753874 0.753559 -0.121831
C11   C     C_R   0.746850 0.265139 0.290478 -0.091851
C12   C     C_R   0.253151 0.765141 0.709521 -0.091853
C13   C     C_R   0.706683 0.115187 0.295456 0.046909
C14   C     C_R   0.293317 0.615185 0.704544 0.046908
C15   C     C_R   0.710785 0.950746 0.255208 -0.010310
C16   C     C_R   0.289214 0.450743 0.744794 -0.010311
C17   C     C_1   0.840516 0.080167 0.161046 -0.018898
C18   C     C_1   0.159484 0.580172 0.838955 -0.018901
C19   C     C_1   0.661782 0.133245 0.341814 -0.062226
C20   C     C_1   0.338218 0.633241 0.658186 -0.062230
C21   C     C_1   0.624061 0.145436 0.380072 -0.180390
C22   C     C_1   0.375940 0.645432 0.619928 -0.180391
C23   C     C_1   0.878501 0.070782 0.123058 -0.097286
C24   C     C_1   0.121499 0.570786 0.876942 -0.097283
C25   C     C_R   0.626103 0.182319 0.800140 -0.098411
C26   C     C_R   0.373892 0.682465 0.199863 -0.098418
C27   C     C_R   0.613861 0.148979 0.676951 -0.036048
C28   C     C_R   0.386139 0.648998 0.323049 -0.036051
C29   C     C_R   0.907697 0.034004 0.762367 0.005271
C30   C     C_R   0.092309 0.533918 0.237629 0.005283
C31   C     C_R   0.869528 0.024989 0.699316 -0.204983
C32   C     C_R   0.130479 0.524860 0.300679 -0.204979
C33   C     C_R   0.807875 0.055197 0.694194 -0.140034
C34   C     C_R   0.192130 0.555102 0.305802 -0.140035
C35   C     C_R   0.780409 0.097569 0.752405 0.084919
C36   C     C_R   0.219593 0.597545 0.247593 0.084921
C37   C     C_R   0.818151 0.104748 0.818870 -0.022863
C38   C     C_R   0.181849 0.604759 0.181130 -0.022873
C39   C     C_R   0.716166 0.128819 0.745755 0.063402
C40   C     C_R   0.283834 0.628830 0.254245 0.063405
C41   C     C_R   0.689771 0.165967 0.805762 0.078249
C42   C     C_R   0.310225 0.666062 0.194240 0.078245
C43   C     C_R   0.726668 0.181857 0.870607 -0.070650
C44   C     C_R   0.273326 0.681981 0.129397 -0.070644
C45   C     C_R   0.789546 0.147175 0.877362 -0.094239
C46   C     C_R   0.210451 0.647247 0.122640 -0.094239
C47   C     C_R   0.676626 0.124525 0.681020 -0.202745
C48   C     C_R   0.323375 0.624493 0.318978 -0.202745
C49   C     C_R   0.589007 0.175230 0.736705 -0.167519
C50   C     C_R   0.410989 0.675341 0.263296 -0.167511
C51   C     C_R   0.882947 0.071208 0.823453 -0.112477
C52   C     C_R   0.117055 0.571189 0.176546 -0.112473
O11   O     O_R   0.051730 0.724670 0.084120 -0.522011
O12   O     O_R   0.948270 0.224670 0.915880 -0.522015
O13   O     O_R   0.063080 0.393540 0.944820 -0.540817
O14   O     O_R   0.936920 0.893540 0.055180 -0.540822
C53   C     C_R   0.076106 0.561569 0.922373 0.719410
C54   C     C_R   0.923895 0.061567 0.077627 0.719409
O15   O     O_R   0.058800 0.395030 0.085390 -0.547557
O16   O     O_R   0.941200 0.895030 0.914610 -0.547546
O17   O     O_R   0.943980 0.223310 0.057440 -0.506146
O18   O     O_R   0.056020 0.723310 0.942560 -0.506135
C55   C     C_R   0.074281 0.563891 0.110057 0.752494
C56   C     C_R   0.925719 0.063895 0.889943 0.752529
O19   O     O_3   0.962360 0.556290 0.990650 -0.361580
O20   O     O_3   0.037640 0.056290 0.009350 -0.361568
V3    V     V_3+5 0.006980 0.281990 0.001730 1.595246
V4    V     V_3+5 0.993020 0.781990 0.998270 1.595255
C57   C     C_2   0.669223 0.788666 0.258611 0.364724
H1    H     H_    0.635838 0.791599 0.293185 0.055729
O21   O     O_2   0.671617 0.649262 0.222576 -0.520280
C58   C     C_2   0.330776 0.288659 0.741392 0.364723
H2    H     H_    0.364160 0.291590 0.706818 0.055729
O22   O     O_2   0.328381 0.149253 0.777428 -0.520281
H3    H     H_    0.783003 0.043026 0.642883 0.111156
H4    H     H_    0.217003 0.542900 0.357111 0.111156
H5    H     H_    0.887820 0.994616 0.652476 0.109954
H6    H     H_    0.112189 0.494435 0.347517 0.109958
C59   C     C_2   0.823513 0.154428 0.947588 0.338633
H7    H     H_    0.840276 0.024093 0.971954 0.008882
O23   O     O_2   0.830485 0.304023 0.978668 -0.510273
C60   C     C_2   0.176484 0.654494 0.052413 0.338660
H8    H     H_    0.159721 0.524157 0.028052 0.008871
O24   O     O_2   0.169511 0.804084 0.021329 -0.510276
H9    H     H_    0.758823 0.816352 0.180276 0.167564
H10   H     H_    0.241176 0.316350 0.819727 0.167567
H11   H     H_    0.820804 0.371806 0.243562 0.133636
H12   H     H_    0.179198 0.871813 0.756436 0.133635
H13   H     H_    0.744402 0.391825 0.320806 0.132498
H14   H     H_    0.255601 0.891828 0.679193 0.132495
H15   H     H_    0.540523 0.191923 0.734197 0.118548
H16   H     H_    0.459472 0.692080 0.265805 0.118547
C61   C     C_2   0.699989 0.234270 0.933217 0.448372
H17   H     H_    0.710796 0.152222 0.980244 0.061613
O25   O     O_2   0.668564 0.375019 0.933602 -0.511197
C62   C     C_2   0.300001 0.734467 0.066791 0.448376
H18   H     H_    0.289201 0.652445 0.019758 0.061635
O26   O     O_2   0.331414 0.875246 0.066416 -0.511206
H19   H     H_    0.603715 0.199229 0.844712 0.162774
H20   H     H_    0.396278 0.699442 0.155293 0.162773
H21   H     H_    0.692648 0.105687 0.632544 0.088230
H22   H     H_    0.307356 0.605588 0.367453 0.088233
C63   C     C_2   0.973435 0.002104 0.760485 0.316790
H23   H     H_    0.987451 0.944819 0.714137 0.048097
O27   O     O_2   0.012732 0.043171 0.808631 -0.531351
C64   C     C_2   0.026572 0.501986 0.239509 0.316804
H24   H     H_    0.012560 0.444557 0.285837 0.048092
O28   O     O_2   0.987272 0.543200 0.191384 -0.531355

loop_
_geom_bond_atom_site_label_1
_geom_bond_atom_site_label_2
_ccdc_geom_bond_type
O14   V4    S    
C14   C20   S    
C37   C51   A    
C16   C58   S    
C38   C52   A    
C41   C43   A    
C48   H22   S    
O1    C3    A    
O16   C56   A    
O2    C4    A    
C2    O7    A    
O15   V3    S    
C57   H1    S    
C37   C45   A    
C35   C37   A    
C8    C18   S    
O5    C3    A    
O12   V3    S    
C61   O25   D    
C31   H5    S    
C43   C61   S    
C28   C48   A    
C7    C9    A    
C58   O22   D    
C9    H11   S    
O20   V4    S    
C51   C56   S    
C63   H23   S    
C28   C50   A    
C62   H18   S    
C33   C35   A    
C64   H24   S    
C44   C62   S    
C40   C48   A    
C23   C54   S    
C32   C34   A    
C63   O27   D    
C19   C21   T    
C44   C46   A    
C50   H16   S    
C47   H21   S    
C25   C41   A    
O5    V1    S    
O12   C56   A    
O6    V2    S    
O11   V4    S    
O18   V4    S    
C29   C31   A    
C30   C32   A    
C29   C63   S    
C57   O21   D    
C40   C42   A    
C34   H4    S    
O19   V3    S    
C27   C49   A    
C42   C44   A    
C10   H12   S    
C38   C46   A    
C15   C57   S    
C6    C16   A    
C58   H2    S    
O4    C2    A    
C59   H7    S    
O20   V3    S    
C30   C64   S    
C35   C39   A    
O13   C53   A    
C5    C15   A    
O4    V2    S    
C59   O23   D    
C12   H14   S    
C26   C42   A    
O6    C4    A    
C27   C47   A    
C54   O17   A    
O17   V3    S    
O13   V3    S    
C53   O18   A    
O1    V2    S    
C60   O24   D    
O2    V1    S    
C31   C33   A    
C8    C10   A    
C43   C45   A    
C10   C12   A    
C1    C28   S    
C39   C47   A    
C29   C51   A    
C49   H15   S    
C26   H20   S    
C7    C17   S    
C30   C52   A    
C32   H6    S    
C24   C53   S    
O19   V4    S    
C45   C59   S    
C33   H3    S    
O10   V1    S    
C13   C19   S    
C3    C22   S    
C12   C14   A    
O3    C1    A    
C25   C49   A    
C13   C15   A    
C61   H17   S    
C17   C23   T    
C14   C16   A    
O11   C55   A    
C18   C24   T    
C9    C11   A    
C46   C60   S    
C1    O8    A    
O16   V4    S    
O8    V2    S    
O15   C55   A    
C11   H13   S    
C36   C38   A    
C5    C7    A    
C52   C55   S    
C62   O26   D    
C6    C8    A    
C11   C13   A    
O7    V1    S    
C60   H8    S    
C64   O28   D    
C25   H19   S    
C34   C36   A    
C36   C40   A    
O14   C54   A    
O9    V2    S    
C2    C27   S    
O3    V1    S    
C6    H10   S    
C39   C41   A    
C4    C21   S    
C5    H9    S    
C20   C22   T    
C26   C50   A    
