data_mof_unit_62023.cif
_audit_creation_date              2012-12-11T17:24:20-0500
_audit_creation_method            fapswitch 2.2
_symmetry_space_group_name_H-M    P1
_symmetry_Int_Tables_number       1
_space_group_crystal_system       triclinic
_cell_length_a                    19.835329
_cell_length_b                    19.804035
_cell_length_c                    19.832338
_cell_angle_alpha                 110.659626
_cell_angle_beta                  107.253057
_cell_angle_gamma                 110.41353
_cell_volume                      5998.70826788

loop_
_atom_site_label
_atom_site_type_symbol
_atom_type_description
_atom_site_fract_x
_atom_site_fract_y
_atom_site_fract_z
_atom_type_partial_charge
C1    C     C_R   0.998670 0.728008 0.069394 -0.133155
C2    C     C_3   0.521711 0.504614 0.974848 -0.222781
C3    C     C_3   0.523402 0.565584 0.901941 0.270609
C4    C     C_3   0.434048 0.433937 0.908829 0.269088
C5    C     C_1   0.683038 0.499871 0.940915 -0.024129
C6    C     C_1   0.290678 0.500170 0.931216 -0.022136
C7    C     C_3   0.457449 0.428253 0.840252 -0.217221
C8    C     C_3   0.499722 0.570782 0.970302 -0.225141
C9    C     C_3   0.544772 0.499601 0.906503 0.088632
C10   C     C_3   0.412216 0.499678 0.904272 0.088788
C11   C     C_1   0.620186 0.499715 0.919914 0.025501
C12   C     C_R   0.041554 0.304556 0.970398 -0.122532
C13   C     C_1   0.343338 0.500073 0.914146 0.017864
C14   C     C_R   0.528031 0.881564 0.452181 -0.161204
C15   C     C_R   0.523537 0.951461 0.599422 -0.160858
C16   C     C_R   0.841831 0.272440 0.771810 -0.129040
C17   C     C_R   0.165225 0.696238 0.235724 -0.124731
C18   C     C_R   0.454333 0.850418 0.454720 0.162247
C19   C     C_R   0.595600 0.987086 0.595227 0.161833
C20   C     C_R   0.452639 0.882884 0.528909 -0.158207
C21   C     C_R   0.598929 0.950158 0.522695 -0.154836
C22   C     C_1   0.379200 0.798857 0.379853 -0.053802
C23   C     C_R   0.768659 0.227114 0.768042 0.106935
C24   C     C_1   0.659673 0.069640 0.658904 -0.051681
C25   C     C_1   0.710352 0.141198 0.709495 -0.026933
C26   C     C_1   0.316510 0.761435 0.317216 -0.024304
C27   C     C_R   0.927460 0.575697 0.547567 -0.248215
C28   C     C_R   0.849863 0.424736 0.399985 -0.249681
C29   C     C_R   0.893554 0.499281 0.544803 0.038406
C30   C     C_R   0.890710 0.501110 0.404629 0.038450
C31   C     C_R   0.851142 0.423390 0.470098 0.230478
C32   C     C_R   0.926316 0.577044 0.477499 0.229670
C33   C     C_1   0.917717 0.499780 0.620209 0.035140
C34   C     C_R   0.242658 0.720619 0.243165 0.093727
C35   C     C_1   0.909732 0.500375 0.340638 0.033468
C36   C     C_1   0.931009 0.499985 0.290112 -0.015951
C37   C     C_1   0.943586 0.500063 0.683033 -0.008063
C38   C     C_R   0.074259 0.121324 0.150514 -0.161814
C39   C     C_R   0.152056 0.051510 0.076724 -0.161466
C40   C     C_R   0.030202 0.570149 0.834379 -0.129249
C41   C     C_R   0.931237 0.430407 0.158689 -0.144686
C42   C     C_R   0.108560 0.152978 0.108530 0.159919
C43   C     C_R   0.111335 0.015207 0.112254 0.161984
C44   C     C_R   0.150659 0.120660 0.074849 -0.154294
C45   C     C_R   0.977323 0.500079 0.756959 0.085771
C46   C     C_R   0.075646 0.052169 0.152378 -0.157752
C47   C     C_1   0.084769 0.204112 0.084201 -0.050879
C48   C     C_1   0.091263 0.931950 0.092492 -0.053135
C49   C     C_1   0.069200 0.859896 0.070530 -0.029407
C50   C     C_1   0.058889 0.240814 0.058024 -0.021255
C51   C     C_R   0.763926 0.429898 0.957715 -0.122220
C52   C     C_R   0.228398 0.569678 0.999690 -0.145225
C53   C     C_R   0.960691 0.429968 0.764308 -0.108687
C54   C     C_R   0.000302 0.569510 0.228217 -0.123993
C55   C     C_R   0.833488 0.570092 0.027706 -0.113389
C56   C     C_R   0.958967 0.499941 0.231966 0.096632
C57   C     C_R   0.159314 0.430426 0.930061 -0.122717
C58   C     C_R   0.772118 0.272339 0.841275 -0.140448
C59   C     C_R   0.235549 0.696124 0.165755 -0.125052
C60   C     C_R   0.068244 0.727878 0.999810 -0.137359
C61   C     C_R   0.971077 0.304410 0.040193 -0.125228
C62   C     C_R   0.040582 0.773491 0.041811 0.107101
C63   C     C_R   0.024728 0.280528 0.023731 0.092829
C64   C     C_R   0.756887 0.499971 0.972752 0.087558
C65   C     C_R   0.231564 0.500094 0.957054 0.104315
C66   C     C_3   0.434361 0.494624 0.835349 -0.216208
H1    H     H_    0.981741 0.751657 0.115869 0.103989
H2    H     H_    0.520523 0.980600 0.655246 0.129686
H3    H     H_    0.960467 0.634179 0.605443 0.165348
H4    H     H_    0.822621 0.366217 0.343651 0.164733
H5    H     H_    0.043140 0.023531 0.179004 0.129910
H6    H     H_    0.176242 0.144261 0.041260 0.136911
H7    H     H_    0.040582 0.145441 0.175612 0.129096
H8    H     H_    0.178820 0.022359 0.044676 0.130504
H9    H     H_    0.864536 0.248927 0.731035 0.105705
H10   H     H_    0.149385 0.705672 0.284576 0.111426
H11   H     H_    0.054929 0.634815 0.850200 0.108110
H12   H     H_    0.081628 0.295704 0.945850 0.114090
H13   H     H_    0.885220 0.367005 0.135991 0.103157
H14   H     H_    0.715259 0.365286 0.918030 0.109238
H15   H     H_    0.268980 0.633244 0.017336 0.103045
H16   H     H_    0.921313 0.365330 0.715447 0.120826
H17   H     H_    0.017258 0.632911 0.268919 0.117521
H18   H     H_    0.848975 0.634707 0.052491 0.113322
H19   H     H_    0.136865 0.366901 0.884157 0.111709
H20   H     H_    0.731391 0.248735 0.863849 0.102521
H21   H     H_    0.284432 0.705345 0.150053 0.106597
H22   H     H_    0.114601 0.751421 0.982875 0.101244
H23   H     H_    0.397329 0.490912 0.778404 0.158565
H24   H     H_    0.946181 0.295306 0.079917 0.106878
H25   H     H_    0.558013 0.508413 0.032204 0.159171
H26   H     H_    0.516230 0.629305 0.023591 0.156559
H27   H     H_    0.441396 0.369841 0.787190 0.158677
H28   H     H_    0.654388 0.978278 0.519005 0.132096
H29   H     H_    0.395414 0.859657 0.530809 0.132094
H30   H     H_    0.529278 0.857299 0.394565 0.128985
I1    I     I_    0.988209 0.694826 0.487886 -0.407160
I2    I     I_    0.797648 0.305567 0.462012 -0.409428
I3    I     I_    0.596157 0.670180 0.896436 -0.398000
I4    I     I_    0.363519 0.328543 0.914883 -0.416384
N1    N     N_R   0.999080 0.655880 0.043180 -0.043054
N2    N     N_R   0.999370 0.542940 0.155540 -0.045141
N3    N     N_R   0.886170 0.542970 0.043180 -0.045814
N4    N     N_R   0.113830 0.457030 0.956820 -0.045308
N5    N     N_R   0.844420 0.344140 0.887390 -0.041800
N6    N     N_R   0.155580 0.655860 0.112610 -0.043853
N7    N     N_R   0.042380 0.655890 0.000250 -0.041664
N8    N     N_R   0.957620 0.344110 0.999750 -0.043707
N9    N     N_R   0.000920 0.344120 0.956820 -0.045498
N10   N     N_R   0.887710 0.344150 0.844460 -0.043943
N11   N     N_R   0.112290 0.655850 0.155540 -0.044857
N12   N     N_R   0.043250 0.542980 0.887390 -0.043261
N13   N     N_R   0.956750 0.457020 0.112610 -0.041195
N14   N     N_R   0.843540 0.457050 0.000250 -0.044164
N15   N     N_R   0.156460 0.542950 0.999750 -0.041372
N16   N     N_R   0.000630 0.457060 0.844460 -0.047498
Ni1   Ni    Ni4+2 0.999230 0.598520 0.098470 0.219971
Ni2   Ni    Ni4+2 0.000770 0.401480 0.901530 0.218607
Ni3   Ni    Ni4+2 0.098520 0.598520 0.000000 0.217073
Ni4   Ni    Ni4+2 0.901480 0.401480 0.000000 0.217861

loop_
_geom_bond_atom_site_label_1
_geom_bond_atom_site_label_2
_ccdc_geom_bond_type
N1    N7    A    
C23   C58   A    
N5    N10   A    
C55   N3    A    
N6    Ni3   S    
C27   C29   A    
C16   H9    S    
C14   C18   A    
C35   C36   T    
C1    C62   A    
N10   Ni2   S    
C60   H22   S    
C16   N10   A    
C40   N12   A    
C32   I1    S    
C15   C19   A    
C30   C35   S    
C3    C9    S    
C14   C21   A    
C19   C21   A    
C38   C42   A    
C39   H8    S    
C21   H28   S    
N13   Ni4   S    
C29   C33   S    
N8    N9    A    
C60   C62   A    
C31   I2    S    
N7    Ni3   S    
C61   C63   A    
C61   N8    A    
N8    Ni4   S    
C51   H14   S    
C12   N9    A    
C26   C34   S    
C6    C65   S    
C57   H19   S    
C12   H12   S    
C17   H10   S    
N5    Ni4   S    
C8    H26   S    
C66   H23   S    
C43   C48   S    
C27   H3    S    
C53   N16   A    
C45   C53   A    
C50   C63   S    
N3    Ni1   S    
C42   C44   A    
C4    C7    S    
C7    H27   S    
C58   H20   S    
C14   H30   S    
C54   H17   S    
N9    Ni2   S    
C47   C50   T    
N4    Ni2   S    
N6    N11   A    
C10   C66   S    
C15   C20   A    
C17   N11   A    
C54   C56   A    
C51   N14   A    
C59   N6    A    
N3    N14   A    
C24   C25   T    
C3    C8    S    
C41   N13   A    
C12   C63   A    
C39   C43   A    
C33   C37   T    
C5    C64   S    
C53   H16   S    
C2    C4    S    
C41   C56   A    
C36   C56   S    
N4    N15   A    
C52   H15   S    
C55   C64   A    
C9    C11   S    
C46   H5    S    
C60   N7    A    
N2    Ni1   S    
C48   C49   T    
C20   H29   S    
C16   C23   A    
N15   Ni3   S    
C4    I4    S    
C34   C59   A    
C3    C66   S    
C17   C34   A    
C4    C10   S    
C1    N1    A    
N12   N16   A    
C61   H24   S    
C52   N15   A    
C7    C9    S    
C57   N4    A    
C49   C62   S    
C27   C32   A    
C18   C22   S    
C54   N2    A    
C28   C31   A    
C28   H4    S    
C51   C64   A    
C57   C65   A    
C10   C13   S    
C41   H13   S    
N12   Ni3   S    
C5    C11   T    
C39   C44   A    
N11   Ni1   S    
C58   N5    A    
N1    Ni1   S    
C28   C30   A    
C19   C24   S    
C29   C31   A    
N2    N13   A    
C6    C13   T    
C30   C32   A    
C15   H2    S    
C1    H1    S    
N16   Ni2   S    
C44   H6    S    
C18   C20   A    
C42   C47   S    
C23   C25   S    
C2    H25   S    
C43   C46   A    
C59   H21   S    
C38   C46   A    
C3    I3    S    
C40   C45   A    
C8    C10   S    
C22   C26   T    
C2    C8    S    
C40   H11   S    
C55   H18   S    
C2    C9    S    
C37   C45   S    
N14   Ni4   S    
C52   C65   A    
C7    C66   S    
C38   H7    S    
