data_mof_unit_39455.cif
_audit_creation_date              2012-12-10T16:55:04-0500
_audit_creation_method            fapswitch 2.2
_symmetry_space_group_name_H-M    P1
_symmetry_Int_Tables_number       1
_space_group_crystal_system       triclinic
_cell_length_a                    9.802256
_cell_length_b                    10.913225
_cell_length_c                    15.508884
_cell_angle_alpha                 87.495528
_cell_angle_beta                  71.735857
_cell_angle_gamma                 89.565804
_cell_volume                      1573.93326629

loop_
_atom_site_label
_atom_site_type_symbol
_atom_type_description
_atom_site_fract_x
_atom_site_fract_y
_atom_site_fract_z
_atom_type_partial_charge
C1    C     C_R   0.999475 0.265558 0.501840 0.862249
C2    C     C_R   0.669615 0.609049 0.898507 0.087015
C3    C     C_R   0.769092 0.638959 0.943910 0.075752
C4    C     C_R   0.520210 0.615621 0.944096 0.034770
C5    C     C_R   0.472973 0.611416 0.040196 -0.005596
C6    C     C_R   0.571398 0.645769 0.084754 -0.198240
C7    C     C_R   0.717266 0.667099 0.036857 -0.031742
C8    C     C_R   0.415771 0.621333 0.898042 0.072896
C9    C     C_R   0.277261 0.578188 0.943728 -0.259716
C10   C     C_R   0.233162 0.553327 0.037470 0.124584
C11   C     C_R   0.328783 0.574660 0.087537 0.097517
C12   C     C_R   0.915222 0.509686 0.671767 0.801069
C13   C     C_R   0.092015 0.513217 0.082225 -0.191572
C14   C     C_R   0.043434 0.495625 0.176495 -0.134283
C15   C     C_R   0.278549 0.552407 0.182484 -0.239030
C16   C     C_2   0.884226 0.933223 0.507737 -0.147540
C17   C     C_2   0.003775 0.866809 0.495077 -0.303180
C18   C     C_2   0.886365 0.067591 0.503531 -0.167736
C19   C     C_2   0.999170 0.133030 0.507756 -0.301008
C20   C     C_2   0.405121 0.411599 0.537131 0.043492
C21   C     C_2   0.552507 0.422019 0.550003 0.095368
C22   C     C_R   0.000189 0.734388 0.499039 0.840035
C23   C     C_R   0.085412 0.502304 0.327369 0.793923
C24   C     C_R   0.867462 0.548091 0.766843 -0.049017
C25   C     C_R   0.136295 0.515192 0.227278 -0.064283
C26   C     C_R   0.917079 0.633699 0.895861 -0.223322
C27   C     C_R   0.965709 0.588218 0.808667 -0.157510
C28   C     C_R   0.720951 0.559609 0.812194 -0.265660
Cu1   Cu    Cu3+1 0.138640 0.500020 0.499980 0.970598
Cu2   Cu    Cu3+1 0.861360 0.499980 0.500020 0.940443
H1    H     H_    0.018342 0.497149 0.044357 0.140887
H2    H     H_    0.780921 0.888419 0.519733 0.167109
H3    H     H_    0.108998 0.908398 0.479793 0.146259
H4    H     H_    0.790602 0.113265 0.497703 0.162027
H5    H     H_    0.093489 0.090697 0.517861 0.151201
H6    H     H_    0.401651 0.580431 0.483487 0.182412
H7    H     H_    0.629512 0.550961 0.450633 0.190806
H8    H     H_    0.348611 0.562556 0.223120 0.155208
H9    H     H_    0.933253 0.466728 0.209599 0.171152
H10   H     H_    0.202662 0.568838 0.905897 0.142117
H11   H     H_    0.996465 0.661943 0.925536 0.105972
H12   H     H_    0.080246 0.585219 0.773960 0.154682
H13   H     H_    0.646298 0.526959 0.780420 0.168343
H14   H     H_    0.535497 0.661847 0.156450 0.181912
N1    N     N_2   0.346430 0.498660 0.500980 -0.310552
N2    N     N_2   0.652550 0.498630 0.501000 -0.296860
O1    O     O_R   0.117050 0.321960 0.499980 -0.548386
O2    O     O_R   0.882890 0.321920 0.500020 -0.603209
O3    O     O_R   0.052910 0.500040 0.629810 -0.528157
O4    O     O_R   0.818750 0.499990 0.629840 -0.599871
O5    O     O_R   0.117110 0.678080 0.499980 -0.589014
O6    O     O_R   0.882950 0.678040 0.500020 -0.568527
O7    O     O_R   0.181250 0.500010 0.370160 -0.579900
O8    O     O_R   0.947090 0.499960 0.370190 -0.565676
C29   C     C_2   0.812563 0.713451 0.086708 0.339407
H15   H     H_    0.916230 0.754259 0.050805 0.072148
O9    O     O_2   0.774946 0.708580 0.169695 -0.551326
C30   C     C_2   0.325729 0.295684 0.570834 0.459787
H16   H     H_    0.369791 0.210102 0.541191 0.007299
O10   O     O_2   0.215240 0.293867 0.635196 -0.551629
C31   C     C_3   0.581197 0.330411 0.620263 -0.329879
C32   C     C_3   0.482928 0.348620 0.717793 -0.394335
C33   C     C_3   0.532832 0.273166 0.787546 -0.842685
H17   H     H_    0.528162 0.173772 0.775887 0.258783
H18   H     H_    0.644548 0.298315 0.782916 0.254894
H19   H     H_    0.461499 0.291066 0.857077 0.255310
H20   H     H_    0.481329 0.446371 0.732538 0.215945
H21   H     H_    0.371071 0.321153 0.726869 0.258744
H22   H     H_    0.568358 0.235289 0.601171 0.140923
H23   H     H_    0.690346 0.334191 0.622503 0.271176
C34   C     C_3   0.440061 0.693043 0.807963 -0.425540
C35   C     C_3   0.351377 0.811395 0.821264 -0.326693
C36   C     C_3   0.380402 0.886809 0.731984 -0.847618
H24   H     H_    0.495615 0.913639 0.704838 0.249429
H25   H     H_    0.351348 0.833042 0.681011 0.255234
H26   H     H_    0.314692 0.971450 0.743744 0.252121
H27   H     H_    0.234796 0.789032 0.847667 0.216596
H28   H     H_    0.379208 0.867797 0.871457 0.227140
H29   H     H_    0.554033 0.720887 0.776760 0.214627
H30   H     H_    0.408525 0.636379 0.759648 0.189932

loop_
_geom_bond_atom_site_label_1
_geom_bond_atom_site_label_2
_ccdc_geom_bond_type
C31   H23   S    
C8    C9    A    
C29   H15   S    
C33   H18   S    
C36   H24   S    
C24   C27   A    
C7    C29   S    
C4    C8    A    
C34   H29   S    
C12   O3    A    
Cu1   O3    S    
Cu2   O8    S    
C26   C27   A    
Cu1   Cu2   S    
C32   H20   S    
Cu1   O1    S    
Cu2   O2    S    
C5    C11   A    
C3    C7    A    
C5    C6    A    
C15   C25   A    
C30   O10   D    
C18   C19   D    
C35   H28   S    
C35   H27   S    
C14   H9    S    
C11   C15   A    
C16   C17   D    
C9    C10   A    
C21   C31   S    
C20   N1    D    
Cu2   O4    S    
C33   H19   S    
C6    H14   S    
C13   C14   A    
C36   H25   S    
C17   H3    S    
C34   H30   S    
C13   H1    S    
C23   O7    A    
C1    C19   S    
C4    C5    A    
C30   H16   S    
C9    H10   S    
Cu1   N1    S    
C2    C4    A    
C15   H8    S    
C32   C33   S    
H6    N1    S    
C18   H4    S    
C29   O9    D    
C36   H26   S    
C20   C30   S    
C23   O8    A    
C22   O6    A    
C21   N2    D    
Cu1   O5    S    
C31   H22   S    
Cu2   O6    S    
C8    C34   S    
Cu2   N2    S    
C3    C26   A    
C1    O1    A    
C24   C28   A    
C35   C36   S    
C10   C13   A    
C12   O4    A    
C1    O2    A    
C6    C7    A    
C16   H2    S    
C12   C24   S    
C28   H13   S    
C17   C22   S    
C32   H21   S    
C2    C3    A    
C34   C35   S    
C19   H5    S    
C27   H12   S    
Cu1   O7    S    
C23   C25   S    
C14   C25   A    
C31   C32   S    
C10   C11   A    
C33   H17   S    
C20   C21   S    
C16   C18   S    
C2    C28   A    
H7    N2    S    
C26   H11   S    
C22   O5    A    
