data_mof_unit_45583.cif
_audit_creation_date              2012-12-10T16:44:43-0500
_audit_creation_method            fapswitch 2.2
_symmetry_space_group_name_H-M    P1
_symmetry_Int_Tables_number       1
_space_group_crystal_system       triclinic
_cell_length_a                    14.958641
_cell_length_b                    8.670722
_cell_length_c                    7.530475
_cell_angle_alpha                 103.22095
_cell_angle_beta                  94.793837
_cell_angle_gamma                 93.705462
_cell_volume                      943.96874053

loop_
_atom_site_label
_atom_site_type_symbol
_atom_type_description
_atom_site_fract_x
_atom_site_fract_y
_atom_site_fract_z
_atom_type_partial_charge
C1    C     C_R   0.497194 0.199854 0.453062 0.886289
C2    C     C_R   0.502806 0.800146 0.546938 0.886289
C3    C     C_R   0.028927 0.208295 0.418597 -0.165473
C4    C     C_R   0.971073 0.791705 0.581403 -0.165473
C5    C     C_2   0.495344 0.031383 0.427324 -0.286013
C6    C     C_2   0.504656 0.968617 0.572676 -0.286013
C7    C     C_R   0.329320 0.498184 0.501077 0.853362
C8    C     C_R   0.670680 0.501816 0.498923 0.853362
C9    C     C_R   0.820388 0.650611 0.539105 0.207776
C10   C     C_R   0.179612 0.349389 0.460895 0.207776
C11   C     C_R   0.767015 0.505159 0.496598 -0.085045
C12   C     C_R   0.232985 0.494841 0.503402 -0.085045
C13   C     C_R   0.805037 0.360365 0.455058 -0.261192
C14   C     C_R   0.194963 0.639635 0.544942 -0.261192
C15   C     C_R   0.897826 0.357409 0.456612 0.119581
C16   C     C_R   0.102174 0.642591 0.543388 0.119581
C17   C     C_R   0.953040 0.501814 0.499151 0.035391
C18   C     C_R   0.046959 0.498186 0.500849 0.035391
C19   C     C_R   0.914457 0.649580 0.540114 0.059528
C20   C     C_R   0.085542 0.350420 0.459886 0.059528
C21   C     C_R   0.936051 0.211998 0.417007 -0.177059
C22   C     C_R   0.063948 0.788002 0.582993 -0.177059
Cu1   Cu    Cu3+1 0.510010 0.517380 0.684380 1.103078
Cu2   Cu    Cu3+1 0.489990 0.482620 0.315620 1.103078
H1    H     H_    0.761995 0.249907 0.423373 0.167183
H2    H     H_    0.238005 0.750093 0.576627 0.167183
H3    H     H_    0.055369 0.093139 0.386952 0.191310
H4    H     H_    0.944631 0.906861 0.613048 0.191310
H5    H     H_    0.486071 0.958773 0.287749 0.202014
H6    H     H_    0.513929 0.041226 0.712251 0.202014
N1    N     N_2   0.474890 0.456420 0.038520 0.051466
N2    N     N_2   0.525110 0.543580 0.961480 0.051466
O1    O     O_R   0.506510 0.286130 0.619770 -0.565855
O2    O     O_R   0.493490 0.713870 0.380230 -0.565855
O3    O     O_R   0.489600 0.256770 0.308360 -0.563664
O4    O     O_R   0.510400 0.743230 0.691640 -0.563664
O5    O     O_R   0.378710 0.514640 0.655720 -0.556526
O6    O     O_R   0.621290 0.485360 0.344280 -0.556526
O7    O     O_R   0.361800 0.485290 0.344300 -0.551069
O8    O     O_R   0.638200 0.514710 0.655700 -0.551069
Br1   Br    Br    0.763071 0.847471 0.594350 -0.521937
Br2   Br    Br    0.236929 0.152529 0.405650 -0.521937
H7    H     H_    0.893983 0.100680 0.384662 0.179473
H8    H     H_    0.106017 0.899319 0.615338 0.179473
Br3   Br    Br    0.384518 0.304149 0.902718 -0.322618
Br4   Br    Br    0.615482 0.695851 0.097282 -0.322618

loop_
_geom_bond_atom_site_label_1
_geom_bond_atom_site_label_2
_ccdc_geom_bond_type
Cu2   O6    S    
Cu1   Cu2   S    
C10   Br2   S    
C4    C22   A    
C9    Br1   S    
N1    N2    D    
C9    C11   A    
Cu1   N2    S    
C2    O2    A    
C3    H3    S    
C17   C18   A    
C7    O5    A    
Cu2   N1    S    
C1    O1    A    
C3    C20   A    
Cu1   O5    S    
C14   H2    S    
C11   C13   A    
C13   H1    S    
C2    C6    S    
C10   C12   A    
C8    O6    A    
C8    C11   S    
C1    C5    S    
C17   C19   A    
C12   C14   A    
C5    H5    S    
C13   C15   A    
C5    C6    D    
C14   C16   A    
C7    C12   S    
C3    C21   A    
Cu2   O3    S    
Cu1   O8    S    
C15   C21   A    
Cu2   O7    S    
C1    O3    A    
C18   C20   A    
C16   C18   A    
Cu1   O4    S    
N1    Br3   S    
C2    O4    A    
C15   C17   A    
C7    O7    A    
C16   C22   A    
C8    O8    A    
C4    H4    S    
C21   H7    S    
C4    C19   A    
N2    Br4   S    
C6    H6    S    
C22   H8    S    
C9    C19   A    
C10   C20   A    
Cu1   O1    S    
Cu2   O2    S    
