data_mof_unit_5344.cif
_audit_creation_date              2012-12-10T17:23:38-0500
_audit_creation_method            fapswitch 2.2
_symmetry_space_group_name_H-M    P1
_symmetry_Int_Tables_number       1
_space_group_crystal_system       triclinic
_cell_length_a                    10.139907
_cell_length_b                    10.761115
_cell_length_c                    15.731374
_cell_angle_alpha                 89.973242
_cell_angle_beta                  82.282865
_cell_angle_gamma                 95.308766
_cell_volume                      1693.56805468

loop_
_atom_site_label
_atom_site_type_symbol
_atom_type_description
_atom_site_fract_x
_atom_site_fract_y
_atom_site_fract_z
_atom_type_partial_charge
C1    C     C_R   0.555887 0.732763 0.491487 0.939730
C2    C     C_3   0.556519 0.397840 0.968798 -0.034775
C3    C     C_3   0.575715 0.604117 0.969045 -0.080570
C4    C     C_3   0.424254 0.395655 0.031019 -0.080589
C5    C     C_1   0.505850 0.501477 0.750116 -0.156539
C6    C     C_1   0.494131 0.498433 0.249910 -0.153183
C7    C     C_3   0.376428 0.499564 0.977581 -0.061897
C8    C     C_3   0.623538 0.500202 0.022481 -0.061848
C9    C     C_3   0.508700 0.501544 0.916116 0.074075
C10   C     C_3   0.491268 0.498231 0.083935 0.073893
C11   C     C_1   0.509108 0.502048 0.824994 0.014020
C12   C     C_R   0.443908 0.267234 0.502668 0.941333
C13   C     C_1   0.490863 0.497788 0.175042 0.013382
C14   C     C_2   0.587119 0.865025 0.476997 -0.369953
C15   C     C_2   0.411877 0.134925 0.494514 -0.370224
C16   C     C_R   0.665097 0.716507 0.930533 0.130170
C17   C     C_R   0.670654 0.831079 0.973578 -0.193106
C18   C     C_R   0.755155 0.933478 0.938196 -0.117042
C19   C     C_R   0.835297 0.922809 0.859660 -0.082596
C20   C     C_R   0.832354 0.809145 0.816927 -0.169127
C21   C     C_R   0.748884 0.706228 0.852503 -0.158785
C22   C     C_R   0.334915 0.283275 0.069599 0.130095
C23   C     C_2   0.487169 0.933438 0.467003 -0.136571
C24   C     C_R   0.329382 0.168657 0.026615 -0.193118
C25   C     C_R   0.245028 0.066231 0.062102 -0.116692
C26   C     C_R   0.165019 0.076915 0.140686 -0.083178
C27   C     C_R   0.167918 0.190631 0.183353 -0.168913
C28   C     C_R   0.251219 0.293578 0.147666 -0.158164
C29   C     C_2   0.380862 0.713700 0.069634 0.333686
C30   C     C_2   0.619118 0.286077 0.930425 0.333749
C31   C     C_R   0.755485 0.508181 0.058427 0.123990
C32   C     C_R   0.834577 0.407252 0.054702 -0.135440
C33   C     C_R   0.951547 0.414843 0.093035 -0.124776
C34   C     C_2   0.510461 0.066400 0.464631 -0.145125
C35   C     C_R   0.990959 0.522877 0.135736 -0.101024
C36   C     C_R   0.912865 0.623431 0.140457 -0.132067
C37   C     C_R   0.795333 0.615844 0.102656 -0.141734
C38   C     C_R   0.244434 0.491532 0.941701 0.124119
C39   C     C_R   0.165222 0.592379 0.945544 -0.135019
C40   C     C_R   0.048169 0.584720 0.907303 -0.124201
C41   C     C_R   0.008777 0.476694 0.864587 -0.100580
C42   C     C_R   0.086975 0.376209 0.859765 -0.132048
C43   C     C_R   0.204598 0.383868 0.897471 -0.141963
C44   C     C_2   0.927715 0.510339 0.507177 -0.120606
C45   C     C_2   0.072300 0.489695 0.492795 -0.123222
C46   C     C_R   0.501585 0.500377 0.661775 0.905272
C47   C     C_R   0.498412 0.499611 0.338228 0.896332
C48   C     C_3   0.443449 0.601929 0.031262 -0.034508
H1    H     H_    0.612321 0.107401 0.445398 0.186293
H2    H     H_    0.759360 0.020898 0.972115 0.123892
H3    H     H_    0.900740 0.002176 0.832433 0.129481
H4    H     H_    0.896066 0.800195 0.756699 0.130735
H5    H     H_    0.751621 0.618435 0.819356 0.140267
H6    H     H_    0.387372 0.158195 0.964739 0.130831
H7    H     H_    0.240840 0.978772 0.028230 0.123937
H8    H     H_    0.099704 0.997521 0.167999 0.129097
H9    H     H_    0.104303 0.199592 0.243619 0.130047
H10   H     H_    0.248444 0.381403 0.180769 0.140086
H11   H     H_    0.369296 0.791738 0.028561 0.050630
H12   H     H_    0.384701 0.892382 0.468272 0.191071
H13   H     H_    0.630628 0.208006 0.971484 0.050543
H14   H     H_    0.807295 0.321955 0.023159 0.113842
H15   H     H_    0.011858 0.336878 0.088852 0.152492
H16   H     H_    0.082023 0.528963 0.164893 0.151279
H17   H     H_    0.942778 0.706937 0.174027 0.138974
H18   H     H_    0.734058 0.693180 0.109460 0.136265
H19   H     H_    0.192464 0.677660 0.977117 0.113869
H20   H     H_    0.987766 0.662619 0.911585 0.152599
H21   H     H_    0.917638 0.470551 0.835511 0.151615
H22   H     H_    0.057064 0.292701 0.826198 0.139211
H23   H     H_    0.310368 0.093392 0.513911 0.149292
H24   H     H_    0.265937 0.306577 0.890610 0.136159
H25   H     H_    0.689249 0.906613 0.475961 0.149229
H26   H     H_    0.107415 0.421600 0.446270 0.159969
H27   H     H_    0.892609 0.578454 0.553687 0.159455
H28   H     H_    0.120837 0.614997 0.578366 0.161459
H29   H     H_    0.879149 0.384978 0.421647 0.159750
H30   H     H_    0.612590 0.841519 0.035432 0.130962
N1    N     N_2   0.842700 0.448880 0.465440 -0.192418
N2    N     N_2   0.157300 0.551120 0.534560 -0.193110
O1    O     O_R   0.431060 0.692470 0.506960 -0.609925
O2    O     O_2   0.656312 0.281498 0.853551 -0.576147
O3    O     O_R   0.568940 0.307530 0.493040 -0.608013
O4    O     O_R   0.651120 0.659650 0.484770 -0.614904
O5    O     O_R   0.348880 0.340350 0.515230 -0.614737
O6    O     O_R   0.389990 0.516420 0.634310 -0.605454
O7    O     O_R   0.610010 0.483580 0.365690 -0.609417
O8    O     O_R   0.610050 0.483600 0.612130 -0.602398
O9    O     O_R   0.389950 0.516400 0.387870 -0.606470
O10   O     O_2   0.343756 0.718332 0.146516 -0.577199
Zn1   Zn    Zn3+2 0.353060 0.521920 0.514810 0.950810
Zn2   Zn    Zn3+2 0.646940 0.478080 0.485190 0.951391

loop_
_geom_bond_atom_site_label_1
_geom_bond_atom_site_label_2
_ccdc_geom_bond_type
C16   C21   A    
C41   C42   A    
C35   C36   A    
O5    Zn1   S    
C1    O4    A    
O3    Zn2   S    
C26   C27   A    
C43   H24   S    
C12   O5    A    
C36   C37   A    
C5    C11   T    
O6    Zn1   S    
C38   C39   A    
C24   H6    S    
C3    C48   S    
C42   H22   S    
C18   C19   A    
C19   C20   A    
C16   C17   A    
C35   H16   S    
O9    Zn1   S    
C15   C34   D    
C22   C28   A    
O7    Zn2   S    
C47   O9    A    
C4    C7    S    
C29   O10   D    
C46   O8    A    
H29   N1    S    
C23   H12   S    
C6    C47   S    
C29   C48   S    
C14   H25   S    
H28   N2    S    
C24   C25   A    
C3    C8    S    
C27   H9    S    
C39   C40   A    
C36   H17   S    
C25   C26   A    
C31   C37   A    
C12   O3    A    
C45   H26   S    
C47   O7    A    
C14   C23   D    
C30   O2    D    
C44   H27   S    
C2    C4    S    
C3    C9    S    
C4    C22   S    
C31   C32   A    
C12   C15   S    
C33   H15   S    
C23   C34   S    
C37   H18   S    
C17   C18   A    
O8    Zn2   S    
C9    C11   S    
N1    Zn2   S    
C40   C41   A    
C10   C48   S    
C22   C24   A    
C42   C43   A    
C4    C10   S    
C44   C45   S    
C18   H2    S    
C41   H21   S    
C7    C9    S    
C34   H1    S    
C8    C31   S    
C39   H19   S    
C44   N1    D    
C2    C8    S    
C25   H7    S    
C10   C13   S    
C26   H8    S    
C28   H10   S    
C15   H23   S    
C5    C46   S    
C2    C30   S    
C7    C48   S    
N2    Zn1   S    
C32   H14   S    
C38   C43   A    
C20   H4    S    
C32   C33   A    
C6    C13   T    
C21   H5    S    
C17   H30   S    
C33   C35   A    
C7    C38   S    
C45   N2    D    
O1    Zn1   S    
C19   H3    S    
C20   C21   A    
C8    C10   S    
C40   H20   S    
C30   H13   S    
C27   C28   A    
C29   H11   S    
C1    C14   S    
O4    Zn2   S    
C2    C9    S    
C1    O1    A    
C3    C16   S    
C46   O6    A    
