data_mof_unit_51753.cif
_audit_creation_date              2012-12-10T17:08:14-0500
_audit_creation_method            fapswitch 2.2
_symmetry_space_group_name_H-M    P1
_symmetry_Int_Tables_number       1
_space_group_crystal_system       triclinic
_cell_length_a                    23.502333
_cell_length_b                    11.042241
_cell_length_c                    9.843715
_cell_angle_alpha                 111.370965
_cell_angle_beta                  98.786156
_cell_angle_gamma                 90.481045
_cell_volume                      2345.35241518

loop_
_atom_site_label
_atom_site_type_symbol
_atom_type_description
_atom_site_fract_x
_atom_site_fract_y
_atom_site_fract_z
_atom_type_partial_charge
C1    C     C_R   0.495870 0.253986 0.440453 0.854248
C2    C     C_R   0.710530 0.568882 0.624619 -0.232651
C3    C     C_R   0.229908 0.444647 0.366836 0.102735
C4    C     C_R   0.769970 0.570041 0.622544 0.103710
C5    C     C_R   0.208891 0.497848 0.502330 0.327066
C6    C     C_R   0.790169 0.497132 0.490091 0.328014
C7    C     C_2   0.493625 0.114481 0.406838 -0.323088
C8    C     C_2   0.506404 0.885521 0.593163 -0.323910
C9    C     C_2   0.501057 0.069610 0.516492 -0.140415
C10   C     C_2   0.499001 0.930393 0.483511 -0.140691
C11   C     C_2   0.504537 0.509977 0.081180 0.067089
C12   C     C_R   0.504139 0.746014 0.559547 0.854032
C13   C     C_2   0.495380 0.490219 0.918868 0.066643
C14   C     C_R   0.390936 0.499760 0.500575 0.807527
C15   C     C_R   0.608963 0.499823 0.499241 0.805635
C16   C     C_R   0.877877 0.587958 0.453312 0.505386
C17   C     C_R   0.120520 0.401904 0.529751 0.494127
C18   C     C_R   0.880870 0.401218 0.522008 0.511072
C19   C     C_R   0.118241 0.594977 0.473152 0.524104
C20   C     C_R   0.940625 0.399137 0.524170 -0.010946
C21   C     C_R   0.058227 0.594712 0.466520 -0.011856
C22   C     C_R   0.969205 0.495520 0.491841 -0.019079
C23   C     C_R   0.247902 0.551856 0.637306 0.121068
C24   C     C_R   0.029457 0.496650 0.495628 -0.020625
C25   C     C_R   0.937700 0.590907 0.456001 -0.014453
C26   C     C_R   0.060814 0.399928 0.528919 -0.013657
C27   C     C_R   0.972369 0.303767 0.558346 -0.172943
C28   C     C_R   0.026430 0.689566 0.431343 -0.171386
C29   C     C_R   0.031837 0.303855 0.560131 -0.174596
C30   C     C_R   0.966712 0.687187 0.425200 -0.179687
C31   C     C_3   0.227524 0.610884 0.784929 -0.399879
C32   C     C_3   0.238226 0.759673 0.848540 -0.350695
C33   C     C_3   0.216930 0.819173 0.996314 -0.803153
C34   C     C_R   0.750618 0.424739 0.361166 0.116685
C35   C     C_3   0.770175 0.340512 0.218725 -0.389172
C36   C     C_3   0.752309 0.392543 0.094771 -0.355958
C37   C     C_3   0.770982 0.304960 0.950986 -0.810151
C38   C     C_3   0.189933 0.381454 0.220007 -0.389010
C39   C     C_3   0.188871 0.464961 0.124649 -0.350195
C40   C     C_3   0.146793 0.403277 0.979509 -0.796985
C41   C     C_3   0.810706 0.650650 0.762519 -0.387269
C42   C     C_3   0.816061 0.584885 0.876285 -0.364057
C43   C     C_3   0.858722 0.662771 0.015488 -0.796895
C44   C     C_R   0.307333 0.550587 0.635217 -0.228982
C45   C     C_R   0.691432 0.427035 0.366232 -0.228451
C46   C     C_R   0.328397 0.499204 0.501444 -0.088813
C47   C     C_R   0.671226 0.498662 0.496876 -0.082964
C48   C     C_R   0.289535 0.446804 0.368132 -0.228822
Cl1   Cl    Cl    0.579060 0.671831 0.974139 -0.550531
Cl2   Cl    Cl    0.421353 0.327201 0.025621 -0.550387
Cu1   Cu    Cu3+1 0.509980 0.521810 0.644910 1.031935
Cu2   Cu    Cu3+1 0.490020 0.478190 0.355090 1.031468
H1    H     H_    0.951378 0.228666 0.583549 0.187288
H2    H     H_    0.508738 0.135808 0.631695 0.191498
H3    H     H_    0.514107 0.951973 0.708179 0.171310
H4    H     H_    0.485909 0.048028 0.291823 0.171224
H5    H     H_    0.462248 0.418303 0.843256 0.161593
H6    H     H_    0.537538 0.582200 0.156868 0.161800
H7    H     H_    0.169781 0.795885 0.981841 0.254299
H8    H     H_    0.239939 0.780935 0.077949 0.258660
H9    H     H_    0.225310 0.926784 0.040011 0.251223
H10   H     H_    0.285108 0.787285 0.865665 0.227330
H11   H     H_    0.215101 0.800584 0.769447 0.253792
H12   H     H_    0.047528 0.765561 0.407847 0.186825
H13   H     H_    0.180873 0.586519 0.775134 0.205506
H14   H     H_    0.250732 0.569210 0.863217 0.208552
H15   H     H_    0.818823 0.307266 0.964215 0.257717
H16   H     H_    0.753258 0.202992 0.918996 0.262550
H17   H     H_    0.754329 0.339469 0.860688 0.250916
H18   H     H_    0.704681 0.396780 0.074284 0.233696
H19   H     H_    0.772477 0.492712 0.128005 0.250894
H20   H     H_    0.817656 0.333984 0.233784 0.209086
H21   H     H_    0.750570 0.239695 0.184852 0.206884
H22   H     H_    0.160249 0.306087 0.913573 0.272477
H23   H     H_    0.055020 0.228792 0.586586 0.187559
H24   H     H_    0.102457 0.392433 0.001653 0.250473
H25   H     H_    0.146170 0.466473 0.913891 0.244131
H26   H     H_    0.175492 0.563615 0.185772 0.261220
H27   H     H_    0.232647 0.475800 0.099040 0.225665
H28   H     H_    0.204806 0.283916 0.159984 0.202710
H29   H     H_    0.145262 0.364426 0.236087 0.206401
H30   H     H_    0.902237 0.671481 0.987578 0.249171
H31   H     H_    0.843984 0.761717 0.068980 0.266683
H32   H     H_    0.861858 0.612167 0.095065 0.259528
H33   H     H_    0.773236 0.576068 0.907848 0.233869
H34   H     H_    0.943451 0.761474 0.397269 0.186995
H35   H     H_    0.831231 0.485658 0.827093 0.255862
H36   H     H_    0.854292 0.666447 0.739153 0.209681
H37   H     H_    0.794250 0.748835 0.810153 0.204840
H38   H     H_    0.337204 0.591107 0.738704 0.168496
H39   H     H_    0.660974 0.370252 0.268396 0.163633
H40   H     H_    0.305589 0.405021 0.264417 0.190295
H41   H     H_    0.694889 0.625031 0.725685 0.185320
H42   H     H_    0.491332 0.864196 0.368307 0.191309
N1    N     N_R   0.851020 0.494975 0.487608 -0.471226
N2    N     N_R   0.147828 0.498578 0.502385 -0.470930
N3    N     N_2   0.475010 0.445410 0.137370 -0.018982
N4    N     N_2   0.524990 0.554590 0.862630 -0.018695
O1    O     O_R   0.505330 0.332340 0.577400 -0.599408
O2    O     O_2   0.151193 0.308555 0.558113 -0.540956
O3    O     O_2   0.852688 0.310423 0.553684 -0.552956
O4    O     O_2   0.146889 0.690539 0.450634 -0.560638
O5    O     O_R   0.494670 0.667660 0.422600 -0.599567
O6    O     O_R   0.488470 0.295500 0.332650 -0.533164
O7    O     O_R   0.511530 0.704500 0.667350 -0.533482
O8    O     O_R   0.426310 0.518390 0.622390 -0.600034
O9    O     O_R   0.573690 0.481610 0.377610 -0.599039
O10   O     O_R   0.409450 0.481550 0.377650 -0.542042
O11   O     O_R   0.590550 0.518450 0.622350 -0.539561
O12   O     O_2   0.846781 0.677770 0.418295 -0.548481

loop_
_geom_bond_atom_site_label_1
_geom_bond_atom_site_label_2
_ccdc_geom_bond_type
C31   H14   S    
C41   H37   S    
Cu2   O5    S    
C18   N1    A    
C37   H17   S    
C27   C29   A    
C43   H31   S    
C41   C42   S    
C15   O11   A    
C35   C36   S    
C15   C47   S    
C1    O1    A    
C16   O12   S    
C14   C46   S    
C17   C26   A    
C36   C37   S    
C19   C21   A    
C24   C26   A    
C38   C39   S    
C19   O4    S    
C13   H5    S    
C4    C41   S    
C10   H42   S    
C37   H16   S    
Cu2   N3    S    
C16   C25   A    
C31   H13   S    
C34   C35   S    
C15   O9    A    
C13   N4    D    
Cl1   N4    S    
C35   H21   S    
Cu2   O9    S    
C44   C46   A    
C16   N1    A    
C22   C25   A    
C30   H34   S    
C11   H6    S    
C9    C10   S    
C36   H19   S    
Cu1   O7    S    
Cu1   N4    S    
C14   O10   A    
C33   H7    S    
C43   H32   S    
C7    H4    S    
C8    H3    S    
C36   H18   S    
C45   C47   A    
Cu1   O1    S    
C46   C48   A    
Cu1   Cu2   S    
C39   H26   S    
C3    C38   S    
C12   O5    A    
C4    C6    A    
C39   C40   S    
C42   H33   S    
C23   C44   A    
C40   H24   S    
C18   O3    S    
C23   C31   S    
C2    C4    A    
C31   C32   S    
C5    C23   A    
C3    C48   A    
C8    C12   S    
C17   N2    A    
C1    O6    A    
C34   C45   A    
C28   H12   S    
C33   H9    S    
C9    H2    S    
C21   C28   A    
C20   C22   A    
C35   H20   S    
C33   H8    S    
C38   H29   S    
C22   C24   A    
C42   C43   S    
C5    N2    S    
C44   H38   S    
C25   C30   A    
C7    C9    D    
C41   H36   S    
Cu2   O6    S    
Cl2   N3    S    
C1    C7    S    
C2    H41   S    
C32   H11   S    
C3    C5    A    
C27   H1    S    
C29   H23   S    
C20   C27   A    
C2    C47   A    
C11   N3    D    
C32   C33   S    
C28   C30   A    
Cu1   O11   S    
C32   H10   S    
C11   C13   S    
C12   O7    A    
C38   H28   S    
Cu1   O8    S    
C37   H15   S    
C40   H22   S    
C18   C20   A    
C45   H39   S    
C17   O2    S    
C6    C34   A    
C14   O8    A    
Cu2   O10   S    
C26   C29   A    
C8    C10   D    
C6    N1    S    
C48   H40   S    
C21   C24   A    
C43   H30   S    
C40   H25   S    
C42   H35   S    
C19   N2    A    
C39   H27   S    
