data_mof_unit_46198.cif
_audit_creation_date              2012-12-10T20:28:44-0500
_audit_creation_method            fapswitch 2.2
_symmetry_space_group_name_H-M    P1
_symmetry_Int_Tables_number       1
_space_group_crystal_system       triclinic
_cell_length_a                    10.643827
_cell_length_b                    10.673423
_cell_length_c                    9.862522
_cell_angle_alpha                 90.200117
_cell_angle_beta                  89.955975
_cell_angle_gamma                 90.794026
_cell_volume                      1120.32762901

loop_
_atom_site_label
_atom_site_type_symbol
_atom_type_description
_atom_site_fract_x
_atom_site_fract_y
_atom_site_fract_z
_atom_type_partial_charge
C1    C     C_R   0.495119 0.259776 0.499627 0.955441
C2    C     C_R   0.449957 0.932943 0.378027 -0.292071
C3    C     C_R   0.469050 0.870274 0.500830 -0.152616
C4    C     C_R   0.260517 0.501162 0.500104 0.844658
C5    C     C_R   0.461095 0.936035 0.622684 0.025507
C6    C     C_3   0.534428 0.928433 0.751711 -0.460108
C7    C     C_3   0.541432 0.070791 0.749460 0.266137
C8    C     C_R   0.436807 0.408381 0.070942 0.222547
C9    C     C_R   0.571320 0.583668 0.072225 -0.122404
C10   C     C_R   0.571305 0.583708 0.928209 -0.119399
C11   C     C_R   0.436968 0.408306 0.928322 0.159192
C12   C     C_R   0.069301 0.615473 0.556429 0.030194
C13   C     C_3   0.299337 0.381155 0.922941 0.417256
C14   C     C_3   0.299160 0.380869 0.076914 -0.540628
C15   C     C_R   0.493244 0.739765 0.500251 1.005812
C16   C     C_R   0.739696 0.504811 0.499856 0.995124
C17   C     C_R   0.138106 0.718515 0.610536 -0.200384
C18   C     C_R   0.076634 0.822922 0.661278 -0.219666
C19   C     C_R   0.946371 0.827635 0.656912 -0.165804
C20   C     C_R   0.876816 0.727616 0.602864 0.573496
C21   C     C_R   0.937484 0.618781 0.554092 -0.029069
C22   C     C_R   0.128685 0.510114 0.500252 -0.046070
C23   C     C_R   0.062392 0.411562 0.440454 -0.178178
C24   C     C_R   0.934038 0.413105 0.440505 -0.178484
C25   C     C_R   0.872274 0.513908 0.498853 -0.096382
C26   C     C_R   0.465703 0.063626 0.621486 0.023602
C27   C     C_R   0.472723 0.128026 0.498922 -0.213247
C28   C     C_R   0.451203 0.062485 0.376643 0.616493
Cl1   Cl    Cl    0.698480 0.128541 0.724628 -0.603081
F1    F     F_    0.274360 0.263725 0.868573 -0.640350
F2    F     F_    0.751308 0.741425 0.593460 -0.712188
F3    F     F_    0.442169 0.121437 0.255298 -0.658439
H1    H     H_    0.110357 0.332161 0.396347 0.156980
H2    H     H_    0.130370 0.901247 0.702043 0.191592
H3    H     H_    0.898950 0.910119 0.693783 0.209739
H4    H     H_    0.882387 0.334387 0.397010 0.169007
H5    H     H_    0.443776 0.883033 0.282355 0.194355
H6    H     H_    0.476234 0.891158 0.836500 0.175168
H7    H     H_    0.626515 0.882371 0.739202 0.273493
H8    H     H_    0.490190 0.115740 0.834522 0.180783
H9    H     H_    0.626937 0.652798 0.126793 0.163146
H10   H     H_    0.626932 0.652828 0.874042 0.175622
H11   H     H_    0.243664 0.457430 0.876946 0.104107
H12   H     H_    0.245014 0.459250 0.121538 0.174248
H13   H     H_    0.278330 0.287380 0.121549 0.270494
H14   H     H_    0.239528 0.720434 0.612637 0.154156
N1    N     N_R   0.499160 0.499140 0.142800 -0.113525
N2    N     N_R   0.499160 0.499180 0.857150 -0.143152
O1    O     O_R   0.500020 0.316790 0.614690 -0.583700
O2    O     O_R   0.500000 0.316760 0.385350 -0.563516
O3    O     O_R   0.316770 0.500020 0.614690 -0.633659
O4    O     O_R   0.316760 0.499980 0.385350 -0.630733
O5    O     O_R   0.500000 0.683240 0.614650 -0.603353
O6    O     O_R   0.499980 0.683210 0.385310 -0.639081
O7    O     O_R   0.683240 0.500020 0.614650 -0.565089
O8    O     O_R   0.683230 0.499980 0.385310 -0.625617
Zn1   Zn    Zn3+2 0.500010 0.500020 0.653130 1.010943
Zn2   Zn    Zn3+2 0.499990 0.499980 0.346870 0.990703

loop_
_geom_bond_atom_site_label_1
_geom_bond_atom_site_label_2
_ccdc_geom_bond_type
C12   C17   A    
C2    C28   A    
C23   C24   A    
C16   O8    A    
C6    C7    S    
O3    Zn1   S    
C1    O2    A    
C10   H10   S    
C4    C22   S    
C9    C10   A    
C9    H9    S    
C19   C20   A    
C28   F3    S    
C7    H8    S    
C3    C5    A    
O7    Zn1   S    
C2    C3    A    
C26   C27   A    
C16   O7    A    
O1    Zn1   S    
N2    Zn1   S    
C19   H3    S    
C13   C14   S    
C24   C25   A    
N1    Zn2   S    
C17   H14   S    
C11   C13   S    
C2    H5    S    
C11   N2    A    
C24   H4    S    
C7    C26   S    
O4    Zn2   S    
C4    O4    A    
C8    C11   A    
C7    Cl1   S    
C15   O5    A    
C14   H12   S    
O8    Zn2   S    
C9    N1    A    
C14   H13   S    
C18   H2    S    
C10   N2    A    
C5    C6    S    
C8    N1    A    
C4    O3    A    
C5    C26   A    
O2    Zn2   S    
C15   O6    A    
C12   C22   A    
C13   F1    S    
C13   H11   S    
C3    C15   S    
C20   C21   A    
C17   C18   A    
C18   C19   A    
O6    Zn2   S    
C16   C25   S    
C1    C27   S    
C21   C25   A    
C22   C23   A    
C8    C14   S    
C23   H1    S    
C6    H6    S    
C6    H7    S    
C1    O1    A    
C12   C21   A    
C27   C28   A    
C20   F2    S    
O5    Zn1   S    
