data_mof_unit_37517.cif
_audit_creation_date              2013-03-05T16:19:18-0500
_audit_creation_method            fapswitch 2.2
_symmetry_space_group_name_H-M    P1
_symmetry_Int_Tables_number       1
_space_group_crystal_system       triclinic
_cell_length_a                    10.888746
_cell_length_b                    10.00984
_cell_length_c                    23.382949
_cell_angle_alpha                 88.092323
_cell_angle_beta                  90.754279
_cell_angle_gamma                 88.951178
_cell_volume                      2546.53406917

loop_
_atom_site_label
_atom_site_type_symbol
_atom_site_description
_atom_site_fract_x
_atom_site_fract_y
_atom_site_fract_z
_atom_type_partial_charge
O1    O     O_R   0.314910 0.616040 0.499990 -0.615759
O2    O     O_R   0.314910 0.383960 0.499990 -0.612152
C1    C     C_R   0.258634 0.500839 0.502236 0.867879
O3    O     O_R   0.500080 0.616070 0.416130 -0.629938
O4    O     O_R   0.500080 0.383930 0.416130 -0.620371
C2    C     C_R   0.500956 0.502047 0.389696 0.858922
Zn1   Zn    Zn3+2 0.500150 0.654960 0.499970 0.908408
Zn2   Zn    Zn3+2 0.500150 0.345040 0.499970 0.905532
O5    O     O_R   0.685320 0.616040 0.499970 -0.630862
O6    O     O_R   0.685320 0.383960 0.499970 -0.645882
O7    O     O_R   0.500150 0.616010 0.583820 -0.637432
O8    O     O_R   0.500150 0.383990 0.583820 -0.628574
C3    C     C_R   0.741770 0.499278 0.502363 0.855939
C4    C     C_R   0.500689 0.498040 0.610166 0.863164
C5    C     C_R   0.633308 0.452822 0.882677 0.508323
N1    N     N_R   0.539587 0.512937 0.851542 -0.346024
C6    C     C_R   0.445273 0.579639 0.876750 0.516165
C7    C     C_R   0.441402 0.585910 0.936296 -0.063727
C8    C     C_R   0.536416 0.524392 0.969369 -0.022034
C9    C     C_R   0.634456 0.458503 0.942315 -0.005735
C10   C     C_R   0.344219 0.651083 0.962979 -0.155150
C11   C     C_R   0.337870 0.654261 0.022653 0.170522
C12   C     C_R   0.432833 0.590234 0.056829 -0.033621
C13   C     C_R   0.532951 0.527210 0.029465 -0.059172
C14   C     C_R   0.629644 0.465302 0.061977 -0.000968
C15   C     C_R   0.728014 0.402680 0.034562 -0.159340
C16   C     C_R   0.730107 0.398764 0.975276 -0.165649
C17   C     C_R   0.432288 0.584600 0.117252 0.506341
N2    N     N_R   0.527294 0.523715 0.147503 -0.357200
C18   C     C_R   0.625292 0.466266 0.121437 0.497479
O9    O     O_2   0.724136 0.387133 0.855912 -0.564317
O10   O     O_2   0.355340 0.638924 0.844077 -0.562337
O11   O     O_2   0.337573 0.636891 0.146160 -0.569021
O12   O     O_2   0.718177 0.410133 0.153254 -0.564365
H1    H     H_    0.803087 0.355038 0.058848 0.191796
H2    H     H_    0.806565 0.348353 0.955425 0.191758
C19   C     C_R   0.510383 0.394584 0.237512 -0.103303
C20   C     C_R   0.502960 0.389089 0.296773 -0.222628
C21   C     C_R   0.506633 0.507384 0.327315 -0.042995
C22   C     C_R   0.518297 0.630945 0.297783 -0.237110
H3    H     H_    0.520923 0.723807 0.320142 0.154946
C23   C     C_R   0.527044 0.635928 0.238642 -0.093549
H4    H     H_    0.536430 0.731422 0.216118 0.141411
C24   C     C_R   0.522612 0.517937 0.208451 0.321398
C25   C     C_R   0.458218 0.411139 0.766742 -0.147905
H5    H     H_    0.405370 0.346317 0.794696 0.149054
C26   C     C_R   0.443532 0.406743 0.707491 0.169487
C27   C     C_R   0.511793 0.494841 0.672423 -0.084557
C28   C     C_R   0.591835 0.585476 0.697162 -0.276236
H6    H     H_    0.643780 0.653067 0.670266 0.154211
C29   C     C_R   0.604720 0.590918 0.756320 0.244362
C30   C     C_R   0.537128 0.502791 0.790966 0.268077
C31   C     C_3   0.069854 0.644731 0.518608 0.008994
C32   C     C_3   0.072560 0.398297 0.551075 -0.009058
H7    H     H_    0.117953 0.669819 0.559175 0.163927
H8    H     H_    0.096092 0.441146 0.592990 0.157667
C33   C     C_3   0.929648 0.635283 0.528714 -0.000366
C34   C     C_3   0.931217 0.383485 0.545536 0.009931
C35   C     C_3   0.073005 0.468853 0.443711 -0.381682
C36   C     C_3   0.121680 0.502336 0.503611 -0.024121
C37   C     C_3   0.879158 0.498815 0.504761 0.041415
C38   C     C_3   0.929997 0.476693 0.440982 0.341201
C39   C     C_3   0.375308 0.081936 0.488343 -0.430108
C40   C     C_3   0.373539 0.922055 0.494107 -0.417779
H9    H     H_    0.312119 0.119349 0.520082 0.195365
H10   H     H_    0.319571 0.891316 0.532217 0.172057
C41   C     C_3   0.578965 0.079527 0.452554 0.178873
C42   C     C_3   0.560403 0.923340 0.446671 0.181365
C43   C     C_3   0.539841 0.074460 0.555500 0.174640
C44   C     C_3   0.547891 0.915509 0.553886 0.160659
N3    N     N_3   0.499750 0.138610 0.498760 -0.070337
N4    N     N_3   0.499750 0.861390 0.498760 -0.056283
H11   H     H_    0.466295 0.097777 0.586558 0.104730
H12   H     H_    0.486642 0.878879 0.588740 0.129451
H13   H     H_    0.271676 0.699029 0.937092 0.193092
C45   C     C_3   0.349428 0.315179 0.683276 -0.890380
H14   H     H_    0.282697 0.374714 0.656226 0.228109
H15   H     H_    0.395018 0.238067 0.657684 0.248500
H16   H     H_    0.297266 0.262624 0.717480 0.241013
C46   C     C_3   0.687099 0.692735 0.782094 -0.860007
H17   H     H_    0.632807 0.758311 0.810071 0.245368
H18   H     H_    0.761335 0.641482 0.807863 0.263992
H19   H     H_    0.730553 0.756870 0.748666 0.230483
C47   C     C_3   0.098699 0.763994 0.476525 -0.897850
H20   H     H_    0.135049 0.846626 0.501442 0.227358
H21   H     H_    0.164005 0.737527 0.442704 0.259609
H22   H     H_    0.018466 0.812268 0.454708 0.216373
C48   C     C_3   0.129622 0.257103 0.554448 -0.942831
H23   H     H_    0.222048 0.259146 0.574555 0.262140
H24   H     H_    0.076337 0.189873 0.583146 0.246330
H25   H     H_    0.129581 0.213811 0.511408 0.249759
C49   C     C_3   0.904417 0.661923 0.592471 -0.961964
H26   H     H_    0.907843 0.770854 0.599623 0.248334
H27   H     H_    0.814850 0.624044 0.606115 0.253949
H28   H     H_    0.975154 0.616588 0.621863 0.245863
C50   C     C_3   0.872084 0.363876 0.605441 -0.923369
H29   H     H_    0.776367 0.402351 0.606459 0.239128
H30   H     H_    0.871952 0.255887 0.617785 0.243473
H31   H     H_    0.923606 0.410610 0.640352 0.259542
H32   H     H_    0.881812 0.718403 0.505636 0.181052
H33   H     H_    0.910839 0.288805 0.524644 0.182450
H34   H     H_    0.113345 0.535975 0.410425 0.170330
H35   H     H_    0.109035 0.367739 0.433493 0.174415
C51   C     C_3   0.884661 0.588523 0.397536 -0.863355
H36   H     H_    0.898413 0.689737 0.411912 0.223923
H37   H     H_    0.932258 0.580420 0.355984 0.250196
H38   H     H_    0.784918 0.579384 0.388515 0.233484
C52   C     C_3   0.887726 0.346836 0.412936 -0.934141
H39   H     H_    0.925388 0.340822 0.369067 0.256707
H40   H     H_    0.923065 0.255398 0.435909 0.221509
H41   H     H_    0.786514 0.346280 0.407591 0.271399
H42   H     H_    0.338747 0.116844 0.445650 0.175102
H43   H     H_    0.324486 0.882860 0.456494 0.187218
C53   C     C_3   0.228898 0.727078 0.047277 -0.769171
H44   H     H_    0.260777 0.809372 0.074133 0.262207
H45   H     H_    0.167669 0.773164 0.013424 0.207128
H46   H     H_    0.172462 0.656148 0.072691 0.270893
H47   H     H_    0.548086 0.128555 0.411232 0.122010
H48   H     H_    0.496592 0.915277 0.409110 0.099684
C54   C     C_3   0.653580 0.135155 0.584229 -0.876497
H49   H     H_    0.742501 0.095843 0.569455 0.231050
H50   H     H_    0.657019 0.241640 0.577295 0.306682
H51   H     H_    0.650858 0.115911 0.631283 0.219051
C55   C     C_3   0.671616 0.854938 0.573513 -0.877315
H52   H     H_    0.747290 0.881471 0.545139 0.234607
H53   H     H_    0.695022 0.885279 0.617522 0.214392
H54   H     H_    0.665793 0.747650 0.577055 0.293963
C56   C     C_3   0.717905 0.107562 0.456117 -0.907959
H55   H     H_    0.754447 0.120295 0.412258 0.226081
H56   H     H_    0.742668 0.189487 0.480836 0.293274
H57   H     H_    0.773719 0.028556 0.477892 0.219903
C57   C     C_3   0.673289 0.847286 0.423475 -0.851642
H58   H     H_    0.651932 0.754294 0.403301 0.266383
H59   H     H_    0.714588 0.906031 0.387794 0.203792
H60   H     H_    0.744210 0.826619 0.456038 0.245227
H61   H     H_    0.506082 0.303270 0.214050 0.141302
H62   H     H_    0.493962 0.292576 0.318490 0.150844

loop_
_geom_bond_atom_site_label_1
_geom_bond_atom_site_label_2
_geom_bond_distance
_ccdc_geom_bond_type
C39   H9    1.089483 S    
C33   C49   1.550392 S    
C7    C10   1.397813 A    
C8    C9    1.412300 A    
C45   H16   1.110800 S    
C56   H55   1.109168 S    
C51   H37   1.111845 S    
C53   H44   1.110208 S    
C32   C36   1.600449 S    
C25   H5    1.083852 S    
Zn1   O7    1.986276 S    
C15   C16   1.388617 A    
C19   C20   1.388440 A    
C31   C47   1.560705 S    
C45   H15   1.106742 S    
C17   N2    1.367812 A    
C47   H21   1.105946 S    
C26   C45   1.504749 S    
C46   H19   1.111045 S    
C42   H48   1.118651 S    
C20   C21   1.403944 A    
O7    C4    1.313470 A    
C38   C52   1.549921 S    
C5    N1    1.364671 A    
C50   H31   1.105865 S    
C52   H39   1.112796 S    
C42   C57   1.547720 S    
C7    C8    1.404107 A    
C39   H42   1.112818 S    
C43   N3    1.510283 S    
O5    C3    1.309738 A    
C29   C46   1.505545 S    
C34   C50   1.557342 S    
C47   H20   1.103751 S    
N1    C6    1.365620 A    
C28   C29   1.391524 A    
C50   H30   1.109534 S    
C44   H12   1.116607 S    
C12   C13   1.419828 A    
C47   H22   1.101538 S    
C43   H11   1.114880 S    
C54   H51   1.111546 S    
Zn2   O8    2.011736 S    
C1    C36   1.491847 S    
C34   C37   1.565767 S    
C25   C26   1.394814 A    
C35   C36   1.540538 S    
C10   C11   1.399350 A    
C43   C44   1.593615 S    
C23   C24   1.397257 A    
O3    Zn1   2.011366 S    
C11   C12   1.427758 A    
C51   H36   1.090306 S    
C31   C36   1.575464 S    
C54   H50   1.074226 S    
C38   C51   1.555527 S    
C31   H7    1.115688 S    
C5    C9    1.397453 A    
C32   H8    1.111567 S    
C18   O12   1.350448 S    
C41   C42   1.590333 S    
C45   H14   1.109115 S    
C46   H18   1.109547 S    
Zn1   N4    2.065508 S    
C31   C33   1.552019 S    
C57   H58   1.085048 S    
C4    C27   1.458419 S    
C25   C30   1.396933 A    
C14   C15   1.404071 A    
C33   H32   1.096183 S    
C49   H28   1.106361 S    
C29   C30   1.402861 A    
O1    C1    1.315550 A    
C40   H10   1.111855 S    
N2    C18   1.363396 A    
C26   C27   1.412235 A    
C48   H25   1.108910 S    
C42   N4    1.513314 S    
C50   H29   1.105310 S    
C49   H27   1.100165 S    
C6    C7    1.397018 A    
C19   H61   1.083004 S    
C34   H33   1.105328 S    
C12   C17   1.412204 A    
C13   C14   1.412154 A    
C33   C37   1.597595 S    
C55   H54   1.077464 S    
O3    C2    1.315888 A    
C22   H3    1.082181 S    
C48   H24   1.110987 S    
C17   O11   1.347841 S    
N2    C24   1.426003 S    
C23   H4    1.083062 S    
C56   H57   1.096112 S    
C21   C22   1.404965 A    
C54   H49   1.102533 S    
C55   H53   1.110354 S    
C32   C34   1.553006 S    
C14   C18   1.392120 A    
Zn1   O5    2.046549 S    
C27   C28   1.402835 A    
C35   C38   1.558072 S    
C40   H43   1.109519 S    
O1    Zn1   2.061302 S    
C35   H34   1.111367 S    
Zn2   O6    2.060552 S    
O2    Zn2   2.047304 S    
N1    C30   1.423390 S    
C39   N3    1.498629 S    
C46   H17   1.110355 S    
O6    C3    1.320140 A    
C56   H56   1.055854 S    
O4    Zn2   1.985939 S    
C53   H45   1.111065 S    
C5    O9    1.349832 S    
C9    C16   1.400630 A    
C16   H2    1.083324 S    
C10   H13   1.083925 S    
C43   C54   1.544989 S    
C52   H41   1.107629 S    
C35   H35   1.113305 S    
C19   C24   1.398790 A    
C8    C13   1.407441 A    
O8    C4    1.315229 A    
C41   C56   1.545408 S    
C32   C48   1.532620 S    
O4    C2    1.316043 A    
C57   H60   1.089540 S    
C22   C23   1.386735 A    
C49   H26   1.109848 S    
C20   H62   1.083001 S    
C52   H40   1.106024 S    
O2    C1    1.313660 A    
C41   N3    1.519713 S    
C40   N4    1.493438 S    
C37   C38   1.618265 S    
C41   H47   1.114156 S    
C53   H46   1.110117 S    
C39   C40   1.602061 S    
C44   C55   1.525946 S    
C15   H1    1.083333 S    
C11   C53   1.511630 S    
C3    C37   1.496203 S    
C48   H23   1.106013 S    
C57   H59   1.109501 S    
C28   H6    1.080855 S    
C6    O10   1.350418 S    
C2    C21   1.460005 S    
C44   N4    1.506275 S    
C51   H38   1.109647 S    
C55   H52   1.095614 S    
Zn2   N3    2.067551 S    
