data_mof_unit_64919.cif
_audit_creation_date              2012-12-10T19:16:52-0500
_audit_creation_method            fapswitch 2.2
_symmetry_space_group_name_H-M    P1
_symmetry_Int_Tables_number       1
_space_group_crystal_system       triclinic
_cell_length_a                    16.000799
_cell_length_b                    14.756455
_cell_length_c                    10.77447
_cell_angle_alpha                 89.971437
_cell_angle_beta                  89.9225
_cell_angle_gamma                 90.022616
_cell_volume                      2544.01190039

loop_
_atom_site_label
_atom_site_type_symbol
_atom_type_description
_atom_site_fract_x
_atom_site_fract_y
_atom_site_fract_z
_atom_type_partial_charge
C1    C     C_R   0.340871 0.500000 0.500113 0.852987
C2    C     C_3   0.574030 0.555878 0.928040 -0.440349
C3    C     C_R   0.955859 0.537856 0.599845 -0.182943
C4    C     C_R   0.956232 0.462888 0.399636 -0.175788
C5    C     C_R   0.912597 0.500244 0.499740 0.037822
C6    C     C_R   0.043488 0.462825 0.399210 0.247538
C7    C     C_R   0.043097 0.538204 0.600504 0.260294
C8    C     C_R   0.087228 0.500447 0.500018 -0.017236
C9    C     C_1   0.823190 0.500100 0.499740 0.007683
C10   C     C_1   0.176846 0.500268 0.500277 0.107737
C11   C     C_1   0.251850 0.500072 0.500262 -0.058982
C12   C     C_1   0.748185 0.500040 0.499857 -0.142214
C13   C     C_R   0.493773 0.952054 0.611937 -0.127289
C14   C     C_R   0.493789 0.047896 0.611943 -0.109915
C15   C     C_R   0.500827 0.499830 0.259424 0.792223
C16   C     C_R   0.499874 0.902878 0.500277 0.031904
C17   C     C_R   0.499894 0.097146 0.500285 0.025305
C18   C     C_R   0.505952 0.952150 0.388647 -0.132341
C19   C     C_R   0.505960 0.047968 0.388651 -0.135408
C20   C     C_1   0.499927 0.802740 0.500180 0.171230
C21   C     C_1   0.499941 0.197268 0.500191 0.199224
C22   C     C_R   0.659131 0.500012 0.500006 0.818592
C23   C     C_R   0.499749 0.499674 0.740879 0.864876
C24   C     C_3   0.414774 0.532773 0.074316 -0.397429
C25   C     C_3   0.514076 0.400951 0.073908 -0.391535
C26   C     C_3   0.416157 0.542869 0.931193 0.445042
C27   C     C_3   0.512265 0.398040 0.931045 0.446708
C28   C     C_3   0.571601 0.559946 0.071047 -0.370617
C29   C     C_3   0.500482 0.498831 0.122093 -0.024434
C30   C     C_3   0.499189 0.498245 0.878805 -0.082481
Cu1   Cu    Cu3+1 0.500000 0.589220 0.500040 1.025659
Cu2   Cu    Cu3+1 0.500000 0.410780 0.500040 1.055796
H1    H     H_    0.398505 0.598222 0.119457 0.207819
H2    H     H_    0.574653 0.374936 0.109919 0.202717
H3    H     H_    0.510723 0.916472 0.301093 0.145658
H4    H     H_    0.510733 0.083720 0.301100 0.149326
H5    H     H_    0.365481 0.483825 0.103083 0.200940
H6    H     H_    0.464971 0.355674 0.112865 0.209494
H7    H     H_    0.561548 0.631312 0.100929 0.211608
H8    H     H_    0.632904 0.537619 0.109005 0.179720
H9    H     H_    0.573288 0.625850 0.890054 0.224640
H10   H     H_    0.634810 0.527477 0.897121 0.210267
H11   H     H_    0.921883 0.566905 0.677282 0.180920
H12   H     H_    0.922545 0.433871 0.322019 0.183189
H13   H     H_    0.489020 0.083605 0.699484 0.174353
H14   H     H_    0.488988 0.916288 0.699478 0.161814
N1    N     N_1   0.499980 0.276710 0.500040 -0.129337
N2    N     N_1   0.499980 0.723290 0.500040 -0.140769
O1    O     O_R   0.380310 0.575320 0.500060 -0.555406
O2    O     O_R   0.380310 0.424680 0.500060 -0.555600
O3    O     O_R   0.499990 0.575340 0.317720 -0.585794
O4    O     O_R   0.499990 0.424660 0.317720 -0.591872
O5    O     O_R   0.619690 0.575360 0.500000 -0.581584
O6    O     O_R   0.619690 0.424640 0.500000 -0.557126
O7    O     O_R   0.500010 0.575340 0.682340 -0.555133
O8    O     O_R   0.500010 0.424660 0.682340 -0.519060
Br1   Br    Br    0.313460 0.493206 0.860339 -0.350162
Br2   Br    Br    0.427594 0.309102 0.880122 -0.403923
Br3   Br    Br    0.407535 0.672633 0.891416 -0.451772
Br4   Br    Br    0.617934 0.344126 0.873334 -0.485518
Br5   Br    Br    0.099410 0.591064 0.740027 -0.363380
Br6   Br    Br    0.100490 0.410990 0.259308 -0.417690

loop_
_geom_bond_atom_site_label_1
_geom_bond_atom_site_label_2
_ccdc_geom_bond_type
C2    C28   S    
C23   O7    A    
C7    C8    A    
C15   O3    A    
C25   H6    S    
C14   H13   S    
C18   H3    S    
C24   H1    S    
C1    C11   S    
C2    C30   S    
C25   H2    S    
C16   C20   S    
Cu2   O2    S    
C6    Br6   S    
C15   O4    A    
C24   H5    S    
C23   O8    A    
C22   O6    A    
C13   C14   A    
Cu1   O5    S    
C27   C30   S    
C5    C9    S    
C14   C17   A    
C3    H11   S    
C20   N2    T    
C2    H10   S    
C4    C6    A    
C28   C29   S    
C9    C12   T    
Cu1   O1    S    
C15   C29   S    
C22   O5    A    
C3    C7    A    
C19   H4    S    
C27   Br4   S    
C25   C29   S    
Cu1   N2    S    
C27   Br2   S    
C26   Br1   S    
C17   C21   S    
C25   C27   S    
C10   C11   T    
C28   H8    S    
C2    H9    S    
C17   C19   A    
C23   C30   S    
C12   C22   S    
Cu2   N1    S    
C16   C18   A    
C18   C19   A    
C1    O2    A    
C13   C16   A    
Cu2   O6    S    
Cu1   O3    S    
C21   N1    T    
C13   H14   S    
C7    Br5   S    
C26   Br3   S    
C6    C8    A    
C4    H12   S    
C28   H7    S    
Cu1   O7    S    
C24   C29   S    
C1    O1    A    
Cu2   O8    S    
C8    C10   S    
Cu2   O4    S    
Cu1   Cu2   S    
C24   C26   S    
C4    C5    A    
C3    C5    A    
C26   C30   S    
