data_mof_unit_57440.cif
_audit_creation_date              2012-12-11T15:41:17-0500
_audit_creation_method            fapswitch 2.2
_symmetry_space_group_name_H-M    P1
_symmetry_Int_Tables_number       1
_space_group_crystal_system       triclinic
_cell_length_a                    19.211927
_cell_length_b                    11.069297
_cell_length_c                    18.75996
_cell_angle_alpha                 89.96249
_cell_angle_beta                  90.418787
_cell_angle_gamma                 90.235078
_cell_volume                      3989.39955339

loop_
_atom_site_label
_atom_site_type_symbol
_atom_type_description
_atom_site_fract_x
_atom_site_fract_y
_atom_site_fract_z
_atom_type_partial_charge
C1    C     C_R   0.724142 0.962862 0.856256 0.543970
C2    C     C_R   0.306058 0.459989 0.037586 0.009429
C3    C     C_R   0.762174 0.856854 0.355780 0.540410
C4    C     C_2   0.497729 0.170988 0.920615 -0.116398
C5    C     C_2   0.500676 0.167093 0.078537 -0.122322
C6    C     C_2   0.997780 0.670975 0.920639 -0.116466
C7    C     C_2   0.000722 0.667095 0.078562 -0.122274
C8    C     C_2   0.485160 0.071493 0.036732 -0.170561
C9    C     C_2   0.499826 0.069974 0.959910 -0.166315
C10   C     C_2   0.985252 0.571472 0.036760 -0.170556
C11   C     C_2   0.999926 0.569968 0.959940 -0.166190
C12   C     C_R   0.748269 0.409658 0.079065 0.015659
C13   C     C_R   0.195144 0.956773 0.964892 0.015776
C14   C     C_R   0.234394 0.445147 0.932174 0.020172
C15   C     C_R   0.248258 0.909429 0.079116 0.015622
C16   C     C_R   0.734402 0.945131 0.932165 0.020231
C17   C     C_3   0.468928 0.954660 0.567463 -0.252078
C18   C     C_3   0.513690 0.845739 0.585295 -0.423789
C19   C     C_3   0.541731 0.944847 0.418387 -0.255787
C20   C     C_3   0.485055 0.859405 0.391606 -0.389139
C21   C     C_3   0.968934 0.454655 0.567462 -0.252079
C22   C     C_3   0.013701 0.345739 0.585295 -0.423786
C23   C     C_3   0.041734 0.444848 0.418386 -0.255785
C24   C     C_R   0.806163 0.959544 0.037520 0.009414
C25   C     C_3   0.985057 0.359404 0.391607 -0.389140
C26   C     C_R   0.778641 0.295659 0.974629 -0.148059
C27   C     C_R   0.183178 0.420810 0.049439 -0.160022
C28   C     C_R   0.278998 0.795976 0.974575 -0.148051
C29   C     C_R   0.683211 0.921175 0.049473 -0.160089
C30   C     C_R   0.782431 0.311745 0.047999 -0.159811
C31   C     C_R   0.175772 0.428328 0.975761 -0.147615
C32   C     C_R   0.282755 0.811933 0.047954 -0.159720
C33   C     C_R   0.272842 0.956726 0.146724 0.544395
C34   C     C_R   0.675774 0.928732 0.975796 -0.147548
C35   C     C_3   0.692691 0.609621 0.028998 -0.243467
C36   C     C_3   0.367448 0.419758 0.949516 -0.292909
C37   C     C_3   0.191567 0.108749 0.029234 -0.243815
C38   C     C_3   0.867381 0.918730 0.949418 -0.293021
C39   C     C_3   0.686253 0.588697 0.949406 -0.280475
C40   C     C_3   0.376356 0.404290 0.029349 -0.257499
C41   C     C_3   0.185100 0.087861 0.949632 -0.280346
C42   C     C_3   0.876307 0.903287 0.029248 -0.257414
C43   C     C_R   0.739526 0.375699 0.931684 0.022276
C44   C     C_R   0.224139 0.462874 0.856261 0.544008
C45   C     C_R   0.249855 0.424994 0.080295 0.011374
C46   C     C_R   0.239532 0.875657 0.931708 0.022181
C47   C     C_R   0.749911 0.924968 0.080280 0.011354
C48   C     C_R   0.513538 0.167582 0.418893 0.000793
C49   C     C_R   0.515005 0.169096 0.567729 0.002634
C50   C     C_R   0.013538 0.667583 0.418893 0.000793
C51   C     C_R   0.015005 0.669095 0.567729 0.002634
C52   C     C_R   0.530031 0.273493 0.456270 0.005022
C53   C     C_R   0.531516 0.272520 0.529157 0.030285
C54   C     C_R   0.030029 0.773494 0.456270 0.005021
C55   C     C_R   0.772846 0.456754 0.146716 0.544322
C56   C     C_R   0.031514 0.772521 0.529157 0.030283
C57   C     C_R   0.506968 0.057891 0.531216 -0.005088
C58   C     C_R   0.515642 0.056670 0.456062 -0.003961
C59   C     C_R   0.006970 0.557890 0.531216 -0.005090
C60   C     C_R   0.015644 0.556670 0.456062 -0.003963
C61   C     C_R   0.530098 0.177834 0.850526 0.551839
C62   C     C_R   0.469513 0.177582 0.149176 0.543021
C63   C     C_R   0.030110 0.677833 0.850534 0.551860
C64   C     C_R   0.969525 0.677581 0.149184 0.542967
C65   C     C_3   0.497502 0.396813 0.455721 -0.268408
C66   C     C_R   0.700766 0.475925 0.037460 0.013208
C67   C     C_3   0.497680 0.392801 0.535658 -0.273724
C68   C     C_3   0.997497 0.896811 0.455722 -0.268409
C69   C     C_3   0.997676 0.892799 0.535659 -0.273726
C70   C     C_R   0.751442 0.404706 0.420021 0.012772
C71   C     C_R   0.249383 0.403520 0.580545 0.014687
C72   C     C_R   0.251440 0.904702 0.420019 0.012771
C73   C     C_R   0.749380 0.903527 0.580542 0.014686
C74   C     C_R   0.804981 0.354053 0.459480 0.018476
C75   C     C_R   0.197459 0.345034 0.542120 0.026012
C76   C     C_R   0.304979 0.854048 0.459479 0.018475
C77   C     C_R   0.297945 0.472401 0.964615 0.006882
C78   C     C_R   0.697454 0.845046 0.542116 0.026024
C79   C     C_R   0.802410 0.349499 0.533014 -0.003272
C80   C     C_R   0.199924 0.339146 0.468637 0.001930
C81   C     C_R   0.302408 0.849493 0.533013 -0.003273
C82   C     C_R   0.699920 0.839156 0.468633 0.001930
C83   C     C_R   0.687866 0.433810 0.529710 -0.153966
C84   C     C_R   0.308464 0.445189 0.469243 -0.168466
C85   C     C_R   0.187863 0.933802 0.529708 -0.153966
C86   C     C_R   0.808461 0.945195 0.469240 -0.168471
C87   C     C_R   0.690481 0.438086 0.454940 -0.165623
C88   C     C_R   0.200403 0.975143 0.037605 0.013080
C89   C     C_R   0.307476 0.447263 0.544052 -0.178230
C90   C     C_R   0.190479 0.938080 0.454938 -0.165622
C91   C     C_R   0.807473 0.947269 0.544049 -0.178234
C92   C     C_3   0.825669 0.225593 0.453725 -0.285469
C93   C     C_3   0.180258 0.214533 0.548700 -0.286749
C94   C     C_3   0.325667 0.725587 0.453724 -0.285467
C95   C     C_3   0.680250 0.714546 0.548697 -0.286750
C96   C     C_3   0.825190 0.221790 0.533483 -0.255683
C97   C     C_3   0.181337 0.209208 0.468728 -0.253790
C98   C     C_3   0.325187 0.721783 0.533482 -0.255683
C99   C     C_R   0.798035 0.971943 0.964550 0.006605
C100  C     C_3   0.681331 0.709219 0.468725 -0.253796
C101  C     C_R   0.745157 0.392600 0.569816 0.003203
C102  C     C_R   0.254047 0.391399 0.430425 0.009085
C103  C     C_R   0.245155 0.892593 0.569814 0.003201
C104  C     C_R   0.754045 0.891405 0.430422 0.009085
C105  C     C_R   0.735943 0.354446 0.855641 0.547990
C106  C     C_R   0.261748 0.364830 0.147976 0.537976
C107  C     C_R   0.235951 0.854473 0.855646 0.547955
C108  C     C_R   0.761752 0.864832 0.147977 0.537918
C109  C     C_R   0.728762 0.952374 0.649165 0.541807
C110  C     C_R   0.695502 0.457500 0.964749 0.015565
C111  C     C_R   0.271278 0.952561 0.350884 0.539195
C112  C     C_R   0.228763 0.452373 0.649166 0.541804
C113  C     C_R   0.771278 0.452562 0.350885 0.539193
C114  C     C_R   0.531668 0.176140 0.643203 0.539274
C115  C     C_R   0.472510 0.176423 0.353565 0.552496
C116  C     C_R   0.031668 0.676140 0.643203 0.539274
C117  C     C_R   0.972510 0.676422 0.353565 0.552497
C118  C     C_R   0.737678 0.356832 0.644294 0.542607
C119  C     C_R   0.262172 0.356859 0.355779 0.540408
C120  C     C_R   0.237677 0.856829 0.644293 0.542614
Cr1   Cr    Cr6+3 0.769260 0.163750 0.750730 1.004485
Cr2   Cr    Cr6+3 0.385810 0.322400 0.252290 1.003329
Cr3   Cr    Cr6+3 0.114190 0.822400 0.747710 1.011734
Cr4   Cr    Cr6+3 0.885810 0.822400 0.252290 1.003299
Cr5   Cr    Cr6+3 0.230740 0.163750 0.249270 1.001088
Cr6   Cr    Cr6+3 0.269260 0.663750 0.750730 1.004487
Cr7   Cr    Cr6+3 0.730740 0.663750 0.249270 1.001115
Cr8   Cr    Cr6+3 0.612640 0.009910 0.748780 1.000998
Cr9   Cr    Cr6+3 0.387360 0.009910 0.251220 0.990513
Cr10  Cr    Cr6+3 0.112640 0.509910 0.748780 1.001038
Cr11  Cr    Cr6+3 0.887360 0.509910 0.251220 0.990515
Cr12  Cr    Cr6+3 0.614190 0.322400 0.747710 1.011781
H1    H     H_    0.459414 0.992315 0.058597 0.159108
H2    H     H_    0.445216 0.384040 0.559067 0.135601
H3    H     H_    0.031671 0.968193 0.433537 0.118343
H4    H     H_    0.945213 0.884036 0.559069 0.135601
H5    H     H_    0.641713 0.463221 0.556383 0.135940
H6    H     H_    0.350580 0.487957 0.441495 0.119872
H7    H     H_    0.141710 0.963211 0.556381 0.135942
H8    H     H_    0.850578 0.987961 0.441492 0.119873
H9    H     H_    0.647845 0.476367 0.424943 0.121322
H10   H     H_    0.348604 0.493006 0.573020 0.117544
H11   H     H_    0.147842 0.976360 0.424941 0.121321
H12   H     H_    0.512236 0.983956 0.935548 0.141404
H13   H     H_    0.848602 0.993009 0.573018 0.117545
H14   H     H_    0.877935 0.211235 0.431073 0.125225
H15   H     H_    0.128115 0.197039 0.571400 0.124036
H16   H     H_    0.377933 0.711229 0.431072 0.125225
H17   H     H_    0.628106 0.697055 0.571396 0.124034
H18   H     H_    0.783743 0.170715 0.428272 0.146102
H19   H     H_    0.223089 0.162887 0.574585 0.143264
H20   H     H_    0.283741 0.670708 0.428271 0.146102
H21   H     H_    0.723079 0.662898 0.574584 0.143262
H22   H     H_    0.782730 0.165022 0.554954 0.178471
H23   H     H_    0.959525 0.492273 0.058622 0.159106
H24   H     H_    0.225453 0.156079 0.447867 0.174128
H25   H     H_    0.282728 0.665016 0.554952 0.178469
H26   H     H_    0.725446 0.656087 0.447866 0.174127
H27   H     H_    0.877501 0.209971 0.558134 0.135399
H28   H     H_    0.129493 0.191709 0.444041 0.128007
H29   H     H_    0.377499 0.709964 0.558133 0.135397
H30   H     H_    0.629487 0.691721 0.444038 0.128007
H31   H     H_    0.527669 0.245311 0.057061 0.112195
H32   H     H_    0.481367 0.255351 0.944475 0.109801
H33   H     H_    0.027699 0.745331 0.057088 0.112182
H34   H     H_    0.012371 0.483963 0.935582 0.141471
H35   H     H_    0.981410 0.755327 0.944501 0.109855
H36   H     H_    0.808911 0.223668 0.951407 0.150977
H37   H     H_    0.137887 0.398418 0.080974 0.135774
H38   H     H_    0.309555 0.724375 0.951299 0.150898
H39   H     H_    0.637901 0.899088 0.081052 0.135636
H40   H     H_    0.817339 0.255257 0.078906 0.137741
H41   H     H_    0.124471 0.416320 0.952912 0.137312
H42   H     H_    0.317917 0.755769 0.078782 0.137795
H43   H     H_    0.624437 0.917079 0.952976 0.137299
H44   H     H_    0.239332 0.160274 0.044049 0.155412
H45   H     H_    0.944415 0.896910 0.434325 0.173243
H46   H     H_    0.903863 0.986038 0.926218 0.141879
H47   H     H_    0.740694 0.660361 0.043888 0.154743
H48   H     H_    0.403767 0.487388 0.926371 0.141818
H49   H     H_    0.643899 0.643297 0.053338 0.145824
H50   H     H_    0.363657 0.332820 0.920022 0.131369
H51   H     H_    0.142622 0.141577 0.053689 0.145243
H52   H     H_    0.863342 0.831779 0.919966 0.131309
H53   H     H_    0.633499 0.608939 0.927924 0.142473
H54   H     H_    0.377265 0.307907 0.045938 0.152045
H55   H     H_    0.132164 0.107184 0.928266 0.142298
H56   H     H_    0.030222 0.963684 0.560872 0.131907
H57   H     H_    0.876977 0.806916 0.045877 0.151742
H58   H     H_    0.730067 0.628138 0.918558 0.135210
H59   H     H_    0.418535 0.461658 0.052242 0.145380
H60   H     H_    0.228633 0.128149 0.918711 0.135389
H61   H     H_    0.918653 0.960349 0.052085 0.145524
H62   H     H_    0.517158 0.784052 0.538991 0.120431
H63   H     H_    0.566072 0.875267 0.601732 0.213731
H64   H     H_    0.489895 0.794103 0.629718 0.127454
H65   H     H_    0.443424 0.986505 0.616986 0.149058
H66   H     H_    0.426321 0.925398 0.532090 0.151564
H67   H     H_    0.444420 0.396917 0.434322 0.173241
H68   H     H_    0.495804 0.765750 0.409752 0.094037
H69   H     H_    0.433976 0.888222 0.411481 0.195423
H70   H     H_    0.483417 0.858612 0.332429 0.165275
H71   H     H_    0.575945 0.970947 0.373283 0.143836
H72   H     H_    0.575012 0.895392 0.456030 0.157532
H73   H     H_    0.017156 0.284039 0.538998 0.120420
H74   H     H_    0.066084 0.375270 0.601711 0.213727
H75   H     H_    0.989921 0.294118 0.629728 0.127464
H76   H     H_    0.943428 0.486497 0.616986 0.149058
H77   H     H_    0.926328 0.425387 0.532089 0.151563
H78   H     H_    0.530226 0.463684 0.560871 0.131907
H79   H     H_    0.995804 0.265752 0.409757 0.094040
H80   H     H_    0.933978 0.388226 0.411479 0.195425
H81   H     H_    0.983419 0.358606 0.332429 0.165270
H82   H     H_    0.075946 0.470949 0.373280 0.143839
H83   H     H_    0.075016 0.395391 0.456027 0.157531
H84   H     H_    0.531678 0.468192 0.433537 0.118342
O1    O     O_R   0.784290 0.290360 0.830540 -0.527496
O2    O     O_R   0.456020 0.282110 0.333230 -0.528949
O3    O     O_R   0.043980 0.782110 0.666770 -0.520309
O4    O     O_R   0.956020 0.782110 0.333230 -0.528949
O5    O     O_R   0.679070 0.374030 0.674430 -0.507138
O6    O     O_R   0.320930 0.374030 0.325570 -0.509067
O7    O     O_R   0.179070 0.874030 0.674430 -0.507136
O8    O     O_R   0.820930 0.874030 0.325570 -0.509069
O9    O     O_3   0.665360 0.165350 0.749070 -0.253925
O10   O     O_3   0.334640 0.165350 0.250930 -0.248582
O11   O     O_3   0.165360 0.665350 0.749070 -0.253895
O12   O     O_R   0.215710 0.290360 0.169460 -0.530694
O13   O     O_3   0.834640 0.665350 0.250930 -0.248615
O14   O     O_R   0.762610 0.041070 0.825230 -0.501180
O15   O     O_R   0.237390 0.041070 0.174770 -0.501190
O16   O     O_R   0.262610 0.541070 0.825230 -0.501120
O17   O     O_R   0.737390 0.541070 0.174770 -0.501159
O18   O     O_R   0.667390 0.924160 0.829970 -0.529653
O19   O     O_R   0.332610 0.924160 0.170030 -0.527187
O20   O     O_R   0.167390 0.424160 0.829970 -0.529671
O21   O     O_R   0.832610 0.424160 0.170030 -0.527104
O22   O     O_R   0.553980 0.081420 0.821780 -0.500470
O23   O     O_R   0.284290 0.790360 0.830540 -0.527523
O24   O     O_R   0.446020 0.081420 0.178220 -0.500360
O25   O     O_R   0.053980 0.581420 0.821780 -0.500436
O26   O     O_R   0.946020 0.581420 0.178220 -0.500365
O27   O     O_R   0.543210 0.283170 0.826740 -0.517244
O28   O     O_R   0.456790 0.283170 0.173260 -0.521528
O29   O     O_R   0.043210 0.783170 0.826740 -0.517304
O30   O     O_R   0.956790 0.783170 0.173260 -0.521541
O31   O     O_R   0.678350 0.375000 0.822720 -0.495177
O32   O     O_R   0.321650 0.375000 0.177280 -0.498786
O33   O     O_R   0.178350 0.875000 0.822720 -0.495181
O34   O     O_R   0.715710 0.790360 0.169460 -0.530626
O35   O     O_R   0.821650 0.875000 0.177280 -0.498786
O36   O     O_R   0.785060 0.289300 0.670580 -0.521270
O37   O     O_R   0.214940 0.289300 0.329420 -0.521801
O38   O     O_R   0.285060 0.789300 0.670580 -0.521271
O39   O     O_R   0.714940 0.789300 0.329420 -0.521805
O40   O     O_R   0.763330 0.040090 0.676940 -0.513080
O41   O     O_R   0.236670 0.040090 0.323060 -0.512400
O42   O     O_R   0.263330 0.540090 0.676940 -0.513088
O43   O     O_R   0.736670 0.540090 0.323060 -0.512397
O44   O     O_R   0.668160 0.923110 0.670000 -0.528506
O45   O     O_R   0.554690 0.080440 0.673480 -0.502095
O46   O     O_R   0.331840 0.923110 0.330000 -0.527414
O47   O     O_R   0.168160 0.423110 0.670000 -0.528505
O48   O     O_R   0.831840 0.423110 0.330000 -0.527415
O49   O     O_R   0.445310 0.080440 0.326520 -0.502124
O50   O     O_R   0.054690 0.580440 0.673480 -0.502092
O51   O     O_R   0.945310 0.580440 0.326520 -0.502119
O52   O     O_R   0.543980 0.282110 0.666770 -0.520309

loop_
_geom_bond_atom_site_label_1
_geom_bond_atom_site_label_2
_ccdc_geom_bond_type
C3    C104  S    
C61   O27   A    
C7    C10   D    
C83   C87   A    
Cr4   O4    S    
C83   H5    S    
C3    O8    A    
C38   H46   S    
C93   C97   S    
C80   C97   S    
C18   H62   S    
C50   C117  S    
C84   C102  A    
C37   C88   S    
C35   C39   S    
C103  C120  S    
C36   H48   S    
Cr7   O13   S    
C14   C31   A    
C72   C76   A    
C86   C104  A    
C13   C41   S    
C49   C57   A    
C15   C32   A    
C23   H83   S    
C24   C42   S    
C45   C106  S    
C56   C69   S    
C28   C46   A    
C50   C54   A    
Cr9   O19   S    
Cr7   O39   S    
C101  C118  S    
Cr8   O44   S    
C21   H76   S    
Cr2   O32   S    
C114  O45   A    
Cr11  O21   S    
C20   H69   S    
C21   C59   S    
Cr4   O35   S    
C116  O50   A    
C86   C91   A    
C44   O20   A    
C90   H11   S    
C31   H41   S    
C13   C46   A    
Cr10  O25   S    
C97   H24   S    
C64   O26   A    
C81   C98   S    
C94   C98   S    
C94   H20   S    
C89   H10   S    
C37   H51   S    
Cr5   O41   S    
C68   H45   S    
C92   C96   S    
C62   O24   A    
C40   H54   S    
C22   H74   S    
C67   H78   S    
C51   C56   A    
C43   C105  S    
C14   C77   A    
C74   C92   S    
C25   H79   S    
C20   H68   S    
Cr3   O3    S    
C34   H43   S    
C15   C88   A    
C41   H55   S    
C16   C34   A    
C65   H67   S    
C1    O14   A    
C39   C110  S    
C96   H22   S    
Cr6   O11   S    
C44   O16   A    
C8    C9    S    
C65   C67   S    
Cr9   O10   S    
C70   C74   A    
C11   H34   S    
C73   C78   A    
C4    H32   S    
C115  O2    A    
C17   H65   S    
C78   C95   S    
C95   H17   S    
C43   C110  A    
Cr5   O12   S    
Cr2   O2    S    
C75   C80   A    
C85   H7    S    
Cr10  O47   S    
C85   C103  A    
C86   H8    S    
C35   H49   S    
Cr2   O10   S    
C112  O42   A    
C27   C45   A    
C49   C114  S    
C7    H33   S    
C72   C111  S    
C84   H6    S    
C59   C60   A    
C2    C45   A    
C21   C22   S    
C46   C107  S    
C118  O5    A    
C70   C87   A    
Cr1   O9    S    
Cr1   O1    S    
C55   O17   A    
Cr6   O23   S    
C119  O37   A    
C9    H12   S    
C26   C43   A    
C51   C59   A    
C3    O39   A    
C70   C113  S    
Cr8   O18   S    
C23   C60   S    
C63   O29   A    
C54   C56   A    
Cr7   O17   S    
C107  O33   A    
C108  O35   A    
C92   H14   S    
Cr12  O5    S    
C97   H28   S    
Cr4   O8    S    
C28   C32   A    
C24   C99   A    
C73   C91   A    
C65   H84   S    
C6    C11   D    
Cr3   O29   S    
C39   H58   S    
Cr6   O42   S    
C95   C100  S    
Cr8   O9    S    
Cr1   O36   S    
Cr2   O28   S    
C94   H16   S    
C12   C66   A    
C4    C61   S    
C119  O6    A    
C87   H9    S    
C22   H73   S    
C80   C102  A    
C95   H21   S    
C113  O48   A    
C39   H53   S    
C19   C58   S    
C10   H23   S    
C38   H52   S    
Cr6   O16   S    
C111  O46   A    
Cr3   O11   S    
C114  O52   A    
Cr12  O52   S    
C6    C63   S    
C72   C90   A    
C78   C82   A    
Cr12  O27   S    
C71   C89   A    
C98   H25   S    
C36   C40   S    
C1    O18   A    
C54   C68   S    
C26   H36   S    
C71   C112  S    
C67   H2    S    
C19   H71   S    
C17   C18   S    
C64   O30   A    
C17   H66   S    
Cr6   O38   S    
C1    C16   S    
C32   H42   S    
Cr8   O45   S    
C29   H39   S    
C116  O3    A    
C73   C109  S    
C69   H56   S    
C30   H40   S    
C117  O51   A    
C48   C115  S    
C105  O31   A    
C107  O23   A    
C28   H38   S    
C2    C40   S    
C29   C47   A    
Cr10  O11   S    
C26   C30   A    
C120  O7    A    
C105  O1    A    
C74   C79   A    
C27   C31   A    
C92   H18   S    
C62   O28   A    
Cr7   O43   S    
C93   H19   S    
C36   H50   S    
C84   C89   A    
C61   O22   A    
Cr9   O46   S    
C5    H31   S    
C48   C58   A    
C91   H13   S    
C98   H29   S    
Cr9   O49   S    
C52   C53   A    
C75   C93   S    
Cr1   O40   S    
C14   C44   S    
Cr11  O48   S    
C81   C103  A    
C115  O49   A    
C27   H37   S    
C6    H35   S    
Cr1   O14   S    
C83   C101  A    
C41   H60   S    
C12   C30   A    
C18   H63   S    
C24   C47   A    
C82   C100  S    
C68   C69   S    
C68   H3    S    
Cr4   O13   S    
C15   C33   S    
C38   C99   S    
Cr5   O15   S    
Cr11  O26   S    
C33   O19   A    
C76   C81   A    
C5    C8    D    
C85   C90   A    
C16   C99   A    
Cr3   O33   S    
Cr5   O37   S    
C76   C94   S    
C69   H4    S    
C113  O43   A    
C109  O40   A    
C51   C116  S    
C35   C66   S    
C36   C77   S    
Cr7   O34   S    
C50   C60   A    
C19   C20   S    
C25   H81   S    
C8    H1    S    
C20   H70   S    
C79   C96   S    
Cr9   O24   S    
C2    C77   A    
C118  O36   A    
Cr12  O9    S    
C25   H80   S    
C71   C75   A    
C35   H47   S    
Cr11  O13   S    
C57   C58   A    
C40   H59   S    
Cr3   O7    S    
C22   H75   S    
C109  O44   A    
C49   C53   A    
C29   C34   A    
C13   C88   A    
Cr10  O20   S    
C19   H72   S    
Cr12  O31   S    
C21   H77   S    
C5    C62   S    
C93   H15   S    
C106  O12   A    
C23   C25   S    
C18   H64   S    
C37   C41   S    
C53   C67   S    
C120  O38   A    
C7    C64   S    
C12   C55   S    
C55   O21   A    
C10   C11   S    
C102  C119  S    
C112  O47   A    
C42   H61   S    
Cr10  O50   S    
C38   C42   S    
C100  H26   S    
C48   C52   A    
C96   H27   S    
Cr11  O51   S    
C66   C110  A    
C47   C108  S    
Cr2   O6    S    
C108  O34   A    
C42   H57   S    
C82   C104  A    
C79   C101  A    
C100  H30   S    
Cr4   O30   S    
C106  O32   A    
C4    C9    D    
C33   O15   A    
Cr8   O22   S    
C111  O41   A    
C52   C65   S    
Cr5   O10   S    
C17   C57   S    
C117  O4    A    
C37   H44   S    
C23   H82   S    
C63   O25   A    
