data_mof_unit_20138.cif
_audit_creation_date              2013-03-05T15:56:42-0500
_audit_creation_method            fapswitch 2.2
_symmetry_space_group_name_H-M    P1
_symmetry_Int_Tables_number       1
_space_group_crystal_system       triclinic
_cell_length_a                    8.420848
_cell_length_b                    16.534355
_cell_length_c                    18.904757
_cell_angle_alpha                 99.759152
_cell_angle_beta                  91.122306
_cell_angle_gamma                 94.023112
_cell_volume                      2586.36218551

loop_
_atom_site_label
_atom_site_type_symbol
_atom_site_description
_atom_site_fract_x
_atom_site_fract_y
_atom_site_fract_z
_atom_type_partial_charge
P1    P     P_3+3 0.056550 0.421630 0.336220 0.528578
O1    O     O_2   0.884010 0.444810 0.325060 -0.420788
O2    O     O_3   0.132090 0.451130 0.414310 -0.296031
O3    O     O_3   0.640770 0.594650 0.368950 -0.301835
O4    O     O_2   0.769374 0.533904 0.247647 -0.328483
O5    O     O_3   0.054394 0.313554 0.313054 -0.591893
O6    O     O_3   0.641350 0.670545 0.241638 -0.530584
C1    C     C_3   0.472147 0.769775 0.205131 0.120178
H1    H     H_    0.575805 0.809183 0.192077 0.154763
P2    P     P_3+3 0.635450 0.689180 0.556380 0.594102
P3    P     P_3+3 0.102283 0.742753 0.399782 0.634115
O7    O     O_2   0.808690 0.699720 0.534830 -0.255254
O8    O     O_3   0.053760 0.638480 0.405010 -0.290094
O9    O     O_2   0.953154 0.790269 0.417211 -0.256343
O10   O     O_3   0.664187 0.686172 0.649162 -0.573325
O11   O     O_3   0.140670 0.747268 0.309726 -0.617970
C2    C     C_3   0.001051 0.728037 0.266686 0.883124
H2    H     H_    0.902948 0.698623 0.293643 0.115549
C3    C     C_3   0.949002 0.806084 0.243150 -0.670128
H3    H     H_    0.848503 0.790837 0.203303 0.232609
H4    H     H_    0.910484 0.849142 0.290204 0.264450
C4    C     C_3   0.220820 0.736420 0.654235 0.819362
H5    H     H_    0.330017 0.708407 0.633465 0.014585
C5    C     C_3   0.261889 0.818601 0.704236 -0.712295
H6    H     H_    0.292555 0.809362 0.759273 0.311101
H7    H     H_    0.360470 0.853830 0.682547 0.175313
H8    H     H_    0.158849 0.857396 0.709768 0.285257
Ba1   Ba    Ba6+2 0.845660 0.536000 0.465120 1.791821
C6    C     C_3   0.936264 0.270048 0.345214 0.541043
H9    H     H_    0.833850 0.307304 0.358387 0.014406
C7    C     C_3   0.878654 0.191469 0.291793 -0.107417
H10   H     H_    0.838801 0.208714 0.240598 0.124394
H11   H     H_    0.775983 0.159591 0.314321 0.165714
C8    C     C_3   0.694350 0.756387 0.704711 0.734039
C9    C     C_3   0.717476 0.839992 0.678894 -0.261589
H12   H     H_    0.613247 0.847124 0.645591 0.054446
H13   H     H_    0.828036 0.838132 0.648468 0.210135
P4    P     P_3+3 0.133150 0.578440 0.663790 0.627174
O12   O     O_2   0.305690 0.555220 0.674980 -0.329652
O13   O     O_3   0.057610 0.548940 0.585700 -0.336264
O14   O     O_3   0.548930 0.405410 0.631060 -0.385407
O15   O     O_3   0.128920 0.685621 0.692061 -0.508687
P5    P     P_3+3 0.104207 0.257100 0.601779 0.563518
O16   O     O_3   0.631040 0.400420 0.463490 -0.388228
O17   O     O_3   0.135930 0.361590 0.595000 -0.329791
O18   O     O_2   0.222319 0.212776 0.549463 -0.296685
O19   O     O_3   0.176930 0.244815 0.686461 -0.501903
Ba2   Ba    Ba6+2 0.344160 0.464070 0.534880 1.763289
P6    P     P_3+3 0.618711 0.576284 0.273966 0.564873
C10   C     C_3   0.518737 0.722164 0.264958 0.523418
H14   H     H_    0.409629 0.686870 0.278635 0.056482
H15   H     H_    0.375892 0.810146 0.223785 0.153758
O20   O     O_3   0.558660 0.599640 0.536520 -0.294137
C11   C     C_3   0.483204 0.300999 0.312743 0.122309
H16   H     H_    0.353201 0.293926 0.320736 0.170604
H17   H     H_    0.526875 0.366948 0.326316 0.017919
C12   C     C_3   0.519054 0.269819 0.233724 0.513297
H18   H     H_    0.645318 0.288806 0.225466 -0.031548
P7    P     P_3+3 0.560892 0.296662 0.446460 0.493684
O21   O     O_2   0.381010 0.300300 0.465220 -0.284137
O22   O     O_3   0.562296 0.253619 0.355320 -0.588781
H19   H     H_    0.049282 0.836997 0.218165 0.266118
C13   C     C_3   0.049011 0.240402 0.732604 0.089791
H20   H     H_    0.996397 0.300934 0.744326 0.086138
H21   H     H_    0.956307 0.191977 0.708560 0.016541
C14   C     C_3   0.108806 0.216280 0.802587 0.524432
H22   H     H_    0.183783 0.163360 0.789353 0.086145
P8    P     P_3+3 0.568456 0.413773 0.724055 0.520466
C15   C     C_3   0.588319 0.257824 0.704379 0.416547
H23   H     H_    0.718642 0.274452 0.709532 -0.028144
O23   O     O_2   0.444153 0.472375 0.756894 -0.344440
O24   O     O_3   0.503368 0.318284 0.745374 -0.459382
H24   H     H_    0.548206 0.249361 0.647151 0.096752
H25   H     H_    0.630885 0.129681 0.701655 0.204426
C16   C     C_3   0.556078 0.176424 0.730638 -0.733025
H26   H     H_    0.428980 0.154172 0.720445 0.251663
H27   H     H_    0.584865 0.184150 0.789071 0.297787
C17   C     C_R   0.007812 0.436591 0.043024 0.084255
C18   C     C_R   0.917194 0.402950 0.094563 -0.077210
C19   C     C_R   0.788984 0.411384 0.948110 -0.061673
C20   C     C_R   0.947040 0.438827 0.971465 0.099828
C21   C     C_R   0.731976 0.416004 0.879024 -0.108953
C22   C     C_R   0.828419 0.449370 0.829626 -0.003268
C23   C     C_R   0.984594 0.481796 0.852184 0.024656
C24   C     C_R   0.044964 0.474050 0.922399 0.085424
C25   C     C_R   0.772466 0.452821 0.758965 0.141690
C26   C     C_R   0.872873 0.486889 0.711558 -0.378215
C27   C     C_R   0.022772 0.526247 0.733408 0.282194
C28   C     C_R   0.076566 0.527273 0.807043 -0.144232
C29   C     C_R   0.165908 0.468599 0.064061 0.084147
C30   C     C_R   0.224353 0.474644 0.137200 0.056424
C31   C     C_R   0.121174 0.449472 0.189724 0.047719
C32   C     C_R   0.972102 0.409583 0.165729 0.011644
H28   H     H_    0.829201 0.487099 0.657377 0.157530
H29   H     H_    0.609658 0.393890 0.865517 0.196899
H30   H     H_    0.895193 0.381918 0.201334 0.133859
C33   C     C_R   0.212750 0.574927 0.840560 0.377169
C34   C     C_R   0.288210 0.549252 0.898687 -0.190806
C35   C     C_R   0.203492 0.502635 0.943200 0.057536
C36   C     C_R   0.266234 0.494749 0.012136 0.056745
C37   C     C_R   0.427746 0.513561 0.030756 -0.203141
C38   C     C_R   0.385112 0.505948 0.157436 -0.080777
C39   C     C_R   0.486766 0.521595 0.100965 0.552546
C40   C     C_R   0.435368 0.515258 0.231752 0.181244
C41   C     C_R   0.332185 0.487277 0.280680 -0.426496
C42   C     C_R   0.174061 0.460257 0.263402 0.252270
H31   H     H_    0.377583 0.485061 0.334015 0.185703
H32   H     H_    0.704921 0.386146 0.982278 0.152302
H33   H     H_    0.800940 0.371767 0.081813 0.159583
H34   H     H_    0.400144 0.582075 0.917562 0.189539
H35   H     H_    0.512958 0.522303 0.990262 0.159511
C43   C     C_R   0.378892 0.737769 0.480914 0.012324
C44   C     C_R   0.522593 0.766129 0.517130 -0.089194
C45   C     C_R   0.581275 0.848633 0.515846 0.310285
C46   C     C_R   0.479219 0.905312 0.493674 0.016079
C47   C     C_R   0.328977 0.875142 0.461750 0.327210
C48   C     C_R   0.281877 0.790547 0.453122 0.098144
C49   C     C_R   0.602056 0.154945 0.504348 -0.239406
C50   C     C_R   0.658018 0.236243 0.504859 0.225952
C51   C     C_R   0.690085 0.103471 0.539647 0.202736
N1    N     N_2   0.529174 0.990320 0.494932 0.020701
N2    N     N_2   0.634979 0.020203 0.541325 -0.006627
C52   C     C_R   0.798512 0.268499 0.543013 -0.408175
H36   H     H_    0.491223 0.131973 0.475514 0.203419
C53   C     C_R   0.895869 0.216933 0.572934 0.215877
C54   C     C_R   0.839786 0.134388 0.572128 -0.235550
H37   H     H_    0.913556 0.093762 0.595088 0.180829
H38   H     H_    0.839300 0.332091 0.543376 0.167321
N3    N     N_R   0.577278 0.780821 0.328495 0.180449
O25   O     O_R   0.569792 0.859892 0.332393 -0.403586
O26   O     O_R   0.653989 0.754338 0.378906 -0.361092
N4    N     N_R   0.003101 0.250152 0.411073 0.201984
O27   O     O_R   0.069079 0.309740 0.457956 -0.347059
O28   O     O_R   0.005063 0.174827 0.422698 -0.358049
N5    N     N_R   0.003689 0.134663 0.276035 0.310219
O29   O     O_R   0.128393 0.155289 0.241882 -0.233311
O30   O     O_R   0.982302 0.059756 0.288631 -0.255100
N6    N     N_R   0.834799 0.741110 0.745397 0.261220
O31   O     O_R   0.927737 0.801912 0.779671 -0.281849
O32   O     O_R   0.833714 0.670408 0.766854 -0.334161
N7    N     N_R   0.563432 0.756119 0.753768 0.197806
O33   O     O_R   0.473329 0.688372 0.749368 -0.365961
O34   O     O_R   0.571761 0.807171 0.814511 -0.253131
N8    N     N_R   0.734023 0.911779 0.736545 0.310105
O35   O     O_R   0.607417 0.947672 0.759281 -0.303707
O36   O     O_R   0.871604 0.953436 0.748827 -0.279179
Cl1   Cl    Cl    0.493332 0.159917 0.212378 -0.414767
N9    N     N_R   0.419066 0.304394 0.184401 0.210021
O37   O     O_R   0.265689 0.287606 0.181791 -0.342305
O38   O     O_R   0.484973 0.335644 0.132485 -0.430493
Cl2   Cl    Cl    0.401060 0.705240 0.124500 -0.498636
Cl3   Cl    Cl    0.229092 0.299140 0.854729 -0.575848
N10   N     N_R   0.975034 0.192363 0.844494 0.231612
O39   O     O_R   0.959623 0.118557 0.859974 -0.263297
O40   O     O_R   0.869923 0.244228 0.866311 -0.400054
N11   N     N_R   0.233192 0.661842 0.839742 0.262551
O41   O     O_R   0.107133 0.700749 0.833251 -0.258354
O42   O     O_R   0.355100 0.704770 0.874182 -0.260878
Cl4   Cl    Cl    0.690717 0.552680 0.108383 -0.546732
Cl5   Cl    Cl    0.043212 0.656172 0.189524 -0.538846
Cl6   Cl    Cl    0.206329 0.943211 0.428210 -0.440836
Cl7   Cl    Cl    0.787444 0.876705 0.526395 -0.494729
N12   N     N_R   0.338323 0.652141 0.464963 0.264065
O43   O     O_R   0.352541 0.614518 0.399987 -0.434408
O44   O     O_R   0.251145 0.617318 0.508421 -0.318309
Cl8   Cl    Cl    0.101788 0.762035 0.585515 -0.634894

loop_
_geom_bond_atom_site_label_1
_geom_bond_atom_site_label_2
_geom_bond_distance
_ccdc_geom_bond_type
C1    H1    1.109310 S    
C26   C27   1.400226 A    
C13   H21   1.110006 S    
C8    N7    1.454738 S    
C54   H37   1.082758 S    
C34   H34   1.076895 S    
P8    C25   1.859898 S    
C3    H3    1.108109 S    
C5    H8    1.110933 S    
P5    C53   1.868839 S    
P6    C40   1.870508 S    
C45   C46   1.422880 A    
C29   C30   1.443464 A    
N5    O29   1.298795 A    
C4    O15   1.396357 S    
C17   C29   1.421146 A    
C41   H31   1.078661 S    
O7    Ba1   2.843667 S    
C22   C23   1.414371 A    
C46   N1    1.434718 S    
N11   O41   1.293529 A    
N12   O44   1.292312 A    
C5    H7    1.105885 S    
C18   C32   1.397990 A    
P2    O10   1.775462 S    
N7    O34   1.302313 A    
O19   C13   1.404978 S    
P4    O12   1.548203 D    
C8    C9    1.543275 S    
P3    O9    1.539386 D    
C51   C54   1.414333 A    
C52   C53   1.400866 A    
C6    N4    1.453439 S    
Ba1   O13   2.837122 S    
C3    H19   1.111014 S    
P2    Ba1   3.433948 S    
C46   C47   1.411807 A    
C26   H28   1.082146 S    
C33   C34   1.400068 A    
O2    Ba2   2.837590 S    
C47   C48   1.408055 A    
N5    O30   1.301346 A    
P1    O1    1.547890 D    
C33   N11   1.438059 S    
P2    O20   1.555203 S    
C2    Cl5   1.776991 S    
C49   C50   1.391265 A    
C43   C44   1.389975 A    
Ba1   Ba2   4.668036 S    
C9    H12   1.094845 S    
N4    O27   1.293384 A    
P1    Ba1   3.427297 S    
C7    H11   1.110536 S    
O8    Ba1   2.747259 S    
C15   H24   1.109908 S    
N10   O40   1.299926 A    
C1    H15   1.110963 S    
O10   C8    1.431783 S    
P4    Ba2   3.427994 S    
P1    C42   1.882790 S    
C14   H22   1.111899 S    
C13   C14   1.531003 S    
P7    O21   1.565403 D    
C37   C39   1.389764 A    
O4    P6    1.542557 D    
C38   C39   1.427493 A    
C29   C36   1.410472 A    
C40   C41   1.394543 A    
O3    Ba1   2.816415 S    
C51   N2    1.427441 S    
Ba2   O21   2.843921 S    
O14   P8    1.743541 S    
C12   H18   1.108925 S    
Ba2   O20   2.773858 S    
C11   H17   1.111432 S    
P7    O22   1.749729 S    
H25   C16   1.110236 S    
C18   H33   1.077073 S    
P1    O5    1.764988 S    
C47   Cl6   1.764868 S    
C1    Cl2   1.773038 S    
C5    H6    1.105200 S    
O6    P6    1.767673 S    
C7    N5    1.461414 S    
C30   C31   1.427323 A    
C17   C18   1.412194 A    
O11   C2    1.402790 S    
C10   H14   1.112098 S    
C8    N6    1.458190 S    
P4    C27   1.913433 S    
P1    O2    1.580344 S    
C15   O24   1.403964 S    
C16   H26   1.109335 S    
C14   Cl3   1.784099 S    
C6    H9    1.102809 S    
C24   C35   1.409957 A    
C10   N3    1.463280 S    
N8    O36   1.301468 A    
C16   H27   1.110253 S    
P3    O11   1.752072 S    
C35   C36   1.426467 A    
P8    O24   1.748873 S    
O5    C6    1.395786 S    
C2    H2    1.105822 S    
C49   H36   1.082864 S    
C23   C24   1.441235 A    
C38   C40   1.439054 A    
P5    O17   1.756219 S    
N1    N2    1.252141 D    
P2    C44   1.880053 S    
P2    O7    1.528464 D    
C19   C21   1.398741 A    
C21   C22   1.406240 A    
C32   H30   1.077784 S    
C12   Cl1   1.790144 S    
C53   C54   1.410054 A    
C4    C5    1.531441 S    
C23   C28   1.433592 A    
C30   C38   1.435641 A    
P3    C48   1.852263 S    
C1    C10   1.542926 S    
C9    H13   1.103437 S    
C44   C45   1.422244 A    
O17   Ba2   2.748018 S    
C31   C42   1.431966 A    
O13   Ba2   2.970459 S    
C43   N12   1.412625 S    
C11   H16   1.108812 S    
O2    Ba1   2.969548 S    
P7    C50   1.827279 S    
C21   H29   1.079379 S    
C3    H4    1.110113 S    
C25   C26   1.403344 A    
C7    H10   1.106740 S    
O6    C10   1.415198 S    
N9    O38   1.300485 A    
C19   C20   1.413019 A    
C14   N10   1.460017 S    
O1    Ba1   2.852524 S    
Ba1   O20   2.961948 S    
P4    O15   1.765226 S    
N6    O32   1.300254 A    
C11   O22   1.403970 S    
C50   C52   1.397141 A    
C37   H35   1.079953 S    
C41   C42   1.388993 A    
C19   H32   1.077174 S    
O3    P6    1.773489 S    
N8    O35   1.301474 A    
N11   O42   1.302476 A    
N3    O25   1.302980 A    
C6    C7    1.546238 S    
N7    O33   1.297701 A    
C9    N8    1.465746 S    
P4    O13   1.580344 S    
P3    O8    1.763434 S    
C17   C20   1.444236 A    
C39   Cl4   1.753770 S    
C52   H38   1.081831 S    
C43   C48   1.394138 A    
P8    O23   1.543946 D    
C31   C32   1.405942 A    
C2    C3    1.523718 S    
O14   Ba2   2.815998 S    
Ba1   O16   2.774611 S    
C15   C16   1.520558 S    
N9    O37   1.300070 A    
C15   H23   1.110774 S    
P5    O18   1.549058 D    
C49   C51   1.407431 A    
N12   O43   1.291252 A    
C45   Cl7   1.763891 S    
N6    O31   1.300729 A    
C13   H20   1.112654 S    
C4    Cl8   1.751253 S    
C22   C25   1.419374 A    
C27   C28   1.452415 A    
N4    O28   1.302023 A    
C34   C35   1.406213 A    
C12   N9    1.456939 S    
C28   C33   1.418772 A    
C4    H5    1.107477 S    
C36   C37   1.398292 A    
O16   P7    1.748971 S    
N10   O39   1.300787 A    
P5    O19   1.751685 S    
C20   C24   1.423133 A    
O16   Ba2   2.961067 S    
O12   Ba2   2.853078 S    
N3    O26   1.293947 A    
C11   C12   1.538473 S    
