data_mof_unit_23244.cif
_audit_creation_date              2012-12-10T17:13:42-0500
_audit_creation_method            fapswitch 2.2
_symmetry_space_group_name_H-M    P1
_symmetry_Int_Tables_number       1
_space_group_crystal_system       triclinic
_cell_length_a                    26.895343
_cell_length_b                    10.627773
_cell_length_c                    10.021059
_cell_angle_alpha                 89.049212
_cell_angle_beta                  88.881497
_cell_angle_gamma                 90.228802
_cell_volume                      2863.42866666

loop_
_atom_site_label
_atom_site_type_symbol
_atom_type_description
_atom_site_fract_x
_atom_site_fract_y
_atom_site_fract_z
_atom_type_partial_charge
C1    C     C_R   0.494336 0.263307 0.501316 0.939302
C2    C     C_R   0.971649 0.233499 0.603518 0.026342
C3    C     C_R   0.976059 0.277152 0.360821 -0.046644
C4    C     C_R   0.405530 0.498849 0.501217 0.994309
C5    C     C_R   0.947683 0.259630 0.481708 0.052403
C6    C     C_R   0.942970 0.188294 0.715066 -0.025326
C7    C     C_R   0.890750 0.204781 0.716795 -0.067551
C8    C     C_R   0.867336 0.256575 0.602396 -0.102022
C9    C     C_R   0.895602 0.275179 0.482767 -0.050383
C10   C     C_R   0.872079 0.315445 0.365336 -0.079384
C11   C     C_R   0.821556 0.345526 0.370312 0.590679
C12   C     C_R   0.292720 0.297824 0.536083 0.000186
C13   C     C_R   0.816671 0.292766 0.602580 0.566503
C14   C     C_R   0.706734 0.300143 0.450573 -0.000403
C15   C     C_R   0.658294 0.344901 0.450252 -0.357525
C16   C     C_R   0.500328 0.737912 0.498776 0.967103
C17   C     C_R   0.684366 0.545890 0.540625 0.156542
C18   C     C_R   0.734413 0.504088 0.536526 0.199590
C19   C     C_R   0.745153 0.380262 0.492811 0.255904
C20   C     C_R   0.023374 0.257714 0.609467 0.083992
C21   C     C_R   0.051734 0.263588 0.489635 0.092362
C22   C     C_R   0.028228 0.257050 0.365267 0.036010
C23   C     C_R   0.254670 0.380674 0.496466 0.302655
C24   C     C_R   0.046929 0.285104 0.730293 -0.134129
C25   C     C_R   0.109664 0.243357 0.255705 -0.117651
C26   C     C_R   0.951438 0.321291 0.244115 -0.026699
C27   C     C_R   0.899780 0.334438 0.247349 -0.056707
C28   C     C_R   0.594490 0.498639 0.498746 0.879093
C29   C     C_R   0.058052 0.233091 0.251242 -0.233105
C30   C     C_2   0.468533 0.929486 0.410471 -0.188130
C31   C     C_2   0.499146 0.871141 0.494820 -0.326082
C32   C     C_2   0.465378 0.066236 0.403548 0.004109
C33   C     C_2   0.481795 0.132353 0.507510 -0.367392
C34   C     C_R   0.103728 0.280639 0.493555 -0.057541
C35   C     C_2   0.525951 0.578131 0.921770 -0.122680
C36   C     C_2   0.531513 0.565180 0.070792 0.186836
C37   C     C_R   0.177195 0.338115 0.614083 0.575476
C38   C     C_R   0.183445 0.302620 0.379373 0.572744
C39   C     C_R   0.265737 0.507841 0.460577 0.119486
C40   C     C_R   0.315599 0.551466 0.462936 -0.047288
C41   C     C_R   0.341144 0.343121 0.541436 -0.299082
C42   C     C_3   0.224464 0.597686 0.422932 -0.857912
C43   C     C_2   0.978096 0.377236 0.125831 0.355582
C44   C     C_3   0.669803 0.675280 0.589143 -0.899500
C45   C     C_R   0.126486 0.308016 0.615019 -0.028580
C46   C     C_3   0.776015 0.591113 0.577094 -0.820236
C47   C     C_2   0.442916 0.122437 0.282168 0.450864
C48   C     C_2   0.284031 0.162922 0.571484 0.482036
C49   C     C_3   0.575507 0.630703 0.129122 -0.763882
C50   C     C_2   0.715083 0.168713 0.406706 0.466600
C51   C     C_2   0.860604 0.158971 0.833661 0.491992
C52   C     C_2   0.966172 0.106076 0.818800 0.388500
C53   C     C_2   0.327946 0.684521 0.424276 0.387777
C54   C     C_R   0.097707 0.310321 0.732913 -0.130594
C55   C     C_R   0.132573 0.274734 0.375127 -0.032221
C56   C     C_R   0.352859 0.467136 0.504625 -0.061627
C57   C     C_R   0.646919 0.464995 0.495602 -0.056547
H1    H     H_    0.370700 0.279691 0.570744 0.149387
H2    H     H_    0.469337 0.465209 0.104603 0.166378
H3    H     H_    0.114150 0.333118 0.827388 0.189669
H4    H     H_    0.628523 0.284007 0.417773 0.151029
H5    H     H_    0.025987 0.293418 0.822843 0.176063
H6    H     H_    0.225517 0.681457 0.487604 0.251536
H7    H     H_    0.229304 0.627794 0.316862 0.246017
H8    H     H_    0.186726 0.556537 0.434898 0.238083
H9    H     H_    0.014420 0.420252 0.135934 0.086834
H10   H     H_    0.701488 0.733846 0.620178 0.259980
H11   H     H_    0.650650 0.727531 0.508303 0.224334
H12   H     H_    0.131274 0.230985 0.164548 0.196790
H13   H     H_    0.644046 0.665477 0.676662 0.245294
H14   H     H_    0.775713 0.677969 0.514009 0.247309
H15   H     H_    0.771053 0.615760 0.683740 0.256364
H16   H     H_    0.813540 0.549866 0.565123 0.229970
H17   H     H_    0.445047 0.072229 0.188805 0.044977
H18   H     H_    0.314419 0.106618 0.609440 0.068932
H19   H     H_    0.595536 0.689752 0.052879 0.193851
H20   H     H_    0.563727 0.693694 0.210420 0.253494
H21   H     H_    0.602395 0.559887 0.165552 0.253954
H22   H     H_    0.684553 0.115887 0.365287 0.049359
H23   H     H_    0.881488 0.370083 0.159084 0.248026
H24   H     H_    0.829287 0.096339 0.818950 0.102145
H25   H     H_    0.951686 0.101784 0.920310 0.136961
H26   H     H_    0.302822 0.739652 0.363826 0.103411
H27   H     H_    0.041819 0.207290 0.157658 0.159788
H28   H     H_    0.446055 0.875249 0.342735 0.190909
H29   H     H_    0.523556 0.918900 0.562356 0.129475
H30   H     H_    0.487424 0.087878 0.604178 0.151562
H31   H     H_    0.546820 0.651545 0.868690 0.163636
H32   H     H_    0.484465 0.425122 0.900845 0.163552
N1    N     N_R   0.204157 0.337420 0.496899 -0.333218
N2    N     N_R   0.795589 0.337128 0.488236 -0.324473
N3    N     N_2   0.500520 0.501330 0.852150 -0.199941
N4    N     N_2   0.500540 0.501360 0.147810 -0.183075
O1    O     O_R   0.499990 0.319060 0.613040 -0.627011
O2    O     O_R   0.571240 0.499960 0.613080 -0.602024
O3    O     O_R   0.571250 0.500000 0.386950 -0.619858
O4    O     O_2   0.199333 0.369862 0.728529 -0.539160
O5    O     O_2   0.959138 0.378939 0.016042 -0.559174
O6    O     O_2   0.419199 0.220050 0.286876 -0.557002
O7    O     O_2   0.243762 0.112028 0.557401 -0.554424
O8    O     O_2   0.755189 0.116650 0.417719 -0.564796
O9    O     O_2   0.869361 0.194596 0.946001 -0.541254
O10   O     O_2   0.001336 0.038659 0.790123 -0.545404
O11   O     O_2   0.365849 0.735563 0.461548 -0.597865
O12   O     O_2   0.788831 0.288653 0.715978 -0.547005
O13   O     O_2   0.211778 0.298408 0.266938 -0.529128
O14   O     O_2   0.798623 0.386271 0.259066 -0.534872
O15   O     O_R   0.500010 0.319100 0.386900 -0.572727
O16   O     O_R   0.428750 0.500000 0.613050 -0.608575
O17   O     O_R   0.428760 0.500040 0.386920 -0.575958
O18   O     O_R   0.499990 0.680900 0.613100 -0.605980
O19   O     O_R   0.500010 0.680940 0.386960 -0.620439
Zn1   Zn    Zn3+2 0.499990 0.499970 0.650990 0.964412
Zn2   Zn    Zn3+2 0.500010 0.500030 0.349010 0.981729

loop_
_geom_bond_atom_site_label_1
_geom_bond_atom_site_label_2
_ccdc_geom_bond_type
C10   C27   A    
C4    O16   A    
C52   O10   D    
C8    C13   A    
C22   C29   A    
C35   C36   S    
C43   O5    D    
C51   H24   S    
C12   C48   S    
C50   H22   S    
O19   Zn2   S    
C1    C33   S    
C7    C8    A    
C54   H3    S    
C28   C57   S    
C51   O9    D    
C12   C23   A    
C26   C27   A    
C37   N1    A    
C28   O2    A    
C41   H1    S    
C30   C31   D    
C53   O11   D    
C24   C54   A    
C47   O6    D    
C49   H21   S    
C18   C19   A    
O15   Zn2   S    
H32   N3    S    
C36   N4    D    
C38   C55   A    
C20   C24   A    
C1    O1    A    
C40   C56   A    
C42   H8    S    
C44   H13   S    
C9    C10   A    
O17   Zn2   S    
C46   H15   S    
O16   Zn1   S    
C35   N3    D    
C34   C55   A    
C31   H29   S    
C21   C22   A    
C13   N2    A    
C15   C57   A    
C48   H18   S    
O3    Zn2   S    
C2    C6    A    
C18   C46   S    
C37   O4    S    
O1    Zn1   S    
C26   C43   S    
C39   C42   S    
C25   C29   A    
C48   O7    D    
C49   H19   S    
C44   H10   S    
C2    C20   A    
C29   H27   S    
C13   O12   S    
C27   H23   S    
C39   C40   A    
C8    C9    A    
C21   C34   A    
C16   C31   S    
C38   O13   S    
C41   C56   A    
C5    C9    A    
C12   C41   A    
C35   H31   S    
C17   C18   A    
C15   H4    S    
C23   N1    S    
O18   Zn1   S    
C34   C45   A    
C30   H28   S    
C52   H25   S    
C46   H14   S    
C45   C54   A    
C11   O14   S    
C32   C47   S    
C44   H11   S    
C2    C5    A    
C25   H12   S    
C37   C45   A    
C42   H7    S    
C16   O19   A    
N3    Zn1   S    
C4    O17   A    
C24   H5    S    
C14   C19   A    
C3    C26   A    
C25   C55   A    
C47   H17   S    
C3    C5    A    
C6    C7    A    
C38   N1    A    
C28   O3    A    
C53   H26   S    
C32   C33   D    
C33   H30   S    
C17   C44   S    
C7    C51   S    
C30   C32   S    
C14   C50   S    
O2    Zn1   S    
C43   H9    S    
C23   C39   A    
C49   H20   S    
N4    Zn2   S    
C19   N2    S    
C10   C11   A    
C1    O15   A    
C11   N2    A    
C20   C21   A    
C50   O8    D    
C40   C53   S    
C14   C15   A    
C3    C22   A    
H2    N4    S    
C6    C52   S    
C42   H6    S    
C46   H16   S    
C4    C56   S    
C36   C49   S    
C16   O18   A    
C17   C57   A    
