data_mof_unit_12547.cif
_audit_creation_date              2012-12-11T17:22:48-0500
_audit_creation_method            fapswitch 2.2
_symmetry_space_group_name_H-M    P1
_symmetry_Int_Tables_number       1
_space_group_crystal_system       triclinic
_cell_length_a                    8.334974
_cell_length_b                    16.468474
_cell_length_c                    26.974589
_cell_angle_alpha                 96.31928
_cell_angle_beta                  92.244249
_cell_angle_gamma                 86.94066
_cell_volume                      3672.83864707

loop_
_atom_site_label
_atom_site_type_symbol
_atom_type_description
_atom_site_fract_x
_atom_site_fract_y
_atom_site_fract_z
_atom_type_partial_charge
Ba1   Ba    Ba6+2 0.851940 0.461560 0.523510 1.757265
Ba2   Ba    Ba6+2 0.337880 0.538370 0.476480 1.705451
C1    C     C_3   0.594300 0.178243 0.669995 0.625959
C2    C     C_3   0.610315 0.256021 0.643716 0.753922
C3    C     C_3   0.517649 0.672584 0.629981 0.296095
C4    C     C_3   0.515809 0.708564 0.685063 0.608502
C5    C     C_3   0.019712 0.738837 0.341400 0.809982
C6    C     C_3   0.948364 0.802050 0.308355 0.257506
C7    C     C_3   0.522641 0.754594 0.340029 0.764271
C8    C     C_3   0.492674 0.815519 0.300965 0.727265
C9    C     C_R   0.993071 0.435426 0.176946 0.642924
C10   C     C_R   0.987191 0.582288 0.182965 0.693840
C11   C     C_2   0.778777 0.557250 0.269993 0.373101
C12   C     C_3   0.114704 0.288480 0.659981 0.708638
C13   C     C_3   0.750065 0.582177 0.325358 -0.089135
C14   C     C_1   0.981564 0.489148 0.344033 0.034460
C15   C     C_2   0.025070 0.481663 0.296527 -0.146441
C16   C     C_2   0.919170 0.516282 0.256675 0.295851
C17   C     C_R   0.036753 0.503195 0.102569 -0.078447
C18   C     C_R   0.028009 0.430667 0.125491 -0.134277
C19   C     C_R   0.044337 0.355138 0.095709 -0.021479
C20   C     C_R   0.016444 0.579484 0.131529 -0.033143
C21   C     C_2   0.852700 0.534038 0.360280 0.127366
C22   C     C_2   0.340650 0.475436 0.640326 -0.267051
C23   C     C_3   0.087597 0.269714 0.713237 0.720264
C24   C     C_R   0.162170 0.424149 0.973079 -0.008959
C25   C     C_R   0.060827 0.567099 0.973525 -0.054931
C26   C     C_R   0.129966 0.494806 0.947583 -0.042788
C27   C     C_R   0.261990 0.359210 0.950081 0.305036
C28   C     C_R   0.310105 0.360399 0.900117 0.358886
C29   C     C_R   0.253775 0.424889 0.871999 -0.053128
C30   C     C_R   0.167803 0.493440 0.896339 -0.218556
C31   C     C_R   0.123744 0.561605 0.869920 -0.082821
C32   C     C_R   0.165283 0.559173 0.818983 0.650791
C33   C     C_R   0.289336 0.424565 0.820717 0.622850
C34   C     C_3   0.206075 0.285692 0.407611 0.646001
C35   C     C_2   0.441683 0.476650 0.728593 0.017972
C36   C     C_3   0.485634 0.484725 0.675225 -0.035022
C37   C     C_1   0.203853 0.510755 0.655710 0.046389
C38   C     C_2   0.161850 0.509235 0.702828 -0.127340
C39   C     C_2   0.286919 0.490547 0.742536 0.197893
C40   C     C_R   0.101364 0.423519 0.022236 -0.014968
C41   C     C_R   0.065019 0.499644 0.050470 0.012481
C42   C     C_R   0.054514 0.572395 0.026659 0.041345
C43   C     C_R   0.073181 0.350797 0.044553 0.450929
C44   C     C_R   0.025075 0.651551 0.108347 -0.043213
C45   C     C_3   0.287056 0.210211 0.378942 -0.316954
C46   C     C_R   0.000501 0.631257 0.945481 0.294476
C47   C     C_R   0.037923 0.630244 0.894705 0.457590
C48   C     C_R   0.043305 0.648093 0.056943 -0.090471
C49   C     C_R   0.387458 0.266704 0.520920 -0.303515
C50   C     C_R   0.524765 0.240978 0.494826 0.028134
C51   C     C_R   0.573659 0.157825 0.488757 -0.197375
C52   C     C_R   0.483697 0.099407 0.508775 0.211290
C53   C     C_R   0.337108 0.126124 0.532420 0.314904
C54   C     C_R   0.290883 0.210029 0.538198 0.022136
C55   C     C_R   0.621165 0.854245 0.507834 -0.054227
C56   C     C_3   0.037901 0.726422 0.593770 0.959567
C57   C     C_R   0.665201 0.770785 0.502798 0.034828
C58   C     C_R   0.714388 0.909970 0.486294 0.297905
C59   C     C_R   0.797368 0.741985 0.475248 -0.230750
C60   C     C_R   0.901707 0.795720 0.458944 0.043585
C61   C     C_R   0.858888 0.880029 0.463457 -0.051562
C62   C     C_3   0.134552 0.803663 0.603216 0.303479
C63   C     C_3   0.669559 0.352849 0.372526 0.245928
C64   C     C_3   0.687479 0.320325 0.317392 0.663062
H1    H     H_    0.394682 0.656369 0.616808 -0.019733
H2    H     H_    0.040411 0.344576 0.653750 -0.017026
H3    H     H_    0.301636 0.323989 0.425673 0.003622
N1    N     N_R   0.969978 0.510849 0.204956 -0.422681
N2    N     N_R   0.244880 0.490970 0.794855 -0.449248
N3    N     N_2   0.533307 0.014384 0.505091 -0.223158
N4    N     N_2   0.670434 0.995647 0.488756 -0.204898
O1    O     O_2   0.915540 0.542930 0.617950 -0.466461
O2    O     O_3   0.622056 0.288498 0.397376 -0.693001
O3    O     O_3   0.070182 0.222692 0.625202 -0.542473
O4    O     O_2   0.274150 0.457040 0.382020 -0.490111
O5    O     O_3   0.042160 0.457070 0.442220 -0.437719
O6    O     O_3   0.525310 0.603770 0.411640 -0.451193
O7    O     O_3   0.108927 0.326787 0.373832 -0.607975
O8    O     O_3   0.637620 0.597020 0.524620 -0.475763
O9    O     O_3   0.118810 0.645070 0.435950 -0.433354
O10   O     O_2   0.236999 0.790584 0.468231 -0.421795
O11   O     O_3   0.133511 0.775920 0.375616 -0.543822
O12   O     O_3   0.147530 0.542870 0.557780 -0.466606
O13   O     O_3   0.552080 0.402920 0.475380 -0.498590
O14   O     O_2   0.387280 0.697260 0.523450 -0.429655
O15   O     O_3   0.573879 0.732075 0.602664 -0.631594
O16   O     O_2   0.435531 0.525490 0.323980 -0.493711
O17   O     O_3   0.432155 0.684716 0.326715 -0.555141
O18   O     O_2   0.980370 0.372514 0.196460 -0.527905
O19   O     O_2   0.358667 0.364635 0.798806 -0.535777
O20   O     O_2   0.975566 0.648652 0.208191 -0.542871
O21   O     O_2   0.133199 0.618532 0.796236 -0.496063
O22   O     O_3   0.664390 0.396160 0.588360 -0.456215
O23   O     O_2   0.814132 0.447537 0.673628 -0.496221
O24   O     O_3   0.089669 0.673002 0.629419 -0.703562
O25   O     O_3   0.655565 0.319972 0.679558 -0.576604
O26   O     O_2   0.802410 0.302720 0.476520 -0.416247
O27   O     O_3   0.070880 0.354870 0.564040 -0.490356
O28   O     O_2   0.957846 0.209419 0.532848 -0.401845
P1    P     P_3+3 0.086060 0.566890 0.610430 1.018532
P2    P     P_3+3 0.625290 0.314770 0.461990 0.993398
P3    P     P_3+3 0.097455 0.248703 0.564775 1.147347
P4    P     P_3+3 0.103630 0.433040 0.389570 1.065508
P5    P     P_3+3 0.097665 0.752285 0.435747 1.111758
P6    P     P_3+3 0.653205 0.412899 0.653419 1.025641
P7    P     P_3+3 0.569845 0.699617 0.538766 1.028296
P8    P     P_3+3 0.536112 0.597613 0.346367 1.000674
O29   O     O_3   0.729760 0.240117 0.608307 -0.687079
H4    H     H_    0.684118 0.199691 0.581558 0.272605
H5    H     H_    0.363422 0.229074 0.349868 0.098231
H6    H     H_    0.362690 0.175083 0.404671 0.066462
H7    H     H_    0.195179 0.169747 0.360265 0.122400
O30   O     O_3   0.875679 0.749504 0.600270 -0.746875
H8    H     H_    0.862442 0.767840 0.636297 0.286229
O31   O     O_3   0.061981 0.692230 0.544626 -0.690332
H9    H     H_    0.973271 0.655243 0.535450 0.287675
H10   H     H_    0.121245 0.830986 0.642578 0.048607
O32   O     O_3   0.079349 0.860604 0.570716 -0.711037
H11   H     H_    0.140748 0.910739 0.580692 0.318489
H12   H     H_    0.263868 0.787977 0.597408 0.059862
H13   H     H_    0.786069 0.374853 0.388173 0.010049
H14   H     H_    0.576535 0.403760 0.375800 0.012433
H15   H     H_    0.716078 0.148213 0.675246 0.118670
O33   O     O_3   0.826270 0.268529 0.311782 -0.643888
H16   H     H_    0.801611 0.215954 0.323948 0.289038
O34   O     O_3   0.701077 0.385326 0.288738 -0.729515
H17   H     H_    0.590918 0.401598 0.276988 0.293408
H18   H     H_    0.579905 0.285279 0.303912 -0.009564
H19   H     H_    0.493259 0.272922 0.625272 -0.150102
O35   O     O_3   0.501490 0.121944 0.640188 -0.724573
H20   H     H_    0.388103 0.143814 0.641353 0.351631
H21   H     H_    0.599398 0.616817 0.626320 -0.024491
O36   O     O_3   0.437192 0.786679 0.689933 -0.697604
H22   H     H_    0.517925 0.826564 0.684186 0.318690
O37   O     O_3   0.439294 0.657401 0.713832 -0.731133
H23   H     H_    0.322174 0.663748 0.706108 0.335838
H24   H     H_    0.642568 0.712798 0.699560 0.054597
O38   O     O_3   0.524538 0.197428 0.716695 -0.676111
H25   H     H_    0.612342 0.213138 0.741267 0.329506
O39   O     O_3   0.187871 0.202164 0.724719 -0.643823
H26   H     H_    0.255760 0.221215 0.755374 0.359387
O40   O     O_3   0.096291 0.675025 0.311189 -0.706000
H27   H     H_    0.137820 0.634694 0.333844 0.306141
H28   H     H_    0.917437 0.714355 0.359405 -0.141687
H29   H     H_    0.042076 0.820785 0.284398 0.145094
H30   H     H_    0.851918 0.774386 0.283445 0.102356
O41   O     O_3   0.884795 0.870368 0.338108 -0.766142
H31   H     H_    0.852209 0.911684 0.315027 0.316199
H32   H     H_    0.654033 0.739980 0.341267 -0.702949
O42   O     O_3   0.476570 0.793222 0.386553 -0.711304
H33   H     H_    0.514676 0.756465 0.411610 0.307352
H34   H     H_    0.571608 0.867741 0.310783 0.040395
O43   O     O_3   0.331535 0.845081 0.299970 -0.690412
H35   H     H_    0.319791 0.889075 0.328085 0.317669
O44   O     O_3   0.534217 0.778925 0.253418 -0.713612
H36   H     H_    0.444366 0.744688 0.240158 0.351202
H37   H     H_    0.139410 0.451089 0.286091 0.122089
H38   H     H_    0.026861 0.298579 0.111573 0.160650
H39   H     H_    0.536758 0.466889 0.756314 0.099303
O45   O     O_3   0.417740 0.300839 0.878878 -0.663353
H40   H     H_    0.497794 0.285559 0.904934 0.318683
O46   O     O_3   0.323887 0.298972 0.978377 -0.687008
H41   H     H_    0.335323 0.246588 0.956453 0.337149
O47   O     O_3   0.053840 0.275748 0.017129 -0.666712
H42   H     H_    0.018677 0.285369 0.982622 0.308785
O48   O     O_3   0.676871 0.584365 0.232970 -0.687234
H43   H     H_    0.585310 0.616082 0.248825 0.325595
H44   H     H_    0.014849 0.711263 0.129788 0.138257
O49   O     O_3   0.891308 0.691556 0.964927 -0.728681
H45   H     H_    0.822976 0.667249 0.988151 0.315220
H46   H     H_    0.243422 0.300811 0.656848 -0.410267
O50   O     O_3   0.985681 0.694473 0.867923 -0.642589
H47   H     H_    0.943277 0.741457 0.890577 0.363585
H48   H     H_    0.039770 0.526326 0.713546 0.137537
H49   H     H_    0.052451 0.705511 0.041391 0.143460
O51   O     O_3   0.838104 0.558079 0.410187 -0.721055
H50   H     H_    0.772373 0.516629 0.422593 0.305457
H51   H     H_    0.348066 0.440673 0.603790 0.055566
H52   H     H_    0.516835 0.875217 0.529247 0.096890
O52   O     O_3   0.236658 0.072633 0.550231 -0.697010
H53   H     H_    0.279597 0.015712 0.542475 0.324555
H54   H     H_    0.680445 0.139126 0.468014 0.133241
H55   H     H_    0.937556 0.922047 0.449629 0.106684
H56   H     H_    0.349508 0.330877 0.524799 0.084821
H57   H     H_    0.113548 0.326434 0.738745 -0.089497
H58   H     H_    0.826300 0.677360 0.470200 0.119798
O53   O     O_3   0.926779 0.251454 0.717862 -0.711912
H59   H     H_    0.911164 0.249762 0.754027 0.303577
O54   O     O_3   0.110997 0.261819 0.444541 -0.737718
H60   H     H_    0.028237 0.226475 0.427407 0.311186

loop_
_geom_bond_atom_site_label_1
_geom_bond_atom_site_label_2
_ccdc_geom_bond_type
C25   C46   A    
O3    P3    S    
C45   H7    S    
O26   P2    D    
O49   H45   S    
C50   P2    S    
C16   N1    S    
O44   H36   S    
C2    O25   S    
C34   O54   S    
C13   P8    S    
C17   C18   A    
C3    H1    S    
O34   H17   S    
C8    H34   S    
C55   H52   S    
O51   H50   S    
C9    N1    Am   
O36   H22   S    
C7    O42   S    
C51   C52   A    
C50   C51   A    
O33   H16   S    
C62   H10   S    
C11   C16   D    
C34   C45   S    
O5    P4    S    
C3    C4    S    
Ba1   O1    S    
O46   H41   S    
C35   C36   S    
Ba1   Ba2   S    
C12   H46   S    
C28   C29   A    
O15   P7    S    
C55   C57   A    
C31   C47   A    
O30   H8    S    
O16   P8    D    
C58   N4    S    
O27   P3    S    
C22   C37   D    
Ba2   O12   S    
C49   C54   A    
C63   H14   S    
C4    H24   S    
O50   H47   S    
C5    O40   S    
C21   O51   S    
C2    O29   S    
Ba2   O6    S    
C23   H57   S    
O52   H53   S    
C3    O15   S    
C25   C42   A    
C7    H32   S    
O14   P7    D    
C23   O39   S    
C14   C15   D    
C61   H55   S    
C22   H51   S    
C22   C36   S    
Ba2   O13   S    
C7    C8    S    
Ba1   P2    S    
O24   P1    S    
O1    P1    D    
C5    H28   S    
C33   O19   D    
C59   C60   A    
O9    P5    S    
C5    O11   S    
O8    P7    S    
C33   N2    Am   
O2    P2    S    
Ba1   O5    S    
C27   O46   S    
Ba1   O26   S    
C6    H30   S    
C56   O24   S    
O13   P2    S    
Ba1   O27   S    
C47   O50   S    
C17   C41   A    
C31   C32   A    
C2    H19   S    
C19   C43   A    
Ba1   O12   S    
C3    H21   S    
C9    C18   A    
C57   C59   A    
O6    P8    S    
O54   H60   S    
O48   H43   S    
C26   C30   A    
C17   C20   A    
O38   H25   S    
C54   P3    S    
C34   O7    S    
C51   H54   S    
C37   C38   D    
C38   H48   S    
O35   H20   S    
C11   O48   S    
C56   C62   S    
C56   O31   S    
O7    P4    S    
C59   H58   S    
O25   P6    S    
C44   H44   S    
C40   C43   A    
C12   O3    S    
C8    O43   S    
C41   C42   A    
C27   C28   A    
Ba2   O5    S    
C9    O18   D    
C36   P6    S    
C46   O49   S    
O11   P5    S    
C29   C30   A    
Ba1   O22   S    
C48   H49   S    
C53   C54   A    
C15   C16   S    
Ba2   O14   S    
O29   H4    S    
O42   H33   S    
C8    O44   S    
O22   P6    S    
C14   P4    S    
C46   C47   A    
C20   C44   A    
O23   P6    D    
O28   P3    D    
C11   C13   S    
O47   H42   S    
C10   C20   A    
C58   C61   A    
C10   O20   D    
Ba2   O9    S    
C4    O36   S    
C40   C41   A    
C28   O45   S    
C1    C2    S    
C25   C26   A    
O32   H11   S    
C24   C40   A    
C37   P1    S    
C35   H39   S    
O45   H40   S    
C43   O47   S    
C42   C48   A    
Ba1   O13   S    
C45   H6    S    
C10   N1    Am   
C52   C53   A    
C38   C39   S    
C32   O21   D    
N3    N4    D    
C55   C58   A    
C62   O32   S    
C7    O17   S    
C1    O35   S    
C1    H15   S    
C60   P5    S    
C14   C21   D    
O37   H23   S    
C44   C48   A    
Ba2   P4    S    
C24   C26   A    
C57   P7    S    
C63   O2    S    
O10   P5    D    
C39   N2    S    
O40   H27   S    
C30   C31   A    
C4    O37   S    
O4    P4    D    
C34   H3    S    
C49   C50   A    
C49   H56   S    
C23   O53   S    
O31   H9    S    
C56   O30   S    
C62   H12   S    
Ba1   P1    S    
C13   C21   S    
C19   H38   S    
C53   O52   S    
C64   O34   S    
C6    O41   S    
C29   C33   A    
C63   H13   S    
C12   C23   S    
C35   C39   D    
O53   H59   S    
C15   H37   S    
C5    C6    S    
C6    H29   S    
C64   O33   S    
C52   N3    S    
C18   C19   A    
C24   C27   A    
C63   C64   S    
O43   H35   S    
Ba2   O4    S    
C12   H2    S    
O39   H26   S    
Ba2   O8    S    
C1    O38   S    
O17   P8    S    
C60   C61   A    
O41   H31   S    
Ba1   O8    S    
C32   N2    Am   
O12   P1    S    
C45   H5    S    
C64   H18   S    
