data_mof_unit_56341.cif
_audit_creation_date              2012-12-11T15:59:32-0500
_audit_creation_method            fapswitch 2.2
_symmetry_space_group_name_H-M    P1
_symmetry_Int_Tables_number       1
_space_group_crystal_system       triclinic
_cell_length_a                    10.784183
_cell_length_b                    10.898842
_cell_length_c                    16.949538
_cell_angle_alpha                 99.775907
_cell_angle_beta                  99.417768
_cell_angle_gamma                 60.389756
_cell_volume                      1699.44462109

loop_
_atom_site_label
_atom_site_type_symbol
_atom_type_description
_atom_site_fract_x
_atom_site_fract_y
_atom_site_fract_z
_atom_type_partial_charge
C1    C     C_R   0.386935 0.700817 0.387892 0.567279
C2    C     C_R   0.803059 0.249951 0.191290 0.011903
C3    C     C_R   0.814985 0.231417 0.272570 0.018058
C4    C     C_R   0.920661 0.386548 0.311054 -0.142148
C5    C     C_R   0.929852 0.386827 0.230913 -0.118684
C6    C     C_R   0.738364 0.185067 0.132814 -0.098417
C7    C     C_R   0.706928 0.086901 0.153893 -0.079851
C8    C     C_R   0.733244 0.058072 0.233279 -0.114284
C9    C     C_R   0.787859 0.127248 0.291709 -0.101607
C10   C     C_R   0.852764 0.318435 0.331987 0.005227
C11   C     C_R   0.355849 0.787533 0.146254 -0.017279
C12   C     C_R   0.407935 0.374470 0.356565 0.566431
C13   C     C_R   0.478528 0.768599 0.196451 0.014884
C14   C     C_R   0.504758 0.721537 0.273651 -0.009093
C15   C     C_R   0.284035 0.703982 0.244431 0.084702
C16   C     C_R   0.272718 0.733994 0.166202 -0.137193
C17   C     C_R   0.556655 0.830091 0.181468 0.141063
C18   C     C_R   0.701027 0.760078 0.206114 0.055685
C19   C     C_R   0.738474 0.713470 0.281977 -0.138456
C20   C     C_R   0.634302 0.708316 0.319129 -0.097364
C21   C     C_R   0.393648 0.708468 0.301872 0.016756
C22   C     C_R   0.353936 0.350691 0.838086 0.000329
C23   C     C_R   0.780446 0.372976 0.405424 0.534395
C24   C     C_R   0.494324 0.271680 0.813238 0.022642
C25   C     C_R   0.515097 0.269554 0.732806 -0.002646
C26   C     C_R   0.271698 0.469689 0.717738 -0.145253
C27   C     C_R   0.246900 0.456431 0.792751 -0.140922
C28   C     C_R   0.611809 0.184653 0.865063 -0.106895
C29   C     C_R   0.735264 0.074134 0.834368 -0.059232
C30   C     C_R   0.752397 0.061226 0.753708 0.083811
C31   C     C_R   0.648132 0.161714 0.704721 -0.090140
C32   C     C_R   0.400225 0.371360 0.684202 -0.013607
C33   C     C_1   0.819132 0.342498 0.708716 -0.027712
C34   C     C_R   0.381454 0.714558 0.631166 0.537536
C35   C     C_1   0.846924 0.313764 0.776563 -0.015839
C36   C     C_1   0.359400 0.763232 0.713811 -0.019421
C37   C     C_1   0.327395 0.810335 0.781189 -0.006119
C38   C     C_R   0.899135 0.308547 0.089863 0.542956
C39   C     C_R   0.323103 0.304431 0.118111 0.552264
C40   C     C_R   0.298279 0.882127 0.081199 0.560685
C41   C     C_R   0.887937 0.296888 0.859082 0.554634
C42   C     C_R   0.312988 0.297307 0.897882 0.536253
C43   C     C_R   0.281625 0.880625 0.858210 0.558008
C44   C     C_R   0.411601 0.377611 0.599648 0.542692
C45   C     C_R   0.772860 0.381300 0.629452 0.543789
C46   C     C_1   0.378847 0.365423 0.271219 -0.010115
C47   C     C_1   0.352615 0.348210 0.199819 -0.022538
C48   C     C_R   0.864143 0.325763 0.170732 0.019693
Cr1   Cr    Cr6+3 0.608100 0.610860 0.522250 1.028009
Cr2   Cr    Cr6+3 0.288890 0.599990 0.488420 1.039034
Cr3   Cr    Cr6+3 0.603040 0.289190 0.489390 1.008197
Cr4   Cr    Cr6+3 0.053960 0.052250 0.967380 1.023923
Cr5   Cr    Cr6+3 0.059890 0.373160 0.992710 1.059477
Cr6   Cr    Cr6+3 0.373370 0.061690 0.991710 1.040865
H1    H     H_    0.959002 0.446151 0.356310 0.144937
H2    H     H_    0.845174 0.681088 0.311334 0.119068
H3    H     H_    0.659567 0.698235 0.381337 0.200512
H4    H     H_    0.184842 0.550314 0.683304 0.176537
H5    H     H_    0.606055 0.197102 0.929285 0.116382
H6    H     H_    0.140406 0.521863 0.812409 0.158835
H7    H     H_    0.819063 0.000789 0.873801 0.144455
H8    H     H_    0.677679 0.148310 0.645545 0.192237
H9    H     H_    0.715754 0.206192 0.070552 0.109018
H10   H     H_    0.987690 0.436429 0.216201 0.170002
H11   H     H_    0.668242 0.028849 0.108088 0.177628
H12   H     H_    0.720102 0.976521 0.250915 0.162171
H13   H     H_    0.818018 0.089827 0.350573 0.143749
H14   H     H_    0.183175 0.736505 0.125295 0.161306
O1    O     O_R   0.749810 0.499790 0.438040 -0.546115
O2    O     O_R   0.298970 0.468800 0.557390 -0.493494
O3    O     O_R   0.489400 0.255930 0.561910 -0.500490
O4    O     O_R   0.723890 0.306050 0.584610 -0.533654
O5    O     O_3   0.500010 0.500010 0.500020 -0.351499
O6    O     O_R   0.171100 0.914680 0.053100 -0.519119
O7    O     O_R   0.941680 0.184840 0.050710 -0.507813
O8    O     O_R   0.922080 0.403420 0.072610 -0.484085
O9    O     O_R   0.196880 0.369150 0.083850 -0.491027
O10   O     O_R   0.411730 0.181020 0.091530 -0.512886
O11   O     O_R   0.365010 0.944360 0.063320 -0.475521
O12   O     O_R   0.477660 0.726260 0.439290 -0.503772
O13   O     O_R   0.159380 0.906670 0.876210 -0.492349
O14   O     O_R   0.930820 0.177420 0.886730 -0.499398
O15   O     O_R   0.910360 0.395420 0.895720 -0.498591
O16   O     O_R   0.186010 0.361730 0.919870 -0.497454
O17   O     O_R   0.400000 0.173010 0.914630 -0.520973
O18   O     O_R   0.354140 0.936940 0.899340 -0.493984
O19   O     O_3   0.162410 0.162370 0.983930 -0.253798
O20   O     O_R   0.260150 0.743000 0.412270 -0.474877
O21   O     O_R   0.297740 0.466550 0.394720 -0.486497
O22   O     O_R   0.488080 0.253500 0.386430 -0.463345
O23   O     O_R   0.722670 0.303800 0.421940 -0.528180
O24   O     O_R   0.751130 0.502220 0.613520 -0.492669
O25   O     O_R   0.478890 0.728510 0.601960 -0.465315
O26   O     O_R   0.261470 0.745430 0.587750 -0.479084
I1    I     I_    0.850952 0.716251 0.125447 -0.469587
I2    I     I_    0.939403 0.894204 0.705621 -0.376563
N1    N     N_2   0.171838 0.688847 0.267148 -0.489205
H15   H     H_    0.147147 0.619573 0.227471 0.262293
C49   C     C_3   0.045354 0.823558 0.280500 -0.254566
H16   H     H_    0.999612 0.870519 0.222713 0.168071
H17   H     H_    0.966397 0.808129 0.305950 0.142054
H18   H     H_    0.070468 0.899607 0.322892 0.187163
I3    I     I_    0.436607 0.033413 0.245564 -0.336870

loop_
_geom_bond_atom_site_label_1
_geom_bond_atom_site_label_2
_ccdc_geom_bond_type
C19   H2    S    
C25   C31   A    
C1    C21   S    
C33   C45   S    
C23   O1    A    
C19   C20   A    
C34   O25   A    
Cr4   O7    S    
N1    H15   S    
C7    C8    A    
C38   O8    A    
C8    H12   S    
C26   C27   A    
Cr5   O16   S    
C39   O9    A    
C14   C21   A    
C12   O22   A    
C28   C29   A    
Cr4   O6    S    
C27   H6    S    
Cr3   O22   S    
C30   C31   A    
Cr3   O5    S    
C15   C16   A    
C41   O15   A    
C44   O3    A    
C18   C19   A    
C22   C24   A    
C45   O24   A    
C30   I2    S    
Cr3   O23   S    
C8    C9    A    
C22   C42   S    
C44   O2    A    
C16   H14   S    
C24   C28   A    
C38   C48   S    
Cr2   O20   S    
C1    O20   A    
Cr1   O1    S    
C13   C14   A    
C45   O4    A    
C18   I1    S    
C31   H8    S    
C2    C6    A    
Cr3   O3    S    
C15   N1    S    
N1    C49   S    
C38   O7    A    
C5    C48   A    
C29   H7    S    
C11   C40   S    
C39   O10   A    
C14   C20   A    
C12   O21   A    
C42   O16   A    
C24   C25   A    
C12   C46   S    
Cr2   O5    S    
Cr6   O18   S    
C26   C32   A    
Cr2   O26   S    
C2    C48   A    
C5    H10   S    
C6    H9    S    
C37   C43   S    
Cr5   O9    S    
C9    H13   S    
C29   C30   A    
C3    C9    A    
C7    H11   S    
C11   C16   A    
Cr2   O21   S    
C49   H16   S    
C17   C18   A    
C32   C44   S    
C40   O11   A    
Cr5   O19   S    
C42   O17   A    
Cr4   O14   S    
C26   H4    S    
C49   H17   S    
C22   C27   A    
C4    H1    S    
C43   O13   A    
C23   O23   A    
Cr5   O8    S    
Cr3   O4    S    
Cr1   O24   S    
C4    C10   A    
C39   C47   S    
Cr6   O11   S    
C28   H5    S    
C46   C47   T    
C36   C37   T    
C43   O18   A    
Cr4   O19   S    
C34   O26   A    
C4    C5    A    
Cr6   O17   S    
C6    C7    A    
C10   C23   S    
Cr1   O12   S    
C13   C17   A    
Cr5   O15   S    
C2    C3    A    
Cr2   O2    S    
C3    C10   A    
C11   C13   A    
Cr6   O19   S    
C25   C32   A    
C41   O14   A    
C33   C35   T    
C34   C36   S    
C40   O6    A    
Cr1   O5    S    
C17   I3    S    
Cr4   O13   S    
C35   C41   S    
C15   C21   A    
C49   H18   S    
C1    O12   A    
Cr1   O25   S    
C20   H3    S    
Cr6   O10   S    
