data_mof_unit_61105.cif
_audit_creation_date              2012-12-10T18:00:47-0500
_audit_creation_method            fapswitch 2.2
_symmetry_space_group_name_H-M    P1
_symmetry_Int_Tables_number       1
_space_group_crystal_system       triclinic
_cell_length_a                    38.540072
_cell_length_b                    21.629924
_cell_length_c                    21.650943
_cell_angle_alpha                 89.999911
_cell_angle_beta                  55.817922
_cell_angle_gamma                 89.999269
_cell_volume                      14930.8469068

loop_
_atom_site_label
_atom_site_type_symbol
_atom_type_description
_atom_site_fract_x
_atom_site_fract_y
_atom_site_fract_z
_atom_type_partial_charge
C1    C     C_R   0.999279 0.500084 0.380644 0.969132
C2    C     C_3   0.236544 0.538150 0.220762 0.336606
C3    C     C_3   0.736408 0.025655 0.315236 0.182502
C4    C     C_1   0.874392 0.499921 0.625645 -0.129562
C5    C     C_1   0.125609 0.499919 0.374352 -0.129867
C6    C     C_1   0.374391 0.999922 0.625628 -0.129689
C7    C     C_1   0.625609 0.999920 0.374367 -0.130051
C8    C     C_1   0.625594 0.499854 0.874337 -0.175975
C9    C     C_1   0.374406 0.499835 0.125660 -0.175646
C10   C     C_1   0.125594 0.999893 0.874346 -0.176453
C11   C     C_1   0.874406 0.999886 0.125654 -0.176196
C12   C     C_3   0.763498 0.442170 0.742405 0.337133
C13   C     C_3   0.263469 0.028598 0.786155 0.340893
C14   C     C_3   0.236500 0.442979 0.252434 0.340842
C15   C     C_3   0.263493 0.941894 0.735761 0.336877
C16   C     C_3   0.736507 0.941999 0.260795 0.340497
C17   C     C_3   0.791565 0.499553 0.708304 0.001929
C18   C     C_3   0.208436 0.499580 0.291672 0.001980
C19   C     C_3   0.291564 0.999586 0.708285 0.001938
C20   C     C_3   0.708436 0.999618 0.291686 0.002021
C21   C     C_3   0.735888 0.476548 0.816546 0.351016
C22   C     C_3   0.264111 0.481403 0.181574 0.351419
C23   C     C_3   0.235893 0.970684 0.813549 0.350656
C24   C     C_3   0.736533 0.031536 0.215615 0.337095
C25   C     C_3   0.764109 0.973707 0.184802 0.350940
C26   C     C_3   0.748760 0.569290 0.598120 -0.708007
C27   C     C_3   0.251239 0.549936 0.409271 -0.706205
C28   C     C_3   0.248723 0.086505 0.607207 -0.708865
C29   C     C_3   0.751261 0.072854 0.400197 -0.707713
C30   C     C_3   0.403344 0.334083 0.139597 -0.751488
C31   C     C_3   0.596657 0.334072 0.860420 -0.748597
C32   C     C_3   0.903324 0.834082 0.139507 -0.746794
C33   C     C_3   0.096676 0.834075 0.860505 -0.744614
C34   C     C_3   0.735707 0.558980 0.757108 -0.278990
C35   C     C_3   0.264306 0.558124 0.248165 -0.321480
C36   C     C_3   0.235711 0.059440 0.763993 -0.278846
C37   C     C_3   0.764301 0.059356 0.239505 -0.321096
C38   C     C_1   0.836944 0.499737 0.663058 0.094091
C39   C     C_1   0.163056 0.499740 0.336933 0.094228
C40   C     C_1   0.336944 0.999747 0.663034 0.094183
C41   C     C_R   0.000721 0.500084 0.619356 0.969250
C42   C     C_1   0.663056 0.999750 0.336954 0.094242
C43   C     C_1   0.663036 0.499752 0.836587 0.062358
C44   C     C_1   0.336964 0.499713 0.163409 0.062576
C45   C     C_1   0.163035 0.999832 0.836614 0.062242
C46   C     C_1   0.836965 0.999818 0.163388 0.062425
C47   C     C_R   0.026729 0.538553 0.255674 0.311612
C48   C     C_R   0.973273 0.538559 0.744325 0.311591
C49   C     C_R   0.526726 0.038559 0.255676 0.311814
C50   C     C_R   0.473278 0.038568 0.744321 0.311809
C51   C     C_R   0.025969 0.539621 0.191752 0.317750
C52   C     C_R   0.499279 0.000084 0.380643 0.969228
C53   C     C_R   0.974033 0.539627 0.808245 0.317756
C54   C     C_R   0.525966 0.039628 0.191755 0.317952
C55   C     C_R   0.474039 0.039636 0.808241 0.318041
C56   C     C_R   0.000302 0.497230 0.186161 -0.342331
C57   C     C_R   0.999698 0.497230 0.813840 -0.342800
C58   C     C_R   0.500302 0.997231 0.186159 -0.342458
C59   C     C_R   0.499697 0.997231 0.813842 -0.342859
C60   C     C_R   0.973470 0.456304 0.244869 0.373152
C61   C     C_R   0.026525 0.456297 0.755137 0.373778
C62   C     C_R   0.473478 0.956296 0.244861 0.373282
C63   C     C_R   0.500720 0.000083 0.619357 0.969657
C64   C     C_R   0.526515 0.956286 0.755148 0.374048
C65   C     C_R   0.970389 0.460867 0.311499 0.376341
C66   C     C_R   0.029605 0.460858 0.688507 0.376879
C67   C     C_R   0.470396 0.960857 0.311491 0.376048
C68   C     C_R   0.529596 0.960844 0.688518 0.377154
C69   C     C_R   0.918787 0.499998 0.581257 0.882261
C70   C     C_R   0.081213 0.499997 0.418743 0.882609
C71   C     C_R   0.418787 0.999998 0.581253 0.882484
C72   C     C_R   0.581213 0.999997 0.418746 0.883140
C73   C     C_R   0.998102 0.500533 0.315632 -0.345101
C74   C     C_3   0.708373 0.499822 0.790737 0.000489
C75   C     C_R   0.001897 0.500532 0.684369 -0.346345
C76   C     C_R   0.498103 0.000532 0.315630 -0.345533
C77   C     C_R   0.501896 0.000530 0.684371 -0.346594
C78   C     C_R   0.500000 0.379835 0.000000 0.980713
C79   C     C_R   1.000000 0.879836 0.000000 0.980784
C80   C     C_R   0.581207 0.500011 0.918824 0.888394
C81   C     C_R   0.418793 0.500010 0.081176 0.888486
C82   C     C_R   0.081207 0.000013 0.918825 0.888428
C83   C     C_R   0.918793 0.000013 0.081175 0.888459
C84   C     C_R   0.500000 0.620103 1.000000 0.853104
C85   C     C_3   0.291627 0.499755 0.209264 0.000522
C86   C     C_R   0.000000 0.120103 1.000000 0.852733
C87   C     C_R   0.000000 0.379513 0.999999 0.803450
C88   C     C_R   0.500000 0.879513 0.999999 0.803444
C89   C     C_R   0.000038 0.498848 0.120261 0.979499
C90   C     C_R   0.999961 0.498848 0.879739 0.979489
C91   C     C_R   0.500039 0.998849 0.120261 0.979371
C92   C     C_R   0.499961 0.998849 0.879739 0.979409
C93   C     C_R   1.000000 0.620251 0.000000 1.059155
C94   C     C_R   0.500000 0.120251 0.000001 1.059149
C95   C     C_R   0.470585 0.282454 0.066322 0.062743
C96   C     C_3   0.208372 0.999956 0.790788 0.000450
C97   C     C_R   0.529414 0.282452 0.933681 0.062421
C98   C     C_R   0.970568 0.782457 0.066309 0.062305
C99   C     C_R   0.029431 0.782456 0.933694 0.062096
C100  C     C_R   0.970558 0.717748 0.066337 0.329591
C101  C     C_R   0.029441 0.717747 0.933664 0.329690
C102  C     C_R   0.470574 0.217745 0.066349 0.329141
C103  C     C_R   0.529424 0.217744 0.933653 0.329266
C104  C     C_R   0.999999 0.686585 0.000000 -0.189459
C105  C     C_R   0.499999 0.186583 0.000001 -0.189538
C106  C     C_3   0.735722 0.464201 0.715801 -0.323255
C107  C     C_3   0.791628 0.999929 0.209218 0.000444
C108  C     C_3   0.264268 0.460013 0.280815 -0.282033
C109  C     C_3   0.235709 0.970053 0.712073 -0.323226
C110  C     C_3   0.764278 0.967053 0.286082 -0.281886
C111  C     C_R   0.499999 0.313702 0.000001 -0.184400
C112  C     C_R   1.000000 0.813704 0.000001 -0.183944
C113  C     C_R   0.526333 0.717908 0.014424 -0.167527
C114  C     C_R   0.473668 0.717909 0.985572 -0.167252
C115  C     C_R   0.026339 0.217907 0.014411 -0.167973
C116  C     C_R   0.973663 0.217909 0.985585 -0.167859
C117  C     C_R   0.026811 0.281812 0.013259 -0.166732
C118  C     C_3   0.763459 0.534104 0.782505 0.340495
C119  C     C_R   0.973191 0.281813 0.986737 -0.166990
C120  C     C_R   0.526806 0.781812 0.013272 -0.166376
C121  C     C_R   0.473196 0.781814 0.986724 -0.166574
C122  C     C_R   0.000001 0.313434 0.999998 0.004999
C123  C     C_R   0.500001 0.813435 0.999998 0.004797
C124  C     C_R   0.500001 0.686245 0.999999 -0.013733
C125  C     C_R   0.000001 0.186245 0.999999 -0.013336
C126  C     C_3   0.763599 0.522603 0.683340 0.181682
C127  C     C_3   0.236403 0.517809 0.318479 0.182237
C128  C     C_3   0.263590 0.028590 0.686346 0.181974
H1    H     H_    0.546845 0.693203 0.025280 0.151928
H2    H     H_    0.275869 0.427869 0.305345 0.170823
H3    H     H_    0.224130 0.946212 0.681576 0.175482
H4    H     H_    0.775882 0.940528 0.314904 0.171643
H5    H     H_    0.724108 0.607059 0.763280 0.173012
H6    H     H_    0.275885 0.605473 0.246593 0.176813
H7    H     H_    0.224115 0.107828 0.775735 0.172670
H8    H     H_    0.775873 0.107663 0.230932 0.176366
H9    H     H_    0.801940 0.518612 0.567576 0.236777
H10   H     H_    0.764465 0.590001 0.541590 0.242047
H11   H     H_    0.728981 0.605392 0.639859 0.247359
H12   H     H_    0.453157 0.693206 0.974717 0.152245
H13   H     H_    0.728644 0.530394 0.602528 0.233417
H14   H     H_    0.198122 0.572687 0.411661 0.232714
H15   H     H_    0.235530 0.561907 0.469156 0.242500
H16   H     H_    0.271439 0.589295 0.374808 0.232584
H17   H     H_    0.270935 0.508311 0.397374 0.246662
H18   H     H_    0.301903 0.033542 0.570638 0.235965
H19   H     H_    0.264414 0.111778 0.553330 0.241455
H20   H     H_    0.228958 0.119842 0.652954 0.247282
H21   H     H_    0.228593 0.049682 0.607278 0.233942
H22   H     H_    0.698135 0.087958 0.399844 0.232861
H23   H     H_    0.046854 0.193203 0.025257 0.151553
H24   H     H_    0.735560 0.091150 0.457861 0.241634
H25   H     H_    0.771460 0.109706 0.360144 0.232756
H26   H     H_    0.770957 0.032811 0.394277 0.247505
H27   H     H_    0.932863 0.444335 0.418103 0.320459
H28   H     H_    0.067129 0.444314 0.581907 0.322492
H29   H     H_    0.432872 0.944314 0.418091 0.320970
H30   H     H_    0.567118 0.944286 0.581921 0.323077
H31   H     H_    0.437502 0.300598 0.180750 0.238936
H32   H     H_    0.384524 0.292335 0.147281 0.238516
H33   H     H_    0.410306 0.359629 0.089324 0.239451
H34   H     H_    0.953147 0.193205 0.974740 0.151706
H35   H     H_    0.384591 0.364698 0.188880 0.238849
H36   H     H_    0.562504 0.300596 0.819253 0.238497
H37   H     H_    0.615468 0.292319 0.852764 0.238624
H38   H     H_    0.589693 0.359631 0.910687 0.239892
H39   H     H_    0.615421 0.364670 0.811125 0.238906
H40   H     H_    0.937443 0.800603 0.180740 0.239089
H41   H     H_    0.884517 0.792331 0.147141 0.238872
H42   H     H_    0.910308 0.859642 0.089228 0.239897
H43   H     H_    0.884548 0.864682 0.188797 0.238985
H44   H     H_    0.062561 0.800603 0.819262 0.238593
H45   H     H_    0.047427 0.306556 0.023834 0.149251
H46   H     H_    0.115482 0.792322 0.852873 0.238972
H47   H     H_    0.089690 0.859634 0.910786 0.240218
H48   H     H_    0.115455 0.864675 0.811217 0.239039
H49   H     H_    0.919300 0.708993 0.167007 0.345094
H50   H     H_    0.080700 0.708990 0.832995 0.344921
H51   H     H_    0.419340 0.208990 0.167050 0.344956
H52   H     H_    0.580660 0.208985 0.832956 0.344883
H53   H     H_    0.753314 0.585902 0.862826 0.351909
H54   H     H_    0.246694 0.596068 0.145388 0.353372
H55   H     H_    0.253345 0.071971 0.871949 0.351965
H56   H     H_    0.952575 0.306559 0.976162 0.149181
H57   H     H_    0.746665 0.079328 0.132522 0.353455
H58   H     H_    0.745769 0.441601 0.886635 0.360564
H59   H     H_    0.254226 0.453819 0.108668 0.360610
H60   H     H_    0.245781 0.926736 0.879066 0.360763
H61   H     H_    0.754222 0.934318 0.116808 0.360743
H62   H     H_    0.753396 0.355423 0.762166 0.351626
H63   H     H_    0.246595 0.357452 0.224919 0.350366
H64   H     H_    0.253379 0.854614 0.745520 0.351386
H65   H     H_    0.746617 0.854849 0.245872 0.350052
H66   H     H_    0.080917 0.579219 0.209642 0.353447
H67   H     H_    0.547418 0.806557 0.023857 0.149398
H68   H     H_    0.919088 0.579234 0.790353 0.353891
H69   H     H_    0.580910 0.079236 0.209648 0.353740
H70   H     H_    0.419099 0.079260 0.790344 0.354069
H71   H     H_    0.053254 0.619696 0.156157 0.349637
H72   H     H_    0.946754 0.619707 0.843835 0.349531
H73   H     H_    0.553243 0.119709 0.156168 0.349353
H74   H     H_    0.446771 0.119725 0.843819 0.349264
H75   H     H_    0.962288 0.400977 0.186954 0.321679
H76   H     H_    0.037704 0.400971 0.813057 0.321577
H77   H     H_    0.462301 0.900970 0.186938 0.321712
H78   H     H_    0.452585 0.806559 0.976139 0.149410
H79   H     H_    0.537688 0.900961 0.813079 0.321581
H80   H     H_    0.724148 0.435665 0.688319 0.174795
N1    N     N_2   0.780092 0.547292 0.609707 -0.285940
N2    N     N_2   0.219912 0.537710 0.393945 -0.283047
N3    N     N_2   0.280068 0.059700 0.615939 -0.285840
N4    N     N_2   0.719926 0.053948 0.387171 -0.283814
N5    N     N_2   0.441813 0.316840 0.132126 -0.288518
N6    N     N_2   0.558190 0.316837 0.867880 -0.289271
N7    N     N_2   0.941777 0.816844 0.132097 -0.289472
N8    N     N_2   0.058225 0.816842 0.867907 -0.290097
O1    O     O_R   0.000010 0.448280 0.408380 -0.617347
O2    O     O_R   0.034780 0.499940 0.873570 -0.611639
O3    O     O_R   0.465220 0.999940 0.126430 -0.611998
O4    O     O_R   0.534780 0.999940 0.873570 -0.611458
O5    O     O_R   0.034810 0.591520 0.965270 -0.578667
O6    O     O_R   0.965190 0.591520 0.034730 -0.578784
O7    O     O_R   0.534810 0.091520 0.965270 -0.578757
O8    O     O_R   0.465190 0.091520 0.034730 -0.578939
O9    O     O_R   0.000010 0.551730 0.408430 -0.570702
O10   O     O_R   0.999990 0.551730 0.591570 -0.571194
O11   O     O_R   0.500010 0.051730 0.408430 -0.571047
O12   O     O_R   0.999990 0.448280 0.591620 -0.617352
O13   O     O_R   0.499990 0.051730 0.591570 -0.571294
O14   O     O_R   0.938390 0.448280 0.561610 -0.611823
O15   O     O_R   0.061610 0.448280 0.438390 -0.610028
O16   O     O_R   0.438390 0.948280 0.561610 -0.611069
O17   O     O_R   0.561610 0.948280 0.438390 -0.609376
O18   O     O_R   0.938400 0.551730 0.561660 -0.605285
O19   O     O_R   0.061600 0.551730 0.438340 -0.608400
O20   O     O_R   0.438400 0.051730 0.561660 -0.606360
O21   O     O_R   0.561600 0.051730 0.438340 -0.609784
O22   O     O_R   0.500010 0.408260 0.948350 -0.606297
O23   O     O_R   0.500010 0.948280 0.408380 -0.617221
O24   O     O_R   0.499990 0.408260 0.051650 -0.606062
O25   O     O_R   0.000010 0.908260 0.948350 -0.606064
O26   O     O_R   0.999990 0.908260 0.051650 -0.605893
O27   O     O_R   0.561620 0.499890 0.886700 -0.610206
O28   O     O_R   0.438380 0.499890 0.113300 -0.610290
O29   O     O_R   0.061620 0.999890 0.886700 -0.610049
O30   O     O_R   0.938380 0.999890 0.113300 -0.610141
O31   O     O_R   0.561610 0.499990 0.990150 -0.609336
O32   O     O_R   0.438390 0.499990 0.009850 -0.608841
O33   O     O_R   0.061610 0.999990 0.990150 -0.609881
O34   O     O_R   0.499990 0.948280 0.591620 -0.617279
O35   O     O_R   0.938390 0.999990 0.009850 -0.609447
O36   O     O_R   0.500010 0.591500 0.948260 -0.618906
O37   O     O_R   0.499990 0.591500 0.051740 -0.619120
O38   O     O_R   0.000010 0.091500 0.948260 -0.619116
O39   O     O_R   0.999990 0.091500 0.051740 -0.619277
O40   O     O_R   0.034760 0.408280 0.965230 -0.632587
O41   O     O_R   0.965240 0.408280 0.034770 -0.632948
O42   O     O_R   0.534760 0.908280 0.965230 -0.632431
O43   O     O_R   0.465240 0.908280 0.034770 -0.632749
O44   O     O_3   0.940584 0.424855 0.370605 -0.671521
O45   O     O_R   0.034780 0.499900 0.056880 -0.580635
O46   O     O_3   0.059406 0.424835 0.629406 -0.667728
O47   O     O_3   0.440597 0.924834 0.370591 -0.670175
O48   O     O_3   0.559388 0.924808 0.629425 -0.666644
O49   O     O_3   0.943212 0.683318 0.129612 -0.741717
O50   O     O_3   0.056787 0.683317 0.870388 -0.741829
O51   O     O_3   0.443244 0.183314 0.129634 -0.741970
O52   O     O_3   0.556755 0.183311 0.870369 -0.741877
O53   O     O_3   0.778596 0.569260 0.816729 -0.723148
O54   O     O_3   0.221410 0.577615 0.189896 -0.725359
O55   O     O_3   0.278621 0.057827 0.824075 -0.723650
O56   O     O_R   0.965220 0.499900 0.943120 -0.580713
O57   O     O_3   0.721387 0.063862 0.179511 -0.725917
O58   O     O_3   0.720555 0.452330 0.887312 -0.733819
O59   O     O_3   0.279441 0.462269 0.108859 -0.733354
O60   O     O_3   0.220565 0.940238 0.881158 -0.734132
O61   O     O_3   0.779438 0.946405 0.115486 -0.733772
O62   O     O_3   0.778664 0.382056 0.735087 -0.725240
O63   O     O_3   0.221330 0.383820 0.254381 -0.723102
O64   O     O_3   0.278651 0.881271 0.721474 -0.724552
O65   O     O_3   0.721346 0.881536 0.271498 -0.722327
O66   O     O_3   0.055558 0.572433 0.260551 -0.729122
O67   O     O_R   0.534780 0.999900 0.056880 -0.580566
O68   O     O_3   0.944446 0.572444 0.739446 -0.728617
O69   O     O_3   0.555552 0.072445 0.260555 -0.729450
O70   O     O_3   0.444456 0.072463 0.739437 -0.728843
O71   O     O_3   0.048815 0.582222 0.135125 -0.732527
O72   O     O_3   0.951191 0.582233 0.864870 -0.732531
O73   O     O_3   0.548807 0.082234 0.135132 -0.732590
O74   O     O_3   0.451203 0.082250 0.864859 -0.732635
O75   O     O_3   0.949107 0.412263 0.239966 -0.672932
O76   O     O_3   0.050884 0.412250 0.760044 -0.671175
O77   O     O_3   0.449120 0.912248 0.239952 -0.672257
O78   O     O_R   0.465220 0.999900 0.943120 -0.580679
O79   O     O_3   0.550867 0.912230 0.760063 -0.670518
O80   O     O_R   0.965220 0.499940 0.126430 -0.612022
Zn1   Zn    Zn3+2 0.000000 0.430930 0.500000 1.043198
Zn2   Zn    Zn3+2 0.953550 0.499890 0.046410 1.053206
Zn3   Zn    Zn3+2 0.546450 0.999890 0.953590 1.054841
Zn4   Zn    Zn3+2 0.453550 0.999890 0.046410 1.053575
Zn5   Zn    Zn3+2 0.500000 0.930930 0.500000 1.044237
Zn6   Zn    Zn3+2 1.000000 0.569080 0.500000 1.055422
Zn7   Zn    Zn3+2 0.500000 0.069080 0.500000 1.053175
Zn8   Zn    Zn3+2 0.500010 0.499860 0.930960 1.003459
Zn9   Zn    Zn3+2 0.499990 0.499860 0.069040 1.003131
Zn10  Zn    Zn3+2 0.000010 0.999860 0.930960 1.002975
Zn11  Zn    Zn3+2 0.999990 0.999860 0.069040 1.002753
Zn12  Zn    Zn3+2 0.046450 0.499890 0.953590 1.054278

loop_
_geom_bond_atom_site_label_1
_geom_bond_atom_site_label_2
_ccdc_geom_bond_type
C2    C35   S    
O20   Zn7   S    
C55   C59   A    
C15   C109  S    
C82   O33   A    
C98   N7    S    
C21   O58   S    
C48   O68   S    
C31   N6    S    
H40   N7    S    
C15   O64   S    
C106  H80   S    
O4    Zn3   S    
C100  C104  A    
C7    C42   T    
C52   O23   A    
C32   N7    S    
C2    C22   S    
C27   H15   S    
O45   Zn12  S    
C58   C91   S    
C95   C102  A    
C118  O53   S    
O39   Zn11  S    
O30   Zn11  S    
C78   O22   A    
C121  H78   S    
C35   H6    S    
C4    C69   S    
C6    C71   S    
C57   C90   S    
C98   C112  A    
C26   H11   S    
O15   Zn1   S    
C10   C82   S    
H22   N4    S    
C5    C70   S    
C47   O66   S    
H49   O49   S    
C113  C120  A    
C52   O11   A    
C67   O47   S    
C27   H17   S    
C80   O31   A    
C35   C127  S    
C97   C103  A    
C17   C118  S    
H28   O46   S    
C87   O40   A    
H29   O47   S    
C31   H39   S    
C60   C65   A    
H30   O48   S    
C97   N6    S    
C5    C39   T    
O37   Zn9   S    
C107  C110  S    
C6    C40   T    
H76   O76   S    
C89   O45   A    
C36   H7    S    
C22   O59   S    
C25   C107  S    
C29   N4    S    
C117  H45   S    
C16   C25   S    
C41   O10   A    
C28   H19   S    
H65   O65   S    
H62   O62   S    
O32   Zn8   S    
H68   O68   S    
C87   C122  S    
C20   C42   S    
H58   O58   S    
C57   C61   A    
H60   O60   S    
C96   C109  S    
O1    Zn1   S    
C30   N5    S    
C113  C124  A    
C21   C74   S    
C70   O19   A    
C79   O25   A    
O2    Zn12  S    
C121  C123  A    
O67   Zn3   S    
O41   Zn2   S    
C60   O75   S    
C3    C37   S    
C115  H23   S    
H74   O74   S    
C72   O21   A    
C11   C46   T    
H79   O79   S    
H44   N8    S    
H70   O70   S    
C34   C118  S    
C101  O50   S    
C87   O41   A    
H18   N3    S    
C28   N3    S    
C64   C68   A    
C81   O28   A    
C128  N3    S    
C3    C110  S    
C13   C23   S    
C22   C85   S    
C70   O15   A    
C88   O43   A    
C31   H37   S    
C91   O67   A    
C78   C111  S    
O36   Zn8   S    
O19   Zn6   S    
C114  H12   S    
C108  H2    S    
C41   O12   A    
C28   H21   S    
O17   Zn5   S    
C94   O8    A    
C36   C128  S    
H52   O52   S    
O5    Zn12  S    
H53   O53   S    
C48   C53   A    
C68   C77   A    
H55   O55   S    
O11   Zn7   S    
C7    C72   S    
H36   N6    S    
O7    Zn3   S    
C117  C122  A    
O42   Zn3   S    
C63   O34   A    
C10   C45   T    
C24   C37   S    
C103  C105  A    
C33   H46   S    
C56   C89   S    
C102  O51   S    
C44   C85   S    
C26   H13   S    
O56   Zn2   S    
C68   O48   S    
C52   C76   S    
C126  N1    S    
H50   O50   S    
C89   O80   A    
O22   Zn8   S    
C86   O38   A    
C80   O27   A    
C116  C125  A    
C14   C22   S    
O14   Zn1   S    
O28   Zn9   S    
C35   C85   S    
C14   C108  S    
O38   Zn10  S    
C17   C38   S    
C90   O2    A    
C19   C40   S    
C84   O37   A    
H66   O66   S    
C29   H26   S    
H59   O59   S    
C14   O63   S    
C58   C62   A    
C32   H41   S    
C94   C105  S    
H31   N5    S    
C8    C43   T    
C16   C110  S    
O33   Zn11  S    
C15   C19   S    
C79   C112  S    
C51   O71   S    
C37   C107  S    
C13   O55   S    
C54   C58   A    
C97   C111  A    
C17   C126  S    
C84   O36   A    
C99   N8    S    
C92   O78   A    
C19   C128  S    
C72   O17   A    
C102  C105  A    
H75   O75   S    
C16   O65   S    
C33   H48   S    
O23   Zn5   S    
C114  C121  A    
C115  C117  A    
C12   C17   S    
C109  H3    S    
H73   O73   S    
C110  H4    S    
C93   O6    A    
C85   C108  S    
C120  C123  A    
C88   O42   A    
C63   O13   A    
O80   Zn2   S    
O25   Zn10  S    
C81   O32   A    
C30   H35   S    
C2    O54   S    
C28   H20   S    
C120  H67   S    
C13   C19   S    
C47   C73   A    
C53   C57   A    
C47   C51   A    
C11   C83   S    
C27   N2    S    
C56   C60   A    
H9    N1    S    
C18   C39   S    
C21   C118  S    
C41   C75   S    
C23   O60   S    
C109  C128  S    
C34   C126  S    
O21   Zn7   S    
C27   H16   S    
O18   Zn6   S    
C37   H8    S    
C3    C20   S    
C103  O52   S    
H63   O63   S    
O3    Zn4   S    
C34   C74   S    
H54   O54   S    
C32   H43   S    
C101  C104  A    
C98   C100  A    
O10   Zn6   S    
O13   Zn7   S    
C1    O9    A    
O9    Zn6   S    
C26   H10   S    
H72   O72   S    
O16   Zn5   S    
O40   Zn12  S    
C61   O76   S    
C106  C126  S    
C1    C73   S    
C54   O73   S    
C66   C75   A    
C64   O79   S    
C59   C92   S    
O26   Zn11  S    
C50   C77   A    
C1    O1    A    
C30   H33   S    
C66   O46   S    
C55   O74   S    
O24   Zn9   S    
H51   O51   S    
O27   Zn8   S    
C2    C18   S    
C14   C18   S    
C30   H32   S    
C49   O69   S    
C59   C64   A    
C113  H1    S    
C62   C67   A    
C116  H34   S    
C100  O49   S    
C49   C54   A    
C62   O77   S    
C65   C73   A    
C23   C96   S    
C51   C56   A    
C79   O26   A    
C92   O4    A    
C127  N2    S    
C61   C66   A    
C20   C24   S    
C71   O16   A    
C16   C20   S    
C114  C124  A    
C43   C74   S    
C15   C23   S    
O6    Zn2   S    
C86   C125  S    
C48   C75   A    
C88   C123  S    
C93   C104  S    
C33   N8    S    
C24   O57   S    
O43   Zn4   S    
C65   O44   S    
C24   C25   S    
C13   C36   S    
C25   O61   S    
C53   O72   S    
O31   Zn9   S    
C34   H5    S    
C86   O39   A    
H61   O61   S    
C12   C21   S    
C69   O18   A    
O78   Zn4   S    
H57   O57   S    
C18   C127  S    
C74   C106  S    
C36   C96   S    
C31   H38   S    
C46   C107  S    
C49   C76   A    
C71   O20   A    
H64   O64   S    
C94   O7    A    
C95   N5    S    
H14   N2    S    
H77   O77   S    
C12   O62   S    
O29   Zn10  S    
C29   H25   S    
C63   C77   S    
C119  C122  A    
C3    N4    S    
C32   H42   S    
C9    C44   T    
C78   O24   A    
C82   O29   A    
C83   O35   A    
O12   Zn1   S    
C90   O56   A    
C4    C38   T    
H69   O69   S    
C84   C124  S    
O34   Zn5   S    
H71   O71   S    
C50   C55   A    
C115  C125  A    
C116  C119  A    
C95   C111  A    
C69   O14   A    
C29   H24   S    
C12   C106  S    
H27   O44   S    
O35   Zn10  S    
C99   C112  A    
C83   O30   A    
C26   N1    S    
C119  H56   S    
C108  C127  S    
C91   O3    A    
C33   H47   S    
O8    Zn4   S    
C8    C80   S    
C93   O5    A    
C67   C76   A    
C45   C96   S    
C99   C101  A    
C50   O70   S    
C9    C81   S    
