data_mof_unit_39974.cif
_audit_creation_date              2012-10-26T20:50:47-0400
_audit_creation_method            fapswitch 2.2
_symmetry_space_group_name_H-M    P1
_symmetry_Int_Tables_number       1
_space_group_crystal_system       triclinic
_cell_length_a                    11.073122
_cell_length_b                    10.834799
_cell_length_c                    9.587249
_cell_angle_alpha                 90.913045
_cell_angle_beta                  102.568615
_cell_angle_gamma                 91.127999
_cell_volume                      1122.2081732

loop_
_atom_site_label
_atom_site_type_symbol
_atom_type_description
_atom_site_fract_x
_atom_site_fract_y
_atom_site_fract_z
_atom_type_partial_charge
C1    C     C_R   0.495091 0.262580 0.497791 0.554496
C2    C     C_R   0.405240 0.445724 0.047678 0.350723
C3    C     C_R   0.404046 0.449647 0.899380 0.073636
C4    C     C_R   0.262713 0.497102 0.442136 0.577868
C5    C     C_R   0.606418 0.525859 0.954130 0.111946
C6    C     C_3   0.689270 0.637670 0.970782 0.150045
C7    C     C_3   0.685670 0.642159 0.128878 0.300857
C8    C     C_R   0.491611 0.737504 0.498441 0.591237
C9    C     C_R   0.736853 0.496379 0.557473 0.572619
C10   C     C_2   0.127276 0.490285 0.409337 0.257491
C11   C     C_2   0.065188 0.463198 0.512197 0.361425
C12   C     C_R   0.476342 0.129881 0.492409 -0.028194
C13   C     C_2   0.871513 0.490072 0.587377 -0.034200
C14   C     C_2   0.930075 0.457589 0.483995 0.380460
C15   C     C_R   0.481812 0.066583 0.618027 -0.069734
C16   C     C_R   0.440635 0.063292 0.362536 -0.069821
C17   C     C_R   0.433476 0.933651 0.362250 0.245188
C18   C     C_R   0.469332 0.870359 0.493231 0.019441
C19   C     C_R   0.477841 0.940152 0.618971 0.039261
C20   C     C_3   0.560043 0.939612 0.764588 0.560229
C21   C     C_3   0.566442 0.079756 0.761167 -0.135314
C22   C     C_R   0.605090 0.529123 0.100296 0.149089
Cl1   Cl    Cl    0.288284 0.354578 0.095072 -0.453194
Cl2   Cl    Cl    0.838956 0.604294 0.942351 -0.437020
Cl3   Cl    Cl    0.050939 0.523602 0.232875 -0.374382
Cl4   Cl    Cl    0.374485 0.857478 0.197203 -0.352320
Cl5   Cl    Cl    0.478780 0.884582 0.893394 -0.420802
Cu1   Cu    Cu3+1 0.499990 0.499980 0.640670 1.076200
Cu2   Cu    Cu3+1 0.500010 0.500020 0.359330 1.191476
F1    F     F_    0.865668 0.415605 0.353701 -0.588310
F2    F     F_    0.623632 0.743397 0.164239 -0.544900
F3    F     F_    0.126493 0.441714 0.648546 -0.639507
F4    F     F_    0.673098 0.886451 0.767016 -0.591398
H1    H     H_    0.659221 0.117796 0.755384 0.176424
H2    H     H_    0.327349 0.407907 0.823131 0.222449
H3    H     H_    0.645857 0.714973 0.908192 0.254908
H4    H     H_    0.775595 0.626982 0.203895 0.205665
H5    H     H_    0.923722 0.515826 0.693657 0.190374
H6    H     H_    0.420625 0.110992 0.261942 0.206121
H7    H     H_    0.521863 0.127074 0.839928 0.162181
N1    N     N_R   0.500780 0.500930 0.148120 -0.213680
N2    N     N_R   0.500790 0.500890 0.852210 -0.285555
O1    O     O_R   0.500000 0.319640 0.618810 -0.520939
O2    O     O_R   0.500010 0.319680 0.381230 -0.486565
O3    O     O_R   0.320680 0.500000 0.575130 -0.481856
O4    O     O_R   0.320690 0.500040 0.337550 -0.427792
O5    O     O_R   0.499990 0.680320 0.618770 -0.479768
O6    O     O_R   0.500000 0.680360 0.381190 -0.412577
O7    O     O_R   0.679310 0.499960 0.662450 -0.474949
O8    O     O_R   0.679320 0.500000 0.424870 -0.459031

loop_
_geom_bond_atom_site_label_1
_geom_bond_atom_site_label_2
_ccdc_geom_bond_type
C5    N2    A    
C8    O6    A    
Cu1   O5    S    
C6    C7    S    
C5    C22   A    
C20   Cl5   S    
C7    C22   S    
Cu1   O7    S    
Cu1   O1    S    
C19   C20   S    
C12   C15   A    
C3    H2    S    
Cu2   O4    S    
Cu2   O8    S    
C1    O2    A    
C6    Cl2   S    
C2    C3    A    
C7    H4    S    
C8    O5    A    
C3    N2    A    
C4    O4    A    
C13   C14   D    
C15   C19   A    
C21   H7    S    
C13   H5    S    
C1    C12   S    
C14   F1    S    
C20   F4    S    
C10   Cl3   S    
Cu1   N2    S    
Cu1   Cu2   S    
C6    H3    S    
C11   F3    S    
C17   C18   A    
C4    O3    A    
Cu2   O2    S    
C5    C6    S    
C11   C14   S    
Cu1   O3    S    
C22   N1    A    
C7    F2    S    
C10   C11   D    
C17   Cl4   S    
C2    N1    A    
C4    C10   S    
C15   C21   S    
C9    O7    A    
C20   C21   S    
C18   C19   A    
C2    Cl1   S    
C9    C13   S    
C16   H6    S    
C21   H1    S    
Cu2   O6    S    
Cu2   N1    S    
C1    O1    A    
C8    C18   S    
C9    O8    A    
C12   C16   A    
C16   C17   A    
