data_mof_unit_43366.cif
_audit_creation_date              2013-03-05T16:13:32-0500
_audit_creation_method            fapswitch 2.2
_symmetry_space_group_name_H-M    P1
_symmetry_Int_Tables_number       1
_space_group_crystal_system       triclinic
_cell_length_a                    10.73453
_cell_length_b                    9.817992
_cell_length_c                    10.658066
_cell_angle_alpha                 89.863969
_cell_angle_beta                  90.388616
_cell_angle_gamma                 90.712129
_cell_volume                      1123.15433812

loop_
_atom_site_label
_atom_site_type_symbol
_atom_site_description
_atom_site_fract_x
_atom_site_fract_y
_atom_site_fract_z
_atom_type_partial_charge
O1    O     O_R   0.316770 0.614620 0.499990 -0.605473
O2    O     O_R   0.683230 0.614620 0.500010 -0.589196
O3    O     O_R   0.316800 0.385290 0.500000 -0.601242
O4    O     O_R   0.683200 0.385290 0.500000 -0.638146
C1    C     C_R   0.260162 0.499321 0.504819 0.961937
C2    C     C_R   0.740399 0.501247 0.498663 0.953442
O5    O     O_R   0.500000 0.614690 0.316780 -0.618806
O6    O     O_R   0.500000 0.614690 0.683220 -0.638466
O7    O     O_R   0.500020 0.385360 0.316780 -0.587163
O8    O     O_R   0.499980 0.385360 0.683220 -0.578621
C3    C     C_R   0.492278 0.500355 0.260151 0.937550
C4    C     C_R   0.494508 0.499846 0.739982 0.978689
Zn1   Zn    Zn3+2 0.500000 0.653120 0.500000 0.997946
Zn2   Zn    Zn3+2 0.500000 0.346880 0.500000 1.034401
C5    C     C_R   0.505452 0.619965 0.063754 -0.009759
C6    C     C_R   0.509612 0.617856 0.936558 -0.071315
C7    C     C_R   0.468461 0.504067 0.128992 -0.250194
C8    C     C_R   0.473641 0.501737 0.871211 -0.222822
C9    C     C_R   0.405353 0.397118 0.065445 0.238325
C10   C     C_R   0.409319 0.395349 0.933743 0.214772
C11   C     C_3   0.625162 0.705268 0.931834 0.091272
C12   C     C_3   0.620072 0.708205 0.074813 0.085885
H1    H     H_    0.609832 0.805058 0.884762 0.151757
H2    H     H_    0.699029 0.658154 0.124249 0.126723
C13   C     C_R   0.062564 0.380729 0.479172 -0.154940
C14   C     C_R   0.935158 0.382657 0.475537 -0.244965
H3    H     H_    0.109465 0.287381 0.454909 0.202039
H4    H     H_    0.885342 0.289511 0.451760 0.193015
C15   C     C_R   0.873355 0.504320 0.499211 -0.209287
C16   C     C_R   0.128105 0.498896 0.512287 -0.191544
C17   C     C_R   0.939817 0.625576 0.527376 0.449643
C18   C     C_R   0.066558 0.618489 0.546582 0.356981
C19   C     C_R   0.577575 0.072869 0.578399 -0.017566
C20   C     C_R   0.421457 0.071077 0.422661 -0.002772
H5    H     H_    0.639723 0.128261 0.640823 0.158623
H6    H     H_    0.358279 0.124956 0.361456 0.186755
C21   C     C_R   0.577086 0.928821 0.578869 -0.100112
C22   C     C_R   0.421716 0.927068 0.422334 0.030605
H7    H     H_    0.638921 0.874744 0.641559 0.183697
H8    H     H_    0.359264 0.871647 0.360212 0.151968
N1    N     N_R   0.500000 0.857200 0.500000 -0.103227
N2    N     N_R   0.500000 0.142810 0.500000 -0.098396
N3    N     N_R   0.334562 0.296094 0.133090 0.221759
O9    O     O_R   0.255845 0.333555 0.218248 -0.440108
O10   O     O_R   0.343230 0.167537 0.105926 -0.325572
N4    N     N_R   0.346865 0.289283 0.864773 0.243181
O11   O     O_R   0.398735 0.170944 0.853340 -0.342373
O12   O     O_R   0.249565 0.317797 0.796679 -0.414013
N5    N     N_R   0.733550 0.632865 0.884532 0.198056
O13   O     O_R   0.802929 0.689859 0.799383 -0.391664
O14   O     O_R   0.762134 0.512553 0.926715 -0.391926
N6    N     N_R   0.592315 0.843392 0.124134 0.225689
O15   O     O_R   0.664302 0.897296 0.209573 -0.428571
O16   O     O_R   0.496284 0.910824 0.083908 -0.353479
O17   O     O_3   0.881826 0.749191 0.545541 -0.592284
C23   C     C_3   0.872315 0.819675 0.429549 0.155824
H9    H     H_    0.783678 0.876393 0.430854 0.203783
H10   H     H_    0.866669 0.751031 0.346130 0.120652
C24   C     C_3   0.979547 0.922891 0.414209 -0.401199
H11   H     H_    0.988999 0.985391 0.500683 0.250908
H12   H     H_    0.068038 0.868291 0.398835 0.249914
C25   C     C_3   0.957404 0.016897 0.302216 -0.845198
H13   H     H_    0.949768 0.956598 0.214364 0.287516
H14   H     H_    0.036777 0.089851 0.293388 0.276294
H15   H     H_    0.870582 0.075461 0.315180 0.277830
O18   O     O_3   0.130355 0.732079 0.591068 -0.635841
C26   C     C_3   0.143347 0.719926 0.722471 0.116946
H16   H     H_    0.194958 0.625808 0.748123 0.139153
H17   H     H_    0.050059 0.717267 0.767635 0.212292
C27   C     C_3   0.216683 0.843070 0.772036 -0.330445
H18   H     H_    0.312573 0.842428 0.733127 0.242027
H19   H     H_    0.170535 0.938281 0.740913 0.256820
C28   C     C_3   0.224097 0.841491 0.915062 -0.787801
H20   H     H_    0.129216 0.846342 0.955763 0.259558
H21   H     H_    0.278839 0.931236 0.948042 0.335745
H22   H     H_    0.270204 0.747439 0.948634 0.254516

loop_
_geom_bond_atom_site_label_1
_geom_bond_atom_site_label_2
_geom_bond_distance
_ccdc_geom_bond_type
C2    C15   1.427136 S    
C8    C10   1.413129 A    
C22   H8    1.081893 S    
O7    Zn2   1.988101 S    
C6    C11   1.500593 S    
C13   H3    1.083815 S    
O7    C3    1.282296 A    
C28   H20   1.111349 S    
O6    Zn1   1.988008 S    
C14   H4    1.083321 S    
C9    C10   1.404774 A    
C20   N2    1.365604 A    
C23   C24   1.533428 S    
Zn2   N2    2.003559 S    
O6    C4    1.279221 A    
C26   C27   1.527834 S    
C17   O17   1.385458 S    
C11   N5    1.464034 S    
O17   C23   1.419017 S    
Zn1   N1    2.003656 S    
O18   C26   1.411405 S    
N6    O16   1.301685 A    
C24   H11   1.111809 S    
C15   C17   1.412106 A    
O4    Zn2   1.997788 S    
O2    C2    1.277877 A    
C11   C12   1.525581 S    
N6    O15   1.299626 A    
C16   C18   1.404757 A    
N3    O10   1.300222 A    
C25   H13   1.110996 S    
O3    Zn2   2.006994 S    
O8    C4    1.279932 A    
C14   C15   1.397855 A    
C26   H16   1.115803 S    
O1    C1    1.279211 A    
C19   N2    1.365733 A    
C18   O18   1.384429 S    
C19   H5    1.081731 S    
C23   H10   1.117786 S    
C19   C21   1.414200 A    
O5    C3    1.277295 A    
C12   N6    1.463556 S    
C20   H6    1.080078 S    
C11   H1    1.113203 S    
N3    O9    1.301067 A    
C21   N1    1.365541 A    
C21   H7    1.081646 S    
C28   H22   1.110424 S    
C12   H2    1.113786 S    
C24   H12   1.109837 S    
O4    C2    1.286849 A    
O1    Zn1   1.998261 S    
C28   H21   1.109515 S    
C5    C6    1.356911 A    
N4    O12   1.300778 A    
O3    C1    1.281919 A    
O5    Zn1   1.989767 S    
C27   H18   1.112428 S    
C23   H9    1.108592 S    
C22   N1    1.365324 A    
C6    C8    1.386755 A    
N5    O13   1.299140 A    
C1    C16   1.420293 S    
N5    O14   1.302376 A    
C4    C8    1.418172 S    
O8    Zn2   1.989863 S    
C5    C7    1.387334 A    
O2    Zn1   2.007487 S    
N4    O11   1.300946 A    
C13   C16   1.394213 A    
C24   C25   1.526258 S    
C25   H14   1.110603 S    
C25   H15   1.110743 S    
C7    C9    1.414088 A    
C13   C14   1.368299 A    
C20   C22   1.413932 A    
C27   C28   1.525972 S    
C27   H19   1.112237 S    
C5    C12   1.500113 S    
C3    C7    1.419843 S    
C17   C18   1.377035 A    
C9    N3    1.437472 S    
C26   H17   1.114010 S    
C10   N4    1.433119 S    
