data_mof_unit_50730.cif
_audit_creation_date              2012-12-10T17:18:52-0500
_audit_creation_method            fapswitch 2.2
_symmetry_space_group_name_H-M    P1
_symmetry_Int_Tables_number       1
_space_group_crystal_system       triclinic
_cell_length_a                    9.732343
_cell_length_b                    10.796577
_cell_length_c                    13.299894
_cell_angle_alpha                 94.387621
_cell_angle_beta                  73.086438
_cell_angle_gamma                 92.117684
_cell_volume                      1332.97366802

loop_
_atom_site_label
_atom_site_type_symbol
_atom_type_description
_atom_site_fract_x
_atom_site_fract_y
_atom_site_fract_z
_atom_type_partial_charge
C1    C     C_R   0.499461 0.737390 0.506834 0.740382
C2    C     C_R   0.448434 0.579844 0.978749 -0.090384
C3    C     C_R   0.487899 0.591346 0.868785 -0.030404
C4    C     C_R   0.555323 0.571205 0.028806 0.156864
C5    C     C_R   0.688024 0.628105 0.983964 0.032711
C6    C     C_R   0.716174 0.676979 0.884959 -0.241126
C7    C     C_R   0.614622 0.663363 0.827828 0.195163
C8    C     C_R   0.524692 0.525053 0.129407 -0.268437
C9    C     C_R   0.752207 0.605204 0.145380 0.508490
C10   C     C_R   0.380003 0.567323 0.816333 -0.222714
C11   C     C_R   0.270663 0.864819 0.667197 -0.180671
C12   C     C_R   0.422669 0.519344 0.700653 0.823070
C13   C     C_R   0.153885 0.921934 0.737680 -0.256813
C14   C     C_R   0.139387 0.048538 0.740069 -0.214041
C15   C     C_R   0.238312 0.122104 0.667608 0.476203
C16   C     C_R   0.364508 0.065233 0.596367 -0.012656
C17   C     C_R   0.375673 0.933365 0.595165 0.058624
C18   C     C_R   0.496227 0.872272 0.525783 -0.065026
C19   C     C_R   0.615226 0.940430 0.473275 -0.219933
C20   C     C_R   0.607876 0.066719 0.472152 -0.226684
C21   C     C_R   0.483101 0.130782 0.527903 -0.093722
C22   C     C_R   0.904777 0.356234 0.347038 -0.173830
C23   C     C_R   0.492077 0.264697 0.513389 0.849615
C24   C     C_R   0.996827 0.318249 0.251820 -0.239983
C25   C     C_R   0.143200 0.328227 0.234935 0.119421
C26   C     C_R   0.194018 0.353602 0.325727 0.103974
C27   C     C_R   0.102042 0.426297 0.419644 0.129845
C28   C     C_R   0.951175 0.427730 0.423641 0.183044
C29   C     C_R   0.902693 0.572501 0.569113 -0.065981
C30   C     C_R   0.049457 0.574963 0.567617 -0.106785
C31   C     C_R   0.577863 0.507329 0.300098 0.784169
C32   C     C_R   0.780541 0.651940 0.045601 -0.271521
C33   C     C_R   0.623034 0.539014 0.188078 -0.181128
C34   C     C_R   0.236510 0.598643 0.878892 -0.006843
C35   C     C_R   0.215351 0.649245 0.983921 0.433889
C36   C     C_R   0.314681 0.626350 0.037866 0.358356
Cu1   Cu    Cu3+1 0.359340 0.500010 0.500010 0.944467
Cu2   Cu    Cu3+1 0.640660 0.499990 0.499990 0.931366
H1    H     H_    0.281199 0.766937 0.674376 0.146710
H2    H     H_    0.074957 0.867928 0.792648 0.140189
H3    H     H_    0.049722 0.088801 0.800689 0.135936
H4    H     H_    0.701190 0.114255 0.424017 0.150356
H5    H     H_    0.829348 0.631467 0.626629 0.129476
H6    H     H_    0.796392 0.331838 0.353972 0.202978
H7    H     H_    0.951764 0.274944 0.192097 0.163521
H8    H     H_    0.810889 0.734916 0.856530 0.123232
H9    H     H_    0.083414 0.640194 0.621425 0.122487
H10   H     H_    0.870357 0.713106 0.018092 0.213413
H11   H     H_    0.420252 0.485029 0.164796 0.184318
H12   H     H_    0.713930 0.896107 0.429928 0.140342
N1    N     N_R   0.852480 0.498790 0.499000 -0.184235
N2    N     N_R   0.148360 0.498710 0.498970 -0.187659
O1    O     O_R   0.381190 0.680360 0.500010 -0.574846
O2    O     O_R   0.618760 0.680340 0.500000 -0.595070
O3    O     O_R   0.323240 0.499990 0.650990 -0.556672
O4    O     O_R   0.560820 0.499960 0.650980 -0.579821
O5    O     O_R   0.381240 0.319660 0.500000 -0.529846
O6    O     O_R   0.618810 0.319640 0.499990 -0.617421
O7    O     O_R   0.439180 0.500040 0.349020 -0.591244
O8    O     O_R   0.676760 0.500010 0.349010 -0.545896
O9    O     O_3   0.846921 0.631945 0.203651 -0.560032
C37   C     C_3   0.815346 0.750739 0.255158 -0.263967
H13   H     H_    0.697825 0.764218 0.291250 0.142280
H14   H     H_    0.859378 0.824164 0.200054 0.159979
H15   H     H_    0.866936 0.760941 0.319444 0.169033
O10   O     O_3   0.216667 0.248929 0.671759 -0.567811
C38   C     C_3   0.071369 0.274460 0.680199 -0.272744
H16   H     H_    0.064642 0.370875 0.661000 0.216061
H17   H     H_    0.000612 0.267465 0.761250 0.135252
H18   H     H_    0.025784 0.212263 0.627170 0.131270
C39   C     C_3   0.236442 0.274286 0.127701 -0.415844
C40   C     C_3   0.192912 0.314091 0.033765 -0.850216
H19   H     H_    0.100917 0.256730 0.022290 0.238797
H20   H     H_    0.162404 0.412566 0.046423 0.255274
H21   H     H_    0.283924 0.301654 0.960736 0.253143
H22   H     H_    0.350435 0.302335 0.114893 0.188572
H23   H     H_    0.229990 0.171084 0.125801 0.205864
C41   C     C_3   0.301559 0.254063 0.327477 -0.295958
C42   C     C_3   0.228991 0.148780 0.394953 -0.813527
H24   H     H_    0.308224 0.076316 0.392255 0.238205
H25   H     H_    0.181676 0.184247 0.476575 0.276869
H26   H     H_    0.141993 0.105307 0.364937 0.231134
H27   H     H_    0.348083 0.202952 0.250853 0.148873
H28   H     H_    0.404935 0.288913 0.334281 0.204448
C43   C     C_3   0.102663 0.581113 0.843502 -0.333811
C44   C     C_3   0.015765 0.470348 0.894316 -0.836159
H29   H     H_    0.083359 0.386649 0.873777 0.270731
H30   H     H_    0.981507 0.485289 0.981233 0.271064
H31   H     H_    0.918956 0.455033 0.866614 0.234949
H32   H     H_    0.037855 0.666102 0.865154 0.192832
H33   H     H_    0.120854 0.567636 0.759132 0.215307
O11   O     O_3   0.302655 0.682845 0.137668 -0.592917
C45   C     C_3   0.174215 0.649544 0.212689 -0.180624
H34   H     H_    0.200484 0.624203 0.284077 0.165042
H35   H     H_    0.114197 0.570165 0.186285 0.193033
H36   H     H_    0.105365 0.732128 0.235670 0.201972
O12   O     O_3   0.097642 0.720572 0.034324 -0.577634
C46   C     C_3   0.136516 0.846786 0.020746 -0.384678
H37   H     H_    0.172552 0.865646 0.936206 0.160992
H38   H     H_    0.040943 0.904553 0.058171 0.170907
H39   H     H_    0.220933 0.876796 0.059032 0.206516
C47   C     C_3   0.616841 0.763703 0.753538 -0.405775
C48   C     C_3   0.528113 0.874712 0.811895 -0.838266
H40   H     H_    0.413776 0.846698 0.842403 0.248123
H41   H     H_    0.567914 0.912260 0.878578 0.255071
H42   H     H_    0.536402 0.949166 0.757173 0.253693
H43   H     H_    0.727979 0.798559 0.718195 0.189058
H44   H     H_    0.573692 0.728821 0.689038 0.214400

loop_
_geom_bond_atom_site_label_1
_geom_bond_atom_site_label_2
_ccdc_geom_bond_type
C23   O6    A    
C16   C21   A    
C19   C20   A    
C4    C8    A    
O12   C46   S    
C43   H33   S    
C43   C44   S    
C1    C18   S    
C37   H13   S    
C9    O9    S    
C24   H7    S    
Cu1   Cu2   S    
C18   C19   A    
C3    C7    A    
C5    C6    A    
C28   N1    A    
C44   H30   S    
C15   C16   A    
C34   C35   A    
C31   O7    A    
C1    O1    A    
C13   H2    S    
C37   H14   S    
C9    C32   A    
Cu2   O6    S    
C41   H27   S    
C48   H41   S    
C22   H6    S    
C35   C36   A    
C16   C17   A    
C7    C47   S    
C31   C33   S    
C47   H44   S    
C25   C39   S    
C26   C41   S    
C5    C32   A    
Cu1   O1    S    
C36   O11   S    
O10   C38   S    
C45   H35   S    
C22   C28   A    
C13   C14   A    
C29   H5    S    
C9    C33   A    
C32   H10   S    
C47   C48   S    
C40   H21   S    
C38   H16   S    
C30   H9    S    
C24   C25   A    
C40   H20   S    
C42   H25   S    
Cu1   N2    S    
C44   H29   S    
C40   H19   S    
Cu2   N1    S    
C25   C26   A    
C15   O10   S    
C38   H17   S    
C34   C43   S    
C31   O8    A    
C2    C4    A    
C1    O2    A    
C29   C30   A    
Cu2   O2    S    
C17   C18   A    
C26   C27   A    
C47   H43   S    
C10   C34   A    
C45   H34   S    
Cu1   O7    S    
C11   H1    S    
C12   O4    A    
C10   C12   S    
C14   H3    S    
Cu2   O8    S    
C45   H36   S    
C46   H38   S    
C21   C23   S    
C22   C24   A    
C39   H23   S    
C27   N2    A    
C29   N1    A    
C2    C36   A    
C23   O5    A    
C30   N2    A    
C11   C17   A    
C6    H8    S    
C37   H15   S    
C41   C42   S    
C4    C5    A    
C44   H31   S    
C42   H26   S    
C20   H4    S    
C43   H32   S    
C6    C7    A    
C46   H39   S    
C38   H18   S    
C2    C3    A    
C39   C40   S    
C3    C10   A    
C11   C13   A    
C19   H12   S    
C39   H22   S    
O11   C45   S    
C48   H42   S    
C8    C33   A    
O9    C37   S    
C12   O3    A    
C42   H24   S    
Cu1   O3    S    
C41   H28   S    
Cu2   O4    S    
C20   C21   A    
C46   H37   S    
C48   H40   S    
C14   C15   A    
C35   O12   S    
C8    H11   S    
Cu1   O5    S    
C27   C28   A    
