data_mof_unit_24040.cif
_audit_creation_date              2012-12-11T14:50:41-0500
_audit_creation_method            fapswitch 2.2
_symmetry_space_group_name_H-M    P1
_symmetry_Int_Tables_number       1
_space_group_crystal_system       triclinic
_cell_length_a                    20.595615
_cell_length_b                    7.363409
_cell_length_c                    20.353629
_cell_angle_alpha                 90.005523
_cell_angle_beta                  101.70138
_cell_angle_gamma                 89.996402
_cell_volume                      3022.55975698

loop_
_atom_site_label
_atom_site_type_symbol
_atom_type_description
_atom_site_fract_x
_atom_site_fract_y
_atom_site_fract_z
_atom_type_partial_charge
O1    O     O_R   0.423690 0.494470 0.435930 -0.527115
O2    O     O_R   0.576310 0.994470 0.564070 -0.527144
O3    O     O_R   0.556070 0.822310 0.435760 -0.513461
O4    O     O_R   0.443930 0.322310 0.564240 -0.513472
C1    C     C_R   0.575176 0.655755 0.421188 0.716964
C2    C     C_R   0.424823 0.155767 0.578812 0.716996
O5    O     O_R   0.422940 0.824080 0.428040 -0.523693
O6    O     O_R   0.577060 0.324080 0.571960 -0.523704
O7    O     O_R   0.442240 0.995960 0.556300 -0.550786
O8    O     O_R   0.557760 0.495960 0.443700 -0.550777
C3    C     C_R   0.399366 0.655332 0.411376 0.821572
C4    C     C_R   0.600633 0.155334 0.588624 0.821625
O9    O     O_3   0.506490 0.661310 0.542090 -0.383772
O10   O     O_3   0.493510 0.161310 0.457910 -0.383743
V1    V     V_3+5 0.498800 0.935560 0.492190 1.507418
V2    V     V_3+5 0.501200 0.435560 0.507810 1.507416
C5    C     C_R   0.837339 0.092923 0.859006 -0.285636
C6    C     C_R   0.162666 0.592932 0.140988 -0.285679
C7    C     C_R   0.662720 0.140761 0.640341 -0.283359
C8    C     C_R   0.337283 0.640752 0.359656 -0.283377
C9    C     C_R   0.778143 0.041512 0.671027 0.466417
C10   C     C_R   0.221868 0.541455 0.328956 0.466442
C11   C     C_R   0.719955 0.070984 0.622419 0.254195
C12   C     C_R   0.280053 0.570921 0.377568 0.254226
C13   C     C_R   0.663571 0.184580 0.707786 0.447152
C14   C     C_R   0.336426 0.684635 0.292217 0.447177
C15   C     C_R   0.722585 0.160399 0.757853 -0.211038
C16   C     C_R   0.277414 0.660444 0.242146 -0.211030
C17   C     C_R   0.779102 0.074323 0.740491 -0.202970
C18   C     C_R   0.220911 0.574295 0.259497 -0.202987
C19   C     C_R   0.834415 0.029121 0.793053 0.368297
C20   C     C_R   0.165607 0.529050 0.206932 0.368327
C21   C     C_R   0.783153 0.189102 0.874507 0.313471
C22   C     C_R   0.216838 0.689190 0.125499 0.313504
C23   C     C_R   0.725694 0.220384 0.824792 0.467287
C24   C     C_R   0.274296 0.720480 0.175215 0.467300
C25   C     C_3   0.265589 0.203661 0.820964 0.639310
C26   C     C_3   0.734396 0.703703 0.179040 0.639321
C27   C     C_3   0.236092 0.877707 0.780584 0.699479
C28   C     C_3   0.763910 0.377736 0.219380 0.699385
C29   C     C_3   0.282864 0.890062 0.724430 0.743607
C30   C     C_3   0.717128 0.390035 0.275529 0.743706
C31   C     C_1   0.379002 0.146055 0.624228 -0.207428
C32   C     C_1   0.620994 0.646013 0.375771 -0.207370
C33   C     C_3   0.205595 0.073232 0.789544 -0.389431
C34   C     C_3   0.794397 0.573279 0.210446 -0.389411
C35   C     C_3   0.319634 0.203104 0.775486 0.616832
C36   C     C_3   0.680357 0.703124 0.224524 0.616874
C37   C     C_3   0.291363 0.101368 0.706829 -0.375926
C38   C     C_3   0.708630 0.601325 0.293165 -0.376003
C39   C     C_3   0.219615 0.179900 0.670049 0.691300
C40   C     C_3   0.780377 0.679822 0.329959 0.691310
C41   C     C_3   0.166684 0.140056 0.716848 0.569038
C42   C     C_3   0.833303 0.640087 0.283146 0.569067
C43   C     C_1   0.339702 0.128670 0.661248 0.126823
C44   C     C_1   0.660293 0.628614 0.338749 0.126834
C45   C     C_1   0.159205 0.079053 0.837779 0.166158
C46   C     C_1   0.840793 0.579114 0.162219 0.166199
C47   C     C_1   0.121125 0.083578 0.876319 -0.214078
C48   C     C_1   0.878877 0.583624 0.123682 -0.214097
O11   O     O_R   0.942280 0.741210 0.056360 -0.543034
O12   O     O_R   0.057720 0.241210 0.943640 -0.543020
O13   O     O_R   0.077070 0.409690 0.071960 -0.519137
O14   O     O_R   0.922930 0.909690 0.928040 -0.519173
C49   C     C_R   0.100447 0.578761 0.089043 0.796572
C50   C     C_R   0.899556 0.078760 0.910954 0.796658
O15   O     O_R   0.943940 0.411580 0.064250 -0.531033
O16   O     O_R   0.056060 0.911580 0.935750 -0.531040
O17   O     O_R   0.923670 0.239840 0.935920 -0.517827
O18   O     O_R   0.076330 0.739840 0.064080 -0.517806
C51   C     C_R   0.924521 0.579329 0.078162 0.725162
C52   C     C_R   0.075480 0.079317 0.921839 0.725213
O19   O     O_3   0.993540 0.572620 0.957940 -0.379031
O20   O     O_3   0.006460 0.072620 0.042060 -0.379004
V3    V     V_3+5 0.001200 0.298330 0.007800 1.518672
V4    V     V_3+5 0.998800 0.798330 0.992200 1.518623
Cl1   Cl    Cl    0.899391 0.882741 0.780916 -0.567654
Cl2   Cl    Cl    0.100684 0.382479 0.219055 -0.567492
Cl3   Cl    Cl    0.285668 0.795763 0.859870 -0.520809
Cl4   Cl    Cl    0.714344 0.295819 0.140080 -0.520970
O21   O     O_3   0.343369 0.795885 0.753725 -0.476187
C53   C     C_3   0.402858 0.812448 0.728682 0.035418
H1    H     H_    0.426303 0.947156 0.736076 0.107218
H2    H     H_    0.399647 0.763988 0.677070 0.066987
H3    H     H_    0.440077 0.721899 0.759449 0.164586
O22   O     O_3   0.656620 0.295913 0.246206 -0.476185
C54   C     C_3   0.597136 0.312434 0.271262 0.035518
H4    H     H_    0.573688 0.447139 0.263899 0.107177
H5    H     H_    0.600355 0.263914 0.322860 0.067044
H6    H     H_    0.559915 0.221920 0.240484 0.164540
O23   O     O_3   0.246382 0.794081 0.667500 -0.514129
C55   C     C_3   0.280946 0.738172 0.617851 0.052044
H7    H     H_    0.306778 0.607565 0.631487 0.201149
H8    H     H_    0.314119 0.839932 0.603553 0.055877
H9    H     H_    0.244182 0.717048 0.570896 0.174982
O24   O     O_3   0.753599 0.293968 0.332439 -0.514058
C56   C     C_3   0.719044 0.238119 0.382101 0.052283
H10   H     H_    0.693211 0.107514 0.368484 0.201206
H11   H     H_    0.685869 0.339879 0.396399 0.055759
H12   H     H_    0.755814 0.217022 0.429051 0.174915
O25   O     O_3   0.131548 0.304168 0.726027 -0.543122
C57   C     C_3   0.061650 0.288264 0.718746 -0.055169
H13   H     H_    0.047429 0.177668 0.750103 0.166836
H14   H     H_    0.037440 0.270188 0.665204 0.191617
H15   H     H_    0.040928 0.415610 0.734687 0.132708
O26   O     O_3   0.868403 0.804262 0.273986 -0.543036
C58   C     C_3   0.938306 0.788501 0.281301 -0.055193
H16   H     H_    0.952569 0.678095 0.249892 0.166758
H17   H     H_    0.962501 0.770257 0.334832 0.191562
H18   H     H_    0.958998 0.915969 0.265455 0.132820
Cl5   Cl    Cl    0.108366 0.968034 0.672229 -0.593383
Cl6   Cl    Cl    0.891654 0.468083 0.327719 -0.593333
O27   O     O_3   0.222800 0.371848 0.659408 -0.527765
C59   C     C_3   0.164595 0.443651 0.616870 0.067930
H19   H     H_    0.175938 0.489853 0.568804 0.116096
H20   H     H_    0.146804 0.562555 0.641545 0.245685
H21   H     H_    0.122728 0.346290 0.603711 0.136020
O28   O     O_3   0.777181 0.871749 0.340650 -0.527789
C60   C     C_3   0.835384 0.943528 0.383199 0.067541
H22   H     H_    0.824036 0.989691 0.431272 0.116226
H23   H     H_    0.853171 0.062459 0.358542 0.245653
H24   H     H_    0.877252 0.846163 0.396343 0.136052
Cl7   Cl    Cl    0.233999 0.423717 0.825071 -0.567009
Cl8   Cl    Cl    0.765965 0.923772 0.174946 -0.566876
Cl9   Cl    Cl    0.345122 0.426376 0.754319 -0.560130
Cl10  Cl    Cl    0.654876 0.926380 0.245733 -0.560325
O29   O     O_3   0.198820 0.085713 0.607016 -0.537385
C61   C     C_3   0.222695 0.152141 0.550824 -0.077367
H25   H     H_    0.257796 0.267291 0.561502 0.170010
H26   H     H_    0.179850 0.195582 0.511672 0.195437
H27   H     H_    0.247450 0.040775 0.528801 0.141189
O30   O     O_3   0.801179 0.585537 0.392966 -0.537400
C62   C     C_3   0.777322 0.651894 0.449184 -0.077458
H28   H     H_    0.742208 0.767027 0.438539 0.170048
H29   H     H_    0.820174 0.695324 0.488330 0.195402
H30   H     H_    0.752587 0.540494 0.471202 0.141171
O31   O     O_3   0.787079 0.265278 0.937547 -0.538227
C63   C     C_3   0.784268 0.127328 0.985313 -0.234859
H31   H     H_    0.755963 0.004646 0.963817 0.086773
H32   H     H_    0.758949 0.182762 0.023958 0.216862
H33   H     H_    0.834942 0.087692 0.011310 0.139890
O32   O     O_3   0.212903 0.765416 0.062468 -0.538228
C64   C     C_3   0.215719 0.627505 0.014678 -0.234714
H34   H     H_    0.244014 0.504757 0.036159 0.086736
H35   H     H_    0.241061 0.682979 0.976051 0.216823
H36   H     H_    0.165036 0.587932 0.988661 0.139939
Cl11  Cl    Cl    0.850102 0.989059 0.639518 -0.480410
Cl12  Cl    Cl    0.149902 0.489028 0.360452 -0.480360
O33   O     O_3   0.676171 0.333124 0.838917 -0.510394
C65   C     C_3   0.643751 0.252916 0.886620 -0.104204
H37   H     H_    0.663097 0.311641 0.936963 0.175058
H38   H     H_    0.647212 0.101797 0.888745 0.070432
H39   H     H_    0.590344 0.288127 0.873170 0.133051
O34   O     O_3   0.323807 0.833270 0.161100 -0.510381
C66   C     C_3   0.356234 0.753112 0.113385 -0.104181
H40   H     H_    0.336884 0.811869 0.063050 0.175004
H41   H     H_    0.352782 0.601988 0.111238 0.070435
H42   H     H_    0.409640 0.788336 0.126840 0.133035
Cl13  Cl    Cl    0.718729 0.022257 0.537051 -0.708952
Cl14  Cl    Cl    0.281278 0.522142 0.462928 -0.708975
O35   O     O_3   0.606046 0.250288 0.724513 -0.517967
C67   C     C_3   0.566577 0.101540 0.736200 -0.218856
H43   H     H_    0.594255 0.006139 0.774240 0.127250
H44   H     H_    0.546279 0.026746 0.689164 0.101349
H45   H     H_    0.523821 0.154275 0.755702 0.156489
O36   O     O_3   0.393944 0.750398 0.275496 -0.517956
C68   C     C_3   0.433432 0.601685 0.263798 -0.218779
H46   H     H_    0.405764 0.506275 0.225744 0.127221
H47   H     H_    0.453735 0.526884 0.310833 0.101304
H48   H     H_    0.476186 0.654470 0.244302 0.156510
O37   O     O_3   0.376747 0.106469 0.809995 -0.542542
C69   C     C_3   0.422375 0.209817 0.856992 -0.039075
H49   H     H_    0.398585 0.317343 0.882271 0.179419
H50   H     H_    0.459763 0.272710 0.831819 0.120822
H51   H     H_    0.448945 0.116957 0.896316 0.132538
O38   O     O_3   0.623237 0.606542 0.190005 -0.542534
C70   C     C_3   0.577619 0.709941 0.143017 -0.039054
H52   H     H_    0.601418 0.817481 0.117759 0.179454
H53   H     H_    0.540229 0.772829 0.168192 0.120791
H54   H     H_    0.551052 0.617118 0.103674 0.132535
O39   O     O_3   0.296974 0.142015 0.887024 -0.525717
C71   C     C_3   0.285217 0.238762 0.943591 -0.093544
H55   H     H_    0.306119 0.159156 0.989242 0.145486
H56   H     H_    0.231673 0.256944 0.942791 0.141750
H57   H     H_    0.311318 0.371594 0.948244 0.156909
O40   O     O_3   0.703006 0.642078 0.112977 -0.525713
C72   C     C_3   0.714780 0.738789 0.056414 -0.093507
H58   H     H_    0.693893 0.659161 0.010762 0.145534
H59   H     H_    0.768325 0.756971 0.057230 0.141711
H60   H     H_    0.688675 0.871621 0.051750 0.156887
O41   O     O_3   0.185513 0.743645 0.758782 -0.476549
C73   C     C_3   0.138083 0.719201 0.800389 0.104113
H61   H     H_    0.117961 0.581282 0.794000 0.180111
H62   H     H_    0.093968 0.806519 0.784523 0.127855
H63   H     H_    0.159107 0.732117 0.854847 0.116218
O42   O     O_3   0.814500 0.243690 0.241173 -0.476482
C74   C     C_3   0.861912 0.219204 0.199545 0.104293
H64   H     H_    0.882015 0.081251 0.205906 0.179998
H65   H     H_    0.906039 0.306471 0.215414 0.127877
H66   H     H_    0.840881 0.232180 0.145092 0.116121

loop_
_geom_bond_atom_site_label_1
_geom_bond_atom_site_label_2
_ccdc_geom_bond_type
C64   H36   S    
C54   H4    S    
O13   C49   A    
O25   C57   S    
C15   C17   A    
C58   H17   S    
O28   C60   S    
O1    C3    A    
O37   C69   S    
O2    C4    A    
C61   H25   S    
C2    O7    A    
O21   C53   S    
C24   O34   S    
C68   H47   S    
O39   C71   S    
C6    C49   S    
C28   C34   S    
C33   C45   S    
C5    C50   S    
C39   O27   S    
O20   V4    S    
C30   O24   S    
C9    Cl11  S    
C10   C12   A    
C58   H18   S    
C67   H43   S    
C45   C47   T    
C50   O17   A    
C66   H41   S    
O26   C58   S    
C46   C48   T    
C64   H34   S    
C56   H10   S    
C57   H15   S    
C41   O25   S    
C74   H65   S    
C71   H55   S    
C72   H60   S    
C25   Cl7   S    
C22   O32   S    
C8    C12   A    
C40   C42   S    
O30   C62   S    
C37   C39   S    
C65   H39   S    
C11   Cl13  S    
C62   H30   S    
C38   C40   S    
C58   H16   S    
C28   Cl4   S    
C19   Cl1   S    
C30   O22   S    
C25   C35   S    
C26   C36   S    
C69   H51   S    
O16   C52   A    
C47   C52   S    
C27   C33   S    
O11   C51   A    
C36   C38   S    
C33   C41   S    
O6    V2    S    
C34   C46   S    
C66   H42   S    
O35   C67   S    
O19   V3    S    
C74   H64   S    
C5    C21   A    
C29   C37   S    
C56   H11   S    
C69   H50   S    
C35   Cl9   S    
C68   H48   S    
C67   H44   S    
C60   H23   S    
O11   V4    S    
C3    C8    S    
C26   C34   S    
O20   V3    S    
C42   O26   S    
O12   C52   A    
O41   C73   S    
C40   O30   S    
C73   H63   S    
C27   C29   S    
C21   O31   S    
O23   C55   S    
O22   C54   S    
C48   C51   S    
C15   C23   A    
C26   O40   S    
C9    C17   A    
C55   H9    S    
C38   C44   S    
C59   H20   S    
C39   C41   S    
C71   H57   S    
C73   H62   S    
O4    V2    S    
C74   H66   S    
C7    C11   A    
C67   H45   S    
C27   O41   S    
C32   C44   T    
O5    C3    A    
C29   O21   S    
O6    C4    A    
C70   H54   S    
C25   O39   S    
O24   C56   S    
C34   C42   S    
C55   H8    S    
O14   V4    S    
C42   Cl6   S    
O1    V2    S    
C57   H14   S    
O2    V1    S    
C6    C22   A    
O34   C66   S    
C27   Cl3   S    
C63   H32   S    
C30   C38   S    
C31   C43   T    
O38   C70   S    
C29   O23   S    
C1    C32   S    
C10   Cl12  S    
C70   H52   S    
C13   O35   S    
C2    C31   S    
C9    C11   A    
O18   V4    S    
O36   C68   S    
C5    C19   A    
O19   V4    S    
C65   H38   S    
O12   V3    S    
C54   H6    S    
O4    C2    A    
C6    C20   A    
C25   C33   S    
O29   C61   S    
C61   H27   S    
C68   H46   S    
C56   H12   S    
O3    V1    S    
C69   H49   S    
O13   V3    S    
O27   C59   S    
C28   O42   S    
C60   H24   S    
C64   H35   S    
C14   O36   S    
C10   C18   A    
O32   C64   S    
C14   C16   A    
O42   C74   S    
O3    C1    A    
C63   H33   S    
C61   H26   S    
C35   O37   S    
C60   H22   S    
C12   Cl14  S    
C59   H19   S    
O16   V4    S    
C53   H3    S    
O31   C63   S    
O15   C51   A    
C53   H2    S    
C65   H37   S    
C39   O29   S    
C73   H61   S    
C16   C18   A    
O7    V1    S    
C1    O8    A    
C17   C19   A    
O8    V2    S    
C35   C37   S    
C18   C20   A    
C41   Cl5   S    
C62   H28   S    
C8    C14   A    
C4    C7    S    
O5    V1    S    
C55   H7    S    
C21   C23   A    
C70   H53   S    
O17   V3    S    
C22   C24   A    
C37   C43   S    
C57   H13   S    
C7    C13   A    
C71   H56   S    
C72   H59   S    
C59   H21   S    
C63   H31   S    
C36   Cl10  S    
C72   H58   S    
C20   Cl2   S    
O15   V3    S    
C16   C24   A    
C53   H1    S    
O9    V2    S    
C66   H40   S    
C62   H29   S    
C54   H5    S    
C28   C30   S    
O10   V1    S    
C23   O33   S    
O40   C72   S    
O33   C65   S    
C26   Cl8   S    
C49   O18   A    
O14   C50   A    
C36   O38   S    
C13   C15   A    
C40   O28   S    
