data_mof_unit_57409.cif
_audit_creation_date              2013-03-05T16:00:58-0500
_audit_creation_method            fapswitch 2.2
_symmetry_space_group_name_H-M    P1
_symmetry_Int_Tables_number       1
_space_group_crystal_system       triclinic
_cell_length_a                    10.620621
_cell_length_b                    14.697101
_cell_length_c                    14.828273
_cell_angle_alpha                 64.294458
_cell_angle_beta                  103.881872
_cell_angle_gamma                 103.268009
_cell_volume                      2003.67770511

loop_
_atom_site_label
_atom_site_type_symbol
_atom_site_description
_atom_site_fract_x
_atom_site_fract_y
_atom_site_fract_z
_atom_type_partial_charge
O1    O     O_R   0.454850 0.022100 0.338110 -0.592960
O2    O     O_R   0.545150 0.977900 0.661890 -0.591186
O3    O     O_R   0.512700 0.160150 0.379180 -0.560927
O4    O     O_R   0.487300 0.839850 0.620820 -0.569820
C1    C     C_R   0.476829 0.120320 0.312044 0.796622
C2    C     C_R   0.520751 0.879719 0.687750 0.797155
O5    O     O_R   0.287930 0.931000 0.479440 -0.579235
O6    O     O_R   0.712070 0.069000 0.520560 -0.590937
O7    O     O_R   0.345780 0.069050 0.520520 -0.591554
O8    O     O_R   0.654220 0.930950 0.479480 -0.591309
C3    C     C_R   0.259367 0.000047 0.499850 0.800302
C4    C     C_R   0.740659 0.999942 0.500175 0.778349
Cu1   Cu    Cu3+1 0.465750 0.918270 0.475680 0.956708
Cu2   Cu    Cu3+1 0.534250 0.081730 0.524320 0.953307
C5    C     C_3   0.008417 0.924191 0.475090 -0.120160
C6    C     C_3   0.991693 0.075804 0.524975 -0.143721
C7    C     C_3   0.931537 0.014601 0.407183 -0.174440
C8    C     C_3   0.068578 0.985393 0.592879 -0.159639
H1    H     H_    0.872322 0.026556 0.331283 0.135295
H2    H     H_    0.127843 0.973420 0.668769 0.138624
H3    H     H_    0.017822 0.862062 0.454604 0.150320
H4    H     H_    0.982337 0.137934 0.545478 0.142900
C9    C     C_3   0.877781 0.000269 0.500244 0.013298
C10   C     C_3   0.122306 0.999722 0.499816 0.014692
C11   C     C_3   0.952441 0.909952 0.568187 -0.151007
C12   C     C_3   0.047676 0.090044 0.431877 -0.169411
H5    H     H_    0.910284 0.836320 0.623834 0.138195
H6    H     H_    0.089933 0.163659 0.376256 0.153562
C13   C     C_R   0.448254 0.188530 0.204246 -0.079761
C14   C     C_R   0.520510 0.811697 0.795175 -0.076540
C15   C     C_R   0.344820 0.216431 0.031767 -0.171594
C16   C     C_R   0.540222 0.785812 0.970258 -0.170512
C17   C     C_R   0.383728 0.149887 0.131204 -0.195215
C18   C     C_R   0.548495 0.851080 0.869684 -0.195273
C19   C     C_R   0.474973 0.294097 0.175861 -0.145056
C20   C     C_R   0.483358 0.706605 0.822512 -0.146922
C21   C     C_R   0.422956 0.361870 0.079494 0.105842
C22   C     C_R   0.462002 0.640818 0.921612 0.106933
C23   C     C_R   0.364102 0.322083 0.005358 0.092716
C24   C     C_R   0.499001 0.681001 0.996845 0.090446
C25   C     C_R   0.433414 0.468395 0.053566 -0.096111
C26   C     C_R   0.413200 0.535133 0.949096 -0.096366
C27   C     C_R   0.344233 0.493303 0.877132 0.331786
C28   C     C_R   0.461311 0.511294 0.127296 0.354941
C29   C     C_R   0.322305 0.387651 0.906304 -0.278739
C30   C     C_R   0.493702 0.616507 0.097792 -0.278085
H7    H     H_    0.269965 0.356324 0.851334 0.176629
H8    H     H_    0.514778 0.648108 0.154612 0.177722
H9    H     H_    0.473466 0.676664 0.765950 0.179538
H10   H     H_    0.537535 0.322219 0.229996 0.187692
H11   H     H_    0.577510 0.932084 0.850482 0.155830
H12   H     H_    0.362338 0.068450 0.150956 0.152722
H13   H     H_    0.297053 0.185154 0.975969 0.133843
H14   H     H_    0.565534 0.817340 0.027262 0.135194
N1    N     N_R   0.585750 0.204560 0.560800 -0.188988
N2    N     N_R   0.414250 0.795440 0.439200 -0.179890
C31   C     C_R   0.737261 0.292932 0.653249 -0.305922
C32   C     C_R   0.255760 0.700991 0.356632 -0.294831
C33   C     C_R   0.697400 0.209299 0.627167 0.067488
C34   C     C_R   0.302574 0.789829 0.373208 0.086126
C35   C     C_R   0.507842 0.279338 0.520254 0.071414
C36   C     C_R   0.485181 0.716221 0.489019 0.051795
C37   C     C_R   0.542033 0.366194 0.544875 0.000801
C38   C     C_R   0.443830 0.623810 0.474503 0.000198
C39   C     C_R   0.661075 0.372243 0.611320 0.150622
C40   C     C_R   0.324976 0.617389 0.407848 0.155080
C41   C     C_R   0.465646 0.448267 0.503408 0.097158
C42   C     C_R   0.515022 0.538294 0.523238 0.078238
C43   C     C_R   0.634210 0.539906 0.590293 -0.211340
C44   C     C_R   0.342083 0.443602 0.442247 -0.118366
C45   C     C_R   0.704443 0.457909 0.634316 -0.175157
C46   C     C_R   0.274640 0.527155 0.394068 -0.156314
H15   H     H_    0.795531 0.462678 0.685270 0.160292
H16   H     H_    0.181678 0.520899 0.345563 0.150123
H17   H     H_    0.571508 0.726670 0.540954 0.114654
H18   H     H_    0.421847 0.270485 0.467283 0.155481
H19   H     H_    0.247649 0.853565 0.335614 0.119004
H20   H     H_    0.756393 0.148193 0.659323 0.125734
H21   H     H_    0.827920 0.296111 0.705041 0.146738
H22   H     H_    0.164952 0.697135 0.305189 0.140123
H23   H     H_    0.676593 0.603845 0.610400 0.133126
H24   H     H_    0.294804 0.375931 0.429848 0.153524
N3    N     N_R   0.279608 0.554723 0.779058 0.105843
O9    O     O_R   0.212267 0.622676 0.770163 -0.362498
O10   O     O_R   0.272623 0.533455 0.701260 -0.382707
N4    N     N_R   0.442264 0.451715 0.230353 0.094350
O11   O     O_R   0.334235 0.389214 0.250848 -0.409234
O12   O     O_R   0.527616 0.467037 0.303351 -0.407351

loop_
_geom_bond_atom_site_label_1
_geom_bond_atom_site_label_2
_geom_bond_distance
_ccdc_geom_bond_type
C37   C39   1.415549 A    
N1    C33   1.356843 A    
C27   N3    1.437877 S    
C25   C26   1.423693 A    
C31   H21   1.083852 S    
C17   H12   1.083029 S    
C24   C30   1.388294 A    
C4    C9    1.454978 S    
C18   H11   1.083057 S    
C7    C9    1.531414 S    
O1    C1    1.300895 A    
C7    C12   1.546811 S    
C38   C42   1.435153 A    
C19   C21   1.406527 A    
C10   C12   1.531340 S    
C22   C26   1.424796 A    
N4    O12   1.300395 A    
C5    C11   1.545640 S    
C32   C34   1.390740 A    
C13   C17   1.401466 A    
C3    C10   1.454470 S    
C35   C37   1.422171 A    
O4    Cu1   1.935336 S    
C43   C45   1.389727 A    
C36   C38   1.420678 A    
C32   C40   1.401466 A    
C40   C46   1.394089 A    
C42   C43   1.412205 A    
O6    Cu2   1.956151 S    
C15   C17   1.394101 A    
C32   H22   1.083807 S    
C23   C29   1.392356 A    
Cu1   N2    2.025491 S    
C9    C11   1.531469 S    
Cu2   N1    2.025491 S    
Cu1   Cu2   2.696299 S    
O2    C2    1.300931 A    
C8    C11   1.546779 S    
C28   N4    1.431496 S    
C33   H20   1.081635 S    
C16   H14   1.083985 S    
C28   C30   1.393568 A    
C1    C13   1.472724 S    
C29   H7    1.084458 S    
C35   H18   1.076068 S    
C6    C12   1.545696 S    
C37   C41   1.434458 A    
C34   H19   1.081800 S    
C14   C18   1.400817 A    
C41   C42   1.434278 A    
C43   H23   1.076615 S    
C46   H16   1.084212 S    
C45   H15   1.084320 S    
N4    O11   1.301498 A    
C39   C45   1.394447 A    
N2    C34   1.356210 A    
C16   C18   1.391087 A    
O5    C3    1.290430 A    
O7    Cu2   1.956616 S    
O7    C3    1.293116 A    
N3    O9    1.301801 A    
O5    Cu1   1.956151 S    
O6    C4    1.290481 A    
C19   H10   1.078200 S    
C15   H13   1.083844 S    
C27   C29   1.397193 A    
N2    C36   1.363165 A    
O3    Cu2   1.935337 S    
O8    C4    1.293281 A    
O4    C2    1.301638 A    
C5    C10   1.534186 S    
N3    O10   1.301971 A    
C6    C9    1.534391 S    
C25   C28   1.427364 A    
C8    C10   1.531288 S    
C36   H17   1.075362 S    
O1    Cu1   1.941831 S    
C26   C27   1.428468 A    
C44   H24   1.077125 S    
C5    C7    1.545655 S    
C6    H4    1.110444 S    
C2    C14   1.468393 S    
C31   C39   1.401015 A    
O3    C1    1.303856 A    
O8    Cu1   1.956616 S    
C11   H5    1.110259 S    
C13   C19   1.397722 A    
C12   H6    1.110349 S    
C14   C20   1.399830 A    
C41   C44   1.410997 A    
C20   C22   1.404422 A    
C21   C23   1.414672 A    
C22   C24   1.415049 A    
N1    C35   1.363620 A    
C7    H1    1.110222 S    
C15   C23   1.404076 A    
C8    H2    1.110256 S    
C16   C24   1.402289 A    
C21   C25   1.424697 A    
O2    Cu2   1.941831 S    
C31   C33   1.390897 A    
C30   H8    1.084862 S    
C5    H3    1.110450 S    
C6    C8    1.545690 S    
C44   C46   1.388732 A    
C20   H9    1.079251 S    
C38   C40   1.416613 A    
