data_mof_unit_63991.cif
_audit_creation_date              2012-10-26T18:13:29-0400
_audit_creation_method            fapswitch 2.2
_symmetry_space_group_name_H-M    P1
_symmetry_Int_Tables_number       1
_space_group_crystal_system       triclinic
_cell_length_a                    21.564428
_cell_length_b                    21.56989
_cell_length_c                    22.097593
_cell_angle_alpha                 119.287998
_cell_angle_beta                  118.876215
_cell_angle_gamma                 90.330949
_cell_volume                      7445.44538216

loop_
_atom_site_label
_atom_site_type_symbol
_atom_type_description
_atom_site_fract_x
_atom_site_fract_y
_atom_site_fract_z
_atom_type_partial_charge
C1    C     C_R   0.500517 0.120315 0.500520 0.550876
C2    C     C_3   0.163446 0.748139 0.951653 -0.277734
C3    C     C_3   0.761641 0.168783 0.951384 -0.237926
C4    C     C_3   0.211138 0.795269 0.048627 -0.232606
C5    C     C_1   0.837659 0.336878 0.175116 -0.035215
C6    C     C_1   0.163299 0.663530 0.824891 -0.037805
C7    C     C_1   0.662114 0.162216 0.824941 -0.040838
C8    C     C_1   0.338018 0.838474 0.175019 -0.024256
C9    C     C_1   0.624556 0.124659 0.749544 -0.025568
C10   C     C_1   0.375462 0.875666 0.250426 -0.020151
C11   C     C_3   0.431691 0.171197 0.417193 -0.247785
C12   C     C_R   0.498463 0.878655 0.497240 0.547083
C13   C     C_3   0.526769 0.758182 0.444688 -0.241638
C14   C     C_3   0.429014 0.242686 0.417224 -0.234511
C15   C     C_3   0.525697 0.686357 0.443799 -0.242676
C16   C     C_R   0.579832 0.079885 0.659805 0.548255
C17   C     C_R   0.420164 0.920144 0.340183 0.547588
C18   C     C_3   0.497441 0.250736 0.573911 -0.255018
C19   C     C_3   0.419293 0.765347 0.462577 -0.250943
C20   C     C_3   0.572526 0.220250 0.509505 -0.204372
C21   C     C_3   0.552597 0.833855 0.589202 -0.201633
C22   C     C_3   0.500845 0.189257 0.500420 0.016300
C23   C     C_3   0.707869 0.208017 0.917145 0.037587
C24   C     C_3   0.498860 0.810237 0.498106 0.012884
C25   C     C_3   0.498041 0.310587 0.499435 0.063279
C26   C     C_3   0.501308 0.689682 0.500854 0.048792
C27   C     C_3   0.494141 0.321474 0.572421 -0.286567
C28   C     C_3   0.420247 0.693240 0.461736 -0.284291
C29   C     C_3   0.572179 0.293928 0.512334 0.166947
C30   C     C_3   0.549809 0.763850 0.592166 0.179209
C31   C     C_3   0.734336 0.581778 0.542868 -0.222597
C32   C     C_3   0.254998 0.417620 0.437283 -0.203673
C33   C     C_3   0.809776 0.467083 0.549768 -0.240722
C34   C     C_3   0.292440 0.793188 0.082721 0.051225
C35   C     C_3   0.202769 0.551456 0.473221 -0.238080
C36   C     C_3   0.738220 0.468174 0.549812 -0.250148
C37   C     C_3   0.272950 0.548384 0.470828 -0.249388
C38   C     C_3   0.689522 0.500107 0.500358 0.021475
C39   C     C_3   0.310515 0.498670 0.499619 0.015952
C40   C     C_3   0.744076 0.452307 0.412117 -0.292791
C41   C     C_3   0.255983 0.531691 0.587929 -0.285141
C42   C     C_3   0.671535 0.451668 0.410114 -0.248052
C43   C     C_3   0.327873 0.529615 0.588408 -0.247350
C44   C     C_R   0.881688 0.501401 0.503009 0.579587
C45   C     C_3   0.706096 0.271799 0.050554 0.198224
C46   C     C_R   0.119043 0.499372 0.498418 0.563912
C47   C     C_R   0.920466 0.419954 0.340203 0.546743
C48   C     C_R   0.079825 0.580049 0.659798 0.551654
C49   C     C_R   0.379642 0.499005 0.500057 0.545532
C50   C     C_R   0.620343 0.499538 0.499890 0.572751
C51   C     C_R   0.497295 0.379634 0.499794 0.593481
C52   C     C_R   0.500926 0.620545 0.500386 0.555919
C53   C     C_3   0.813020 0.501665 0.503612 0.060230
C54   C     C_3   0.187736 0.499199 0.498011 0.041477
C55   C     C_3   0.807034 0.582794 0.543761 0.170541
C56   C     C_3   0.276826 0.773447 0.949864 0.189604
C57   C     C_3   0.185554 0.416961 0.441558 0.161388
C58   C     C_3   0.657793 0.228453 0.952942 0.207894
C59   C     C_3   0.327276 0.820526 0.048747 0.207827
C60   C     C_3   0.759014 0.283724 0.951425 -0.272309
C61   C     C_3   0.288636 0.709905 0.048105 -0.275108
C62   C     C_3   0.805945 0.332976 0.048638 -0.220991
C63   C     C_3   0.241188 0.661679 0.951117 -0.216196
C64   C     C_1   0.875648 0.374745 0.250498 -0.026392
C65   C     C_1   0.125148 0.625322 0.749510 -0.030767
C66   C     C_3   0.603722 0.105823 0.909973 -0.124085
C67   C     C_3   0.790405 0.290830 0.082859 0.062128
C68   C     C_3   0.304121 0.932364 0.056583 -0.138564
C69   C     C_3   0.571429 0.237370 0.387094 -0.123814
C70   C     C_3   0.669660 0.751873 0.623873 -0.101499
C71   C     C_3   0.883690 0.654560 0.694407 -0.005502
C72   C     C_3   0.965751 0.674693 0.759564 -0.370468
C73   C     C_3   0.089312 0.392329 0.309866 0.005580
C74   C     C_3   0.032932 0.325819 0.220947 -0.377230
C75   C     C_3   0.631153 0.327591 0.095083 -0.137818
C76   C     C_3   0.357359 0.790086 0.913483 -0.146545
C77   C     C_3   0.210398 0.710541 0.917175 0.067242
C78   C     C_3   0.808087 0.216196 0.048203 -0.274096
Cu1   Cu    Cu3+1 0.437520 0.000000 0.500030 0.915416
Cu2   Cu    Cu3+1 0.562480 0.000000 0.499970 0.908575
Cu3   Cu    Cu3+1 0.000200 0.562470 0.499990 0.938527
Cu4   Cu    Cu3+1 0.999800 0.437530 0.500010 0.933221
Cu5   Cu    Cu3+1 0.458730 0.458690 0.417370 0.891211
Cu6   Cu    Cu3+1 0.541270 0.541310 0.582630 0.924907
H1    H     H_    0.699591 0.603934 0.506298 0.058815
H2    H     H_    0.141309 0.784639 0.929689 0.097033
H3    H     H_    0.696532 0.236020 0.070334 0.106206
H4    H     H_    0.250348 0.806795 0.924878 0.097345
H5    H     H_    0.868540 0.227976 0.072625 0.121642
H6    H     H_    0.114399 0.704435 0.927286 0.122172
H7    H     H_    0.379581 0.147647 0.408191 0.136270
H8    H     H_    0.490721 0.743141 0.379587 0.115587
H9    H     H_    0.433580 0.127973 0.363661 0.110883
H10   H     H_    0.584676 0.787432 0.470199 0.132827
H11   H     H_    0.425012 0.233256 0.361231 0.140288
H12   H     H_    0.282603 0.379653 0.453543 0.077625
H13   H     H_    0.580252 0.676581 0.460605 0.091106
H14   H     H_    0.744150 0.473895 0.375539 0.109506
H15   H     H_    0.248869 0.499159 0.611952 0.117274
H16   H     H_    0.377049 0.254676 0.411723 0.105140
H17   H     H_    0.485347 0.637593 0.378388 0.131083
H18   H     H_    0.447304 0.229842 0.569757 0.146632
H19   H     H_    0.379515 0.750207 0.397964 0.125392
H20   H     H_    0.441624 0.333160 0.565216 0.114426
H21   H     H_    0.382821 0.643437 0.396279 0.135638
H22   H     H_    0.622761 0.232759 0.568720 0.096133
H23   H     H_    0.866329 0.347955 0.072882 0.106134
H24   H     H_    0.535774 0.874306 0.629497 0.087742
H25   H     H_    0.576771 0.175982 0.458917 0.133328
H26   H     H_    0.610090 0.863963 0.614743 0.136228
H27   H     H_    0.616999 0.339239 0.577983 0.127892
H28   H     H_    0.517285 0.767678 0.619922 0.136348
H29   H     H_    0.547379 0.265315 0.634376 0.110127
H30   H     H_    0.398791 0.800396 0.501401 0.136229
H31   H     H_    0.541288 0.370373 0.633590 0.126280
H32   H     H_    0.397236 0.692351 0.496957 0.090968
H33   H     H_    0.744419 0.618307 0.605550 0.114587
H34   H     H_    0.194023 0.616181 0.927215 0.108695
H35   H     H_    0.238984 0.395681 0.372874 0.144613
H36   H     H_    0.637142 0.473614 0.373134 0.125437
H37   H     H_    0.353757 0.493691 0.609598 0.120606
H38   H     H_    0.809151 0.407861 0.517562 0.133762
H39   H     H_    0.211965 0.610352 0.520293 0.133888
H40   H     H_    0.860373 0.496664 0.614354 0.121360
H41   H     H_    0.154572 0.538554 0.413107 0.100641
H42   H     H_    0.745959 0.393917 0.381267 0.125959
H43   H     H_    0.261423 0.590449 0.631330 0.127077
H44   H     H_    0.798360 0.598830 0.500035 0.142743
H45   H     H_    0.732322 0.111086 0.925651 0.109856
H46   H     H_    0.192695 0.391031 0.476507 0.149463
H47   H     H_    0.753386 0.502047 0.615188 0.120569
H48   H     H_    0.257205 0.525894 0.406272 0.117130
H49   H     H_    0.705957 0.410195 0.520957 0.171642
H50   H     H_    0.312768 0.606128 0.512171 0.110166
H51   H     H_    0.638559 0.392856 0.377963 0.142153
H52   H     H_    0.368443 0.587325 0.634192 0.144033
H53   H     H_    0.635358 0.269762 0.939497 0.170448
H54   H     H_    0.379802 0.805558 0.065105 0.164556
H55   H     H_    0.797093 0.273547 0.929499 0.124380
H56   H     H_    0.209663 0.853731 0.074620 0.129089
H57   H     H_    0.263682 0.687773 0.070309 0.120199
H58   H     H_    0.725000 0.314572 0.927342 0.108369
H59   H     H_    0.345814 0.704930 0.071817 0.111088
H60   H     H_    0.792466 0.386288 0.070987 0.162939
H61   H     H_    0.275824 0.634256 0.928349 0.164804
H62   H     H_    0.653160 0.117329 0.968691 0.085088
H63   H     H_    0.606511 0.067798 0.855474 0.133652
H64   H     H_    0.554631 0.075380 0.900159 0.136612
H65   H     H_    0.244579 0.904849 0.026458 0.092861
H66   H     H_    0.312998 0.932491 0.011149 0.105903
H67   H     H_    0.800567 0.162069 0.930752 0.122897
H68   H     H_    0.318262 0.991687 0.106036 0.140027
H69   H     H_    0.517526 0.196211 0.355324 0.108797
H70   H     H_    0.616345 0.211011 0.397001 0.117272
H71   H     H_    0.565797 0.253202 0.344319 0.132946
H72   H     H_    0.669955 0.780186 0.593493 0.096220
H73   H     H_    0.656785 0.690668 0.582923 0.126563
H74   H     H_    0.727267 0.773338 0.679483 0.129007
H75   H     H_    0.852248 0.608003 0.687072 0.117710
H76   H     H_    0.864980 0.703884 0.718353 0.130607
H77   H     H_    0.999855 0.721535 0.769307 0.163819
H78   H     H_    0.185928 0.771853 0.069714 0.116619
H79   H     H_    0.973625 0.692038 0.819773 0.081385
H80   H     H_    0.984938 0.625219 0.738436 0.147992
H81   H     H_    0.133530 0.418757 0.309739 0.113278
H82   H     H_    0.059222 0.431879 0.327994 0.141870
H83   H     H_    0.987878 0.297289 0.218438 0.164020
H84   H     H_    0.007792 0.345236 0.178794 0.082073
H85   H     H_    0.060886 0.285329 0.199131 0.150141
H86   H     H_    0.648833 0.314286 0.142543 0.107096
H87   H     H_    0.580306 0.282576 0.034406 0.152918
H88   H     H_    0.616496 0.380005 0.117347 0.139423
H89   H     H_    0.795854 0.183506 0.069679 0.103515
H90   H     H_    0.393969 0.843622 0.975811 0.136412
H91   H     H_    0.317339 0.800976 0.867011 0.109652
H92   H     H_    0.393499 0.764023 0.892790 0.142021
O1    O     O_R   0.447230 0.091150 0.500010 -0.513857
O2    O     O_R   0.447240 0.908850 0.500040 -0.514937
O3    O     O_R   0.507510 0.060280 0.620590 -0.495896
O4    O     O_R   0.492490 0.939720 0.379410 -0.501007
O5    O     O_R   0.613050 0.060280 0.620540 -0.508963
O6    O     O_R   0.386950 0.939720 0.379460 -0.509089
O7    O     O_R   0.909030 0.552780 0.500030 -0.483465
O8    O     O_R   0.090970 0.447220 0.499970 -0.492715
O9    O     O_R   0.909010 0.447270 0.500050 -0.529863
O10   O     O_R   0.090990 0.552730 0.499950 -0.530511
O11   O     O_R   0.939920 0.492480 0.379430 -0.511727
O12   O     O_R   0.552770 0.908850 0.499990 -0.518010
O13   O     O_R   0.060080 0.507520 0.620570 -0.512381
O14   O     O_R   0.939890 0.386970 0.379440 -0.496777
O15   O     O_R   0.060110 0.613030 0.620560 -0.493757
O16   O     O_R   0.373940 0.465070 0.430170 -0.524957
O17   O     O_R   0.626060 0.534930 0.569830 -0.515238
O18   O     O_3   0.591688 0.170930 0.912374 -0.591386
O19   O     O_3   0.352939 0.900415 0.093928 -0.587342
O20   O     O_3   0.592337 0.303241 0.463729 -0.584592
O21   O     O_3   0.620777 0.766463 0.650620 -0.556942
O22   O     O_3   0.875459 0.637672 0.619998 -0.550282
O23   O     O_R   0.443640 0.534850 0.569740 -0.520121
O24   O     O_3   0.117228 0.366796 0.362849 -0.555635
O25   O     O_3   0.689958 0.339500 0.086388 -0.588661
O26   O     O_3   0.319259 0.739916 0.917123 -0.590057
O27   O     O_R   0.556360 0.465150 0.430260 -0.509371
O28   O     O_R   0.465150 0.373960 0.430230 -0.497954
O29   O     O_R   0.534850 0.626040 0.569770 -0.470238
O30   O     O_R   0.534860 0.443740 0.569790 -0.526043
O31   O     O_R   0.465140 0.556260 0.430210 -0.530177
O32   O     O_R   0.552760 0.091150 0.499960 -0.517162

loop_
_geom_bond_atom_site_label_1
_geom_bond_atom_site_label_2
_ccdc_geom_bond_type
C23   C58   S    
C12   O2    A    
C11   H7    S    
C31   H1    S    
C52   O31   A    
C73   C74   S    
C41   H43   S    
C3    C23   S    
C5    C67   S    
C36   H49   S    
C74   H84   S    
C21   H26   S    
C75   O25   S    
C51   O30   A    
C49   O16   A    
C50   O27   A    
C71   H76   S    
C69   H71   S    
C62   C67   S    
C70   H72   S    
Cu2   O4    S    
C45   H3    S    
C9    C16   S    
C38   C42   S    
C49   O23   A    
C8    C10   T    
C50   O17   A    
C76   O26   S    
C56   H4    S    
C55   O22   S    
C56   O26   S    
C10   C17   S    
C12   O12   A    
C73   O24   S    
Cu4   O8    S    
C27   H20   S    
C33   C36   S    
C60   C62   S    
C18   H18   S    
C32   C39   S    
C46   O8    A    
C35   H41   S    
C1    O32   A    
Cu3   O15   S    
C74   H85   S    
Cu5   O31   S    
C68   H65   S    
C28   H32   S    
C60   H58   S    
C1    O1    A    
C44   C53   S    
C61   H59   S    
C6    C65   T    
C31   H33   S    
C48   O15   A    
C45   C67   S    
C78   H89   S    
C72   H77   S    
C41   H15   S    
C48   C65   S    
Cu6   O17   S    
C66   H64   S    
C16   O3    A    
C44   O9    A    
C11   H9    S    
C40   C42   S    
C48   O13   A    
C1    C22   S    
C78   H5    S    
C3    H45   S    
Cu4   O14   S    
C35   C54   S    
C25   C29   S    
C41   C43   S    
C67   C78   S    
C19   H19   S    
C32   C57   S    
C15   H13   S    
C17   O6    A    
C18   H29   S    
C74   H83   S    
C66   O18   S    
Cu3   Cu4   S    
C20   H22   S    
C20   C29   S    
C53   C55   S    
Cu6   O23   S    
C33   C53   S    
C23   C60   S    
C37   C39   S    
C4    C34   S    
C45   C58   S    
Cu4   O9    S    
C52   O29   A    
Cu5   O16   S    
C76   H92   S    
Cu5   O27   S    
C36   H47   S    
C47   C64   S    
C63   H34   S    
C16   O5    A    
C73   H82   S    
C15   C26   S    
C39   C43   S    
C62   H23   S    
C19   H30   S    
C59   O19   S    
C58   O18   S    
C69   O20   S    
C15   H17   S    
C56   C77   S    
C20   H25   S    
C13   C24   S    
C30   H28   S    
C42   H51   S    
C70   H74   S    
C2    C4    S    
C25   C51   S    
C68   H68   S    
C26   C52   S    
C4    H56   S    
C57   H46   S    
Cu5   Cu6   S    
C56   C59   S    
C28   H21   S    
C40   H42   S    
C46   C54   S    
C75   H86   S    
Cu1   O1    S    
Cu2   O12   S    
Cu1   O2    S    
C8    C34   S    
Cu2   O5    S    
C46   O10   A    
C19   C28   S    
C44   O7    A    
C66   H63   S    
C17   O4    A    
C45   O25   S    
C39   C49   S    
C73   H81   S    
C20   C22   S    
C26   C30   S    
C70   O21   S    
C13   C15   S    
Cu4   O13   S    
C75   H87   S    
C33   H38   S    
Cu1   O3    S    
Cu3   O7    S    
C32   H35   S    
C47   O11   A    
C14   H11   S    
C51   O28   A    
C58   H53   S    
C71   O22   S    
C63   C77   S    
C61   H57   S    
C7    C9    T    
C43   H37   S    
C35   C37   S    
Cu3   O10   S    
C18   C22   S    
C3    H67   S    
C57   O24   S    
C29   H27   S    
C76   H91   S    
C18   C27   S    
C62   H60   S    
Cu5   O28   S    
C6    C77   S    
C35   H39   S    
C37   H48   S    
C31   C38   S    
C14   H16   S    
C72   H80   S    
C38   C50   S    
C25   C27   S    
C29   O20   S    
C71   H75   S    
C21   C30   S    
C12   C24   S    
C11   C22   S    
C26   C28   S    
C69   H70   S    
C59   H54   S    
Cu1   O6    S    
C13   H10   S    
C70   H73   S    
C47   O14   A    
C36   C38   S    
C19   C24   S    
C71   C72   S    
C13   H8    S    
C2    C77   S    
C40   H14   S    
C32   H12   S    
C42   H36   S    
C34   C59   S    
C7    C23   S    
C76   H90   S    
C11   C14   S    
C72   H79   S    
Cu3   O11   S    
C2    H2    S    
C68   O19   S    
C4    H78   S    
Cu2   O32   S    
C14   C25   S    
C43   H52   S    
Cu6   O29   S    
C69   H69   S    
C41   C54   S    
C66   H62   S    
C21   H24   S    
C68   H66   S    
C60   H55   S    
Cu1   Cu2   S    
Cu6   O30   S    
C30   O21   S    
C55   H44   S    
C5    C64   T    
C2    H6    S    
C40   C53   S    
C34   C61   S    
C21   C24   S    
C75   H88   S    
C33   H40   S    
C37   H50   S    
C31   C55   S    
C3    C78   S    
C63   H61   S    
C61   C63   S    
C54   C57   S    
C27   H31   S    
