data_mof_unit_51444.cif
_audit_creation_date              2012-12-10T17:14:32-0500
_audit_creation_method            fapswitch 2.2
_symmetry_space_group_name_H-M    P1
_symmetry_Int_Tables_number       1
_space_group_crystal_system       triclinic
_cell_length_a                    15.723257
_cell_length_b                    14.967847
_cell_length_c                    10.192422
_cell_angle_alpha                 90.249943
_cell_angle_beta                  83.261426
_cell_angle_gamma                 90.190419
_cell_volume                      2382.11542609

loop_
_atom_site_label
_atom_site_type_symbol
_atom_type_description
_atom_site_fract_x
_atom_site_fract_y
_atom_site_fract_z
_atom_type_partial_charge
C1    C     C_R   0.389907 0.122903 0.553274 0.819997
C2    C     C_2   0.508761 0.992454 0.069821 -0.000578
C3    C     C_2   0.990870 0.501112 0.929955 0.055842
C4    C     C_2   0.009159 0.500960 0.070069 0.061433
C5    C     C_2   0.334589 0.798816 0.578656 0.200102
C6    C     C_2   0.663576 0.202691 0.423237 0.243200
C7    C     C_2   0.668109 0.801569 0.419339 0.210439
C8    C     C_2   0.335162 0.200764 0.580764 0.232455
C9    C     C_2   0.822954 0.312788 0.588750 0.243958
C10   C     C_2   0.183522 0.680855 0.407266 0.248481
C11   C     C_2   0.182210 0.318423 0.406414 0.248326
C12   C     C_R   0.610920 0.877707 0.446610 0.796733
C13   C     C_2   0.817462 0.681686 0.593230 0.241802
C14   C     C_2   0.310009 0.755800 0.473358 -0.192615
C15   C     C_2   0.695189 0.238859 0.528330 -0.195445
C16   C     C_2   0.693687 0.759496 0.524160 -0.223192
C17   C     C_2   0.303899 0.238185 0.476939 -0.199469
C18   C     C_2   0.756610 0.311019 0.517696 -0.223645
C19   C     C_2   0.245794 0.685876 0.486145 -0.214811
C20   C     C_2   0.240886 0.308641 0.490530 -0.214846
C21   C     C_2   0.757429 0.689588 0.510867 -0.204796
C22   C     C_R   0.609882 0.123356 0.447529 0.813365
C23   C     C_R   0.389675 0.877012 0.552762 0.818207
C24   C     C_R   0.886320 0.618916 0.555522 0.809079
C25   C     C_R   0.113622 0.381179 0.444404 0.807461
C26   C     C_R   0.113868 0.618813 0.444761 0.808862
C27   C     C_R   0.887644 0.379908 0.554356 0.812288
C28   C     C_2   0.490789 0.993563 0.929925 0.007828
H1    H     H_    0.679863 0.210631 0.625967 0.241305
H2    H     H_    0.425619 0.990564 0.906313 0.214380
H3    H     H_    0.074134 0.501183 0.094545 0.187006
H4    H     H_    0.925908 0.501725 0.905470 0.184282
H5    H     H_    0.224710 0.003705 0.281876 0.425369
H6    H     H_    0.728312 0.964234 0.665245 0.392991
H7    H     H_    0.723084 0.507534 0.272819 0.408108
H8    H     H_    0.277192 0.502974 0.727353 0.409955
H9    H     H_    0.630171 0.233951 0.076843 0.414279
H10   H     H_    0.399152 0.805271 0.866598 0.369591
H11   H     H_    0.373999 0.229031 0.924274 0.417517
H12   H     H_    0.332837 0.777398 0.373976 0.228596
H13   H     H_    0.610294 0.813195 0.125607 0.370989
H14   H     H_    0.104265 0.760758 0.103081 0.419822
H15   H     H_    0.931535 0.209289 0.849669 0.412763
H16   H     H_    0.889140 0.751259 0.909805 0.424292
H17   H     H_    0.113139 0.252945 0.085765 0.419113
H18   H     H_    0.321274 0.211892 0.378412 0.242577
H19   H     H_    0.670492 0.780661 0.623724 0.223726
H20   H     H_    0.244928 0.641694 0.570007 0.240091
H21   H     H_    0.750775 0.361656 0.443749 0.240092
H22   H     H_    0.759172 0.646920 0.424608 0.240138
H23   H     H_    0.238118 0.350240 0.577869 0.249994
H24   H     H_    0.573691 0.987311 0.093530 0.208199
N1    N     N_2   0.549450 0.000000 0.831550 0.005442
N2    N     N_2   0.450550 0.000000 0.168450 0.027683
N3    N     N_2   0.049450 0.500000 0.831550 0.040779
N4    N     N_2   0.950550 0.500000 0.168450 0.041641
O1    O     O_R   0.398960 0.091100 0.433300 -0.580658
O2    O     O_R   0.569290 0.908910 0.353790 -0.597106
O3    O     O_R   0.569290 0.091090 0.353790 -0.553218
O4    O     O_R   0.430710 0.908910 0.646210 -0.598565
O5    O     O_R   0.930710 0.591090 0.646210 -0.568090
O6    O     O_R   0.069290 0.408910 0.353790 -0.567535
O7    O     O_R   0.069290 0.591090 0.353790 -0.570099
O8    O     O_R   0.930710 0.408910 0.646210 -0.574300
O9    O     O_2   0.321839 0.079238 0.069022 -0.219217
O10   O     O_2   0.318643 0.915770 0.085617 -0.207775
O11   O     O_3   0.285034 0.008057 0.299821 -0.455959
O12   O     O_R   0.601040 0.908900 0.566700 -0.638943
O13   O     O_2   0.674852 0.076945 0.945501 -0.194371
O14   O     O_2   0.683969 0.916028 0.904315 -0.213667
O15   O     O_3   0.716219 0.023427 0.706178 -0.427281
O16   O     O_2   0.823212 0.583894 0.073140 -0.223572
O17   O     O_2   0.821854 0.419838 0.068472 -0.222794
O18   O     O_3   0.782585 0.499623 0.293332 -0.522320
O19   O     O_2   0.177528 0.583110 0.928477 -0.216112
O20   O     O_2   0.177584 0.419022 0.929613 -0.224958
O21   O     O_3   0.217343 0.499715 0.706491 -0.525572
O22   O     O_2   0.650535 0.344908 0.268846 -0.294493
O23   O     O_R   0.601040 0.091100 0.566700 -0.595539
O24   O     O_2   0.776496 0.249429 0.217101 -0.187318
O25   O     O_3   0.630222 0.193452 0.153454 -0.483183
O26   O     O_2   0.207237 0.762415 0.770357 -0.184691
O27   O     O_2   0.335733 0.669893 0.760268 -0.284141
O28   O     O_3   0.342687 0.830696 0.853406 -0.452964
O29   O     O_2   0.344603 0.340130 0.743862 -0.291951
O30   O     O_2   0.220693 0.240510 0.789354 -0.206573
O31   O     O_3   0.367756 0.186974 0.850690 -0.482042
O32   O     O_2   0.797700 0.765856 0.230524 -0.191115
O33   O     O_2   0.667549 0.675868 0.231449 -0.282349
O34   O     O_R   0.398960 0.908900 0.433300 -0.580639
O35   O     O_3   0.665720 0.838550 0.145272 -0.452259
O36   O     O_2   0.179590 0.844165 0.304639 -0.253154
O37   O     O_2   0.261350 0.730235 0.170432 -0.215957
O38   O     O_3   0.095384 0.725761 0.185853 -0.490073
O39   O     O_2   0.764831 0.233664 0.817963 -0.224577
O40   O     O_2   0.847593 0.141939 0.648247 -0.203753
O41   O     O_3   0.929763 0.254944 0.779985 -0.498904
O42   O     O_2   0.827955 0.842446 0.705613 -0.247131
O43   O     O_2   0.734040 0.731800 0.826816 -0.226993
O44   O     O_3   0.898160 0.715955 0.826926 -0.486250
O45   O     O_R   0.898960 0.591100 0.433300 -0.576106
O46   O     O_2   0.268087 0.269621 0.173530 -0.248011
O47   O     O_2   0.170625 0.159818 0.289107 -0.253154
O48   O     O_3   0.104822 0.289188 0.167801 -0.488222
O49   O     O_R   0.101040 0.408900 0.566700 -0.575947
O50   O     O_R   0.101040 0.591100 0.566700 -0.574467
O51   O     O_R   0.898960 0.408900 0.433300 -0.572040
O52   O     O_R   0.430710 0.091090 0.646210 -0.554812
S1    S     S_3+6 0.342509 0.000792 0.150732 0.181647
S2    S     S_3+6 0.839623 0.232749 0.711622 0.112274
S3    S     S_3+6 0.817584 0.745524 0.741200 0.106272
S4    S     S_3+6 0.183235 0.256855 0.256039 0.102117
S5    S     S_3+6 0.657322 0.003663 0.851347 0.188235
S6    S     S_3+6 0.842959 0.500873 0.146275 0.182324
S7    S     S_3+6 0.157064 0.500492 0.853631 0.182168
S8    S     S_3+6 0.682057 0.250129 0.262599 0.100658
S9    S     S_3+6 0.303289 0.763013 0.743479 0.106827
S10   S     S_3+6 0.315135 0.244481 0.744345 0.096850
S11   S     S_3+6 0.701544 0.767993 0.253770 0.104763
S12   S     S_3+6 0.181763 0.747745 0.263760 0.108527
Zn1   Zn    Zn3+2 0.478810 0.000000 0.357840 1.110651
Zn2   Zn    Zn3+2 0.521190 0.000000 0.642160 1.080306
Zn3   Zn    Zn3+2 0.978810 0.500000 0.357840 1.144694
Zn4   Zn    Zn3+2 0.021190 0.500000 0.642160 1.141425

loop_
_geom_bond_atom_site_label_1
_geom_bond_atom_site_label_2
_ccdc_geom_bond_type
O3    Zn1   S    
C15   C18   S    
H7    O18   S    
C24   O5    A    
C1    C8    S    
O46   S4    D    
H11   O31   S    
C26   O50   A    
C8    S10   S    
C12   O12   A    
O13   S5    D    
O45   Zn3   S    
O5    Zn4   S    
C22   O23   A    
C20   H23   S    
H8    O21   S    
C11   C25   S    
C6    C22   S    
O16   S6    D    
O20   S7    D    
O15   S5    S    
C24   O45   A    
O6    Zn3   S    
C6    C15   D    
O38   S12   S    
O11   S1    S    
O33   S11   D    
O28   S9    S    
O37   S12   D    
O51   Zn3   S    
C12   O2    A    
C10   C26   S    
O43   S3    D    
C4    N4    D    
H9    O25   S    
C7    C12   S    
C3    N3    D    
C14   C19   S    
C16   H19   S    
C21   H22   S    
N1    S5    S    
C15   H1    S    
O14   S5    D    
C23   O4    A    
O23   Zn2   S    
C11   C20   D    
C25   O49   A    
N4    Zn3   S    
C7    S11   S    
C17   H18   S    
O31   S10   S    
C2    N2    D    
O12   Zn2   S    
C22   O3    A    
O48   S4    S    
C19   H20   S    
O8    Zn4   S    
O40   S2    D    
O17   S6    D    
C13   C24   S    
C5    S9    S    
O47   S4    D    
C26   O7    A    
H17   O48   S    
C1    O1    A    
C5    C23   S    
C27   O51   A    
C10   C19   D    
O9    S1    D    
C23   O34   A    
C13   C21   D    
O30   S10   D    
O32   S11   D    
O4    Zn2   S    
O1    Zn1   S    
C6    S8    S    
C5    C14   D    
C2    H24   S    
C7    C16   D    
H13   O35   S    
N2    Zn1   S    
O34   Zn1   S    
O35   S11   S    
O19   S7    D    
C3    C4    S    
C9    C27   S    
C9    S2    S    
N3    Zn4   S    
O2    Zn1   S    
O42   S3    D    
H10   O28   S    
C11   S4    S    
H14   O38   S    
C17   C20   S    
O22   S8    D    
H15   O41   S    
O52   Zn2   S    
O39   S2    D    
O7    Zn3   S    
C28   N1    D    
C16   C21   S    
N2    S1    S    
C8    C17   D    
O26   S9    D    
N1    Zn2   S    
O27   S9    D    
C28   H2    S    
O36   S12   D    
O29   S10   D    
C13   S3    S    
H5    O11   S    
O41   S2    S    
H16   O44   S    
N3    S7    S    
O25   S8    S    
C25   O6    A    
O10   S1    D    
C3    H4    S    
C4    H3    S    
C10   S12   S    
C27   O8    A    
C1    O52   A    
C14   H12   S    
C9    C18   D    
O49   Zn4   S    
O44   S3    S    
O50   Zn4   S    
N4    S6    S    
C2    C28   S    
O24   S8    D    
O21   S7    S    
H6    O15   S    
C18   H21   S    
O18   S6    S    
