data_mof_unit_50180.cif
_audit_creation_date              2012-12-11T17:01:20-0500
_audit_creation_method            fapswitch 2.2
_symmetry_space_group_name_H-M    P1
_symmetry_Int_Tables_number       1
_space_group_crystal_system       triclinic
_cell_length_a                    15.123495
_cell_length_b                    15.077493
_cell_length_c                    14.956557
_cell_angle_alpha                 109.776875
_cell_angle_beta                  109.119672
_cell_angle_gamma                 110.15393
_cell_volume                      2604.37326991

loop_
_atom_site_label
_atom_site_type_symbol
_atom_type_description
_atom_site_fract_x
_atom_site_fract_y
_atom_site_fract_z
_atom_type_partial_charge
C1    C     C_R   0.930990 0.743740 0.025107 -0.129552
C2    C     C_R   0.209704 0.803452 0.301845 -0.119053
C3    C     C_R   0.900378 0.410150 0.205894 -0.125316
C4    C     C_R   0.776431 0.245394 0.685053 -0.139804
C5    C     C_R   0.315766 0.594502 0.045335 -0.032326
C6    C     C_R   0.928656 0.501578 0.297499 0.051128
C7    C     C_R   0.327197 0.502141 0.024697 -0.103395
C8    C     C_R   0.300836 0.868151 0.302298 0.053026
C9    C     C_R   0.968091 0.153459 0.968085 0.014376
C10   C     C_3   0.510281 0.377822 0.022002 -0.416092
C11   C     C_3   0.404545 0.378224 0.001918 -0.404018
C12   C     C_R   0.674112 0.217083 0.673192 0.076604
C13   C     C_3   0.624390 0.577003 0.171758 -0.420765
C14   C     C_3   0.559630 0.524368 0.971934 -0.394432
C15   C     C_3   0.600847 0.493396 0.059476 0.403159
C16   C     C_R   0.057395 0.591571 0.777817 -0.079063
C17   C     C_3   0.425993 0.497219 0.039538 0.408681
C18   C     C_3   0.517385 0.569029 0.162419 -0.377872
C19   C     C_3   0.462075 0.534541 0.966441 -0.398342
C20   C     C_R   0.569907 0.122335 0.468751 0.168886
C21   C     C_R   0.572812 0.162243 0.569612 0.039859
C22   C     C_R   0.472657 0.132938 0.567373 -0.204951
C23   C     C_R   0.995810 0.499832 0.674406 0.039289
C24   C     C_R   0.376321 0.043375 0.472160 -0.194808
C25   C     C_R   0.380764 0.984706 0.379564 0.041091
C26   C     C_R   0.474677 0.035086 0.374603 0.113260
C27   C     C_3   0.534141 0.988298 0.331006 -0.440438
C28   C     C_R   0.701571 0.406408 0.004474 -0.151244
C29   C     C_3   0.637939 0.083036 0.433723 -0.546270
C30   C     C_R   0.957017 0.601571 0.478013 0.141880
C31   C     C_R   0.895369 0.502846 0.378047 0.032443
C32   C     C_R   0.846226 0.403501 0.375355 -0.197807
C33   C     C_R   0.879094 0.401777 0.472405 -0.186060
C34   C     C_R   0.699624 0.495808 0.065832 0.004934
C35   C     C_R   0.956240 0.500090 0.572715 0.049078
C36   C     C_R   0.987860 0.600047 0.575382 0.144221
C37   C     C_3   0.957171 0.681193 0.622509 -0.508206
C38   C     C_3   0.921189 0.680987 0.515977 -0.494479
C39   C     C_R   0.966859 0.949102 0.045349 0.143450
C40   C     C_R   0.968567 0.408657 0.685874 -0.138981
C41   C     C_R   0.935287 0.860730 0.947189 0.036675
C42   C     C_R   0.903662 0.863950 0.849867 -0.207027
C43   C     C_R   0.912082 0.960560 0.854422 -0.197499
C44   C     C_R   0.953919 0.051710 0.956563 0.045275
C45   C     C_R   0.994939 0.592272 0.299051 -0.122454
C46   C     C_R   0.977042 0.043928 0.050121 0.167025
C47   C     C_3   0.081388 0.113701 0.158117 -0.508523
C48   C     C_3   0.068897 0.008330 0.153912 -0.487140
C49   C     C_R   0.791423 0.588853 0.097117 -0.152973
C50   C     C_R   0.685446 0.246699 0.776577 -0.149863
C51   C     C_R   0.028694 0.754315 0.940000 -0.135961
C52   C     C_R   0.950901 0.775637 0.954743 0.057319
C53   C     C_R   0.833116 0.157321 0.032618 0.113459
C54   C     C_R   0.725788 0.110577 0.949802 -0.153955
C55   C     C_R   0.638362 0.062376 0.964298 -0.130729
C56   C     C_R   0.223671 0.409219 0.961523 -0.136601
C57   C     C_R   0.657518 0.060186 0.061315 -0.081774
C58   C     C_R   0.764173 0.106455 0.144073 -0.125774
C59   C     C_R   0.851782 0.154981 0.129927 -0.174753
C60   C     C_2   0.390463 0.703651 0.068363 0.904851
C61   C     C_R   0.296572 0.805624 0.207627 -0.147204
C62   C     C_R   0.924774 0.207966 0.016486 0.024831
C63   C     C_R   0.014775 0.206052 0.922550 -0.167730
H1    H     H_    0.881211 0.756802 0.059992 0.099839
H2    H     H_    0.796227 0.232500 0.621542 0.103674
H3    H     H_    0.371535 0.344606 0.047054 0.155473
H4    H     H_    0.662387 0.560375 0.236867 0.153413
H5    H     H_    0.493884 0.530736 0.209047 0.151510
H6    H     H_    0.624085 0.603663 0.991249 0.160561
H7    H     H_    0.536319 0.460490 0.889830 0.161796
H8    H     H_    0.394131 0.483828 0.879542 0.154738
H9    H     H_    0.485909 0.620992 0.992941 0.188536
H10   H     H_    0.681883 0.662032 0.196481 0.167389
H11   H     H_    0.531126 0.652214 0.203638 0.210378
H12   H     H_    0.200764 0.324159 0.923779 0.100099
H13   H     H_    0.469384 0.168399 0.641440 0.122697
H14   H     H_    0.103513 0.675485 0.799294 0.102485
H15   H     H_    0.302934 0.012716 0.476816 0.121032
H16   H     H_    0.517397 0.908682 0.326608 0.228764
H17   H     H_    0.527551 0.990572 0.255639 0.194147
H18   H     H_    0.678216 0.054998 0.485405 0.201520
H19   H     H_    0.691434 0.139847 0.417620 0.187914
H20   H     H_    0.793582 0.325782 0.298885 0.127854
H21   H     H_    0.846508 0.323316 0.467833 0.115062
H22   H     H_    0.888914 0.646322 0.636945 0.198712
H23   H     H_    0.339516 0.837762 0.170951 0.137284
H24   H     H_    0.029317 0.760814 0.693598 0.184417
H25   H     H_    0.831643 0.644835 0.467197 0.195379
H26   H     H_    0.649571 0.321372 0.976880 0.091116
H27   H     H_    0.971406 0.761037 0.525453 0.183630
H28   H     H_    0.878187 0.794962 0.773230 0.136746
H29   H     H_    0.890343 0.965676 0.780513 0.133421
H30   H     H_    0.152590 0.158815 0.151746 0.198909
H31   H     H_    0.074961 0.164697 0.226428 0.188812
H32   H     H_    0.133976 0.993024 0.147164 0.202434
H33   H     H_    0.051760 0.997124 0.217373 0.187753
H34   H     H_    0.041711 0.175601 0.866627 0.101554
H35   H     H_    0.936841 0.325902 0.623755 0.086449
H36   H     H_    0.818631 0.673177 0.151582 0.087185
H37   H     H_    0.622698 0.236427 0.798208 0.094229
H38   H     H_    0.071243 0.783176 0.901323 0.098549
H39   H     H_    0.020446 0.676623 0.351585 0.090327
H40   H     H_    0.709815 0.110743 0.873862 0.119862
H41   H     H_    0.555750 0.026531 0.900216 0.110368
H42   H     H_    0.589796 0.022972 0.072513 0.101047
H43   H     H_    0.779040 0.105829 0.219686 0.115824
H44   H     H_    0.933814 0.193810 0.196130 0.112398
H45   H     H_    0.178815 0.830403 0.354873 0.084387
H46   H     H_    0.408318 0.818960 0.024931 0.308816
H47   H     H_    0.834217 0.328600 0.169830 0.118519
H48   H     H_    0.535740 0.355327 0.085692 0.160344
H49   H     H_    0.493068 0.313704 0.943654 0.147289
H50   H     H_    0.344214 0.323083 0.912399 0.152723
N1    N     N_R   0.995640 0.706130 0.053910 -0.044985
N2    N     N_R   0.054010 0.556790 0.847890 -0.032933
N3    N     N_R   0.789940 0.443190 0.997130 -0.030915
N4    N     N_R   0.997630 0.443170 0.791110 -0.041365
N5    N     N_R   0.846320 0.556810 0.053910 -0.032435
N6    N     N_R   0.791080 0.293860 0.847890 -0.045365
N7    N     N_R   0.052880 0.706130 0.997130 -0.038244
N8    N     N_R   0.002370 0.556830 0.208890 -0.040436
N9    N     N_R   0.153680 0.443190 0.946090 -0.042416
N10   N     N_R   0.208920 0.706140 0.152110 -0.045802
N11   N     N_R   0.947120 0.293870 0.002870 -0.060428
N12   N     N_R   0.004360 0.293870 0.946090 -0.044598
N13   N     N_R   0.151690 0.706140 0.208890 -0.044053
N14   N     N_R   0.945990 0.443210 0.152110 -0.042616
N15   N     N_R   0.210060 0.556810 0.002870 -0.051182
N16   N     N_R   0.848310 0.293860 0.791110 -0.041738
Ni1   Ni    Ni4+2 0.999010 0.630300 0.130220 0.201370
Ni2   Ni    Ni4+2 0.000990 0.369700 0.869780 0.205701
Ni3   Ni    Ni4+2 0.130280 0.630280 0.000000 0.251716
Ni4   Ni    Ni4+2 0.869720 0.369720 0.000000 0.208930
O1    O     O_2   0.484686 0.759310 0.143589 -0.700479
O2    O     O_R   0.350970 0.743543 0.002382 -0.816660

loop_
_geom_bond_atom_site_label_1
_geom_bond_atom_site_label_2
_ccdc_geom_bond_type
C57   H42   S    
C16   N2    A    
C48   H32   S    
N10   Ni3   S    
H46   O2    S    
C14   H7    S    
C41   C42   A    
C19   H8    S    
C35   C36   A    
C41   C52   S    
C22   H13   S    
N8    Ni1   S    
C3    C6    A    
C62   N11   A    
C53   C59   A    
C39   C41   A    
C53   C54   A    
C26   C27   S    
N6    Ni4   S    
C13   C18   S    
C37   H22   S    
C36   C37   S    
C6    C45   A    
N8    N14   A    
C27   H16   S    
C10   C15   S    
C40   H35   S    
C30   C31   A    
C3    N14   A    
C27   C29   S    
N13   Ni1   S    
C3    H47   S    
C18   H5    S    
C23   C40   A    
C30   C38   S    
C16   H14   S    
C28   N3    A    
C33   C35   A    
C54   C55   A    
C49   N5    A    
C7    C17   S    
C10   H49   S    
C28   H26   S    
C4    C12   A    
C15   C34   S    
C11   H3    S    
C8    C61   A    
N2    Ni3   S    
C9    C62   A    
C40   N4    A    
C28   C34   A    
C18   H11   S    
C56   H12   S    
C9    C63   A    
C21   C22   A    
C8    C25   S    
N1    Ni1   S    
C19   H9    S    
C7    C56   A    
C11   H50   S    
N15   Ni3   S    
C1    C52   A    
C44   C46   A    
C51   N7    A    
C20   C29   S    
C51   C52   A    
C54   H40   S    
C24   C25   A    
C27   H17   S    
C61   H23   S    
C5    C7    A    
C17   C19   S    
N10   N13   A    
N3    Ni4   S    
C45   N8    A    
C25   C26   A    
C55   H41   S    
C59   H44   S    
C50   N6    A    
C38   H25   S    
C58   H43   S    
C56   N9    A    
C43   C44   A    
C29   H18   S    
C37   C38   S    
N5    Ni1   S    
C49   H36   S    
C53   C62   S    
N12   Ni2   S    
C47   C48   S    
C17   C18   S    
C47   H30   S    
C10   H48   S    
C60   O2    S    
C63   N12   A    
C39   C46   A    
N11   Ni4   S    
C24   H15   S    
C13   H10   S    
C16   C23   A    
C23   C35   S    
C10   C11   S    
C13   C15   S    
C14   H6    S    
C22   C24   A    
C1    N1    A    
C1    H1    S    
C60   O1    D    
N9    Ni2   S    
C13   H4    S    
C32   H20   S    
N2    N4    A    
C46   C47   S    
C11   C17   S    
C9    C44   S    
C48   H33   S    
C5    C60   S    
N7    Ni3   S    
C14   C19   S    
C37   H24   S    
C31   C32   A    
C2    C8    A    
N14   Ni4   S    
C12   C50   A    
C4    N16   A    
C51   H38   S    
C38   H27   S    
C50   H37   S    
C43   H29   S    
C30   C36   A    
C61   N10   A    
C32   C33   A    
C55   C57   A    
C58   C59   A    
C29   H19   S    
C63   H34   S    
C57   C58   A    
C4    H2    S    
C20   C26   A    
C12   C21   S    
C5    N15   A    
C2    H45   S    
N6    N16   A    
C47   H31   S    
N3    N5    A    
C6    C31   S    
N9    N15   A    
N4    Ni2   S    
C33   H21   S    
C45   H39   S    
C2    N13   A    
C20   C21   A    
C34   C49   A    
C42   C43   A    
C14   C15   S    
N11   N12   A    
N1    N7    A    
C42   H28   S    
C39   C48   S    
N16   Ni2   S    
