data_mof_unit_16011.cif
_audit_creation_date              2012-12-10T20:27:15-0500
_audit_creation_method            fapswitch 2.2
_symmetry_space_group_name_H-M    P1
_symmetry_Int_Tables_number       1
_space_group_crystal_system       triclinic
_cell_length_a                    10.750586
_cell_length_b                    10.655157
_cell_length_c                    9.877838
_cell_angle_alpha                 89.921692
_cell_angle_beta                  103.914291
_cell_angle_gamma                 90.052258
_cell_volume                      1098.29495301

loop_
_atom_site_label
_atom_site_type_symbol
_atom_type_description
_atom_site_fract_x
_atom_site_fract_y
_atom_site_fract_z
_atom_type_partial_charge
C1    C     C_R   0.497757 0.260052 0.499593 0.909985
C2    C     C_R   0.609622 0.520681 0.100285 -0.116999
C3    C     C_R   0.609582 0.520944 0.956608 -0.110516
C4    C     C_R   0.258829 0.504601 0.441908 0.934429
C5    C     C_R   0.387855 0.489593 0.899773 0.178989
C6    C     C_3   0.291557 0.385115 0.870194 -0.321904
C7    C     C_3   0.291269 0.387569 0.024866 -0.348120
C8    C     C_R   0.491330 0.739633 0.497780 0.851831
C9    C     C_R   0.741224 0.504615 0.558150 0.935976
C10   C     C_2   0.122061 0.522546 0.409262 -0.360090
C11   C     C_2   0.068453 0.556202 0.511962 -0.129913
C12   C     C_R   0.480112 0.128570 0.497139 -0.139311
C13   C     C_2   0.878133 0.522622 0.591060 -0.356454
C14   C     C_2   0.931943 0.555530 0.488152 -0.148579
C15   C     C_R   0.512380 0.062921 0.621723 0.177986
C16   C     C_2   0.343464 0.264443 0.827600 0.535010
C17   C     C_2   0.164997 0.428422 0.050987 0.464338
C18   C     C_2   0.338459 0.873090 0.241922 0.474889
C19   C     C_2   0.604140 0.871824 0.870564 0.495588
C20   C     C_R   0.418058 0.067722 0.373728 -0.190731
C21   C     C_R   0.408946 0.936991 0.371463 -0.054818
C22   C     C_R   0.468233 0.871182 0.494992 -0.244150
C23   C     C_R   0.506115 0.935516 0.621009 0.233727
C24   C     C_3   0.625808 0.923943 0.736030 -0.246651
C25   C     C_3   0.632636 0.066528 0.735365 -0.588974
C26   C     C_R   0.387567 0.491390 0.042113 0.260155
H1    H     H_    0.875880 0.570281 0.382053 0.178144
H2    H     H_    0.199755 0.414906 0.798718 0.199502
H3    H     H_    0.435317 0.228603 0.885726 0.047190
H4    H     H_    0.112673 0.364492 0.102590 0.054252
H5    H     H_    0.124715 0.572759 0.617638 0.196815
H6    H     H_    0.306027 0.776973 0.244877 0.098175
H7    H     H_    0.681607 0.875056 0.963974 0.049161
H8    H     H_    0.705926 0.877624 0.702120 0.138642
H9    H     H_    0.698677 0.535570 0.176787 0.146724
H10   H     H_    0.698428 0.536181 0.925989 0.154147
H11   H     H_    0.330571 0.302000 0.084867 0.135329
H12   H     H_    0.934751 0.507467 0.696903 0.176193
H13   H     H_    0.065181 0.506318 0.303863 0.161523
H14   H     H_    0.379552 0.121582 0.279830 0.188452
H15   H     H_    0.617562 0.112339 0.831240 0.207095
H16   H     H_    0.715776 0.103203 0.698725 0.203534
N1    N     N_R   0.499160 0.499140 0.142600 -0.127892
N2    N     N_R   0.499160 0.499180 0.856960 -0.118077
O1    O     O_R   0.500020 0.316790 0.614700 -0.604017
O2    O     O_2   0.119293 0.531187 0.012819 -0.584665
O3    O     O_2   0.313266 0.928194 0.130143 -0.546974
O4    O     O_2   0.501491 0.825714 0.876463 -0.518639
O5    O     O_R   0.500000 0.316760 0.385350 -0.630908
O6    O     O_R   0.317820 0.500020 0.571850 -0.604922
O7    O     O_R   0.317800 0.499980 0.342510 -0.626086
O8    O     O_R   0.500000 0.683240 0.614650 -0.574047
O9    O     O_R   0.499980 0.683210 0.385300 -0.627725
O10   O     O_R   0.682200 0.500020 0.657490 -0.626128
O11   O     O_R   0.682180 0.499980 0.428150 -0.618747
O12   O     O_2   0.281978 0.205545 0.727871 -0.555446
Zn1   Zn    Zn3+2 0.500010 0.500020 0.653140 0.982351
Zn2   Zn    Zn3+2 0.499990 0.499980 0.346860 0.951353

loop_
_geom_bond_atom_site_label_1
_geom_bond_atom_site_label_2
_ccdc_geom_bond_type
C2    H9    S    
C8    O9    A    
C8    C22   S    
C23   C24   S    
C16   O12   D    
C6    C7    S    
C9    O11   A    
C14   H1    S    
C18   C21   S    
C8    O8    A    
C12   C15   A    
N2    Zn1   S    
O9    Zn2   S    
O1    Zn1   S    
C18   O3    D    
C12   C20   A    
C15   C23   A    
C2    C3    A    
C7    H11   S    
C17   O2    D    
C11   H5    S    
O7    Zn2   S    
C13   C14   D    
C20   C21   A    
C17   H4    S    
C1    C12   S    
C1    O1    A    
C13   H12   S    
C7    C26   S    
C2    N1    A    
C25   H16   S    
C3    H10   S    
C5    N2    A    
C26   N1    A    
C19   C24   S    
C19   H7    S    
C5    C6    S    
C20   H14   S    
C11   C14   S    
C6    H2    S    
C3    N2    A    
C15   C25   S    
C18   H6    S    
O8    Zn1   S    
C4    O7    A    
C4    C10   S    
C5    C26   A    
C24   C25   S    
C10   C11   D    
O11   Zn2   S    
C25   H15   S    
C9    C13   S    
C22   C23   A    
C9    O10   A    
C19   O4    D    
N1    Zn2   S    
C16   H3    S    
C21   C22   A    
O6    Zn1   S    
C1    O5    A    
C6    C16   S    
C24   H8    S    
O5    Zn2   S    
C4    O6    A    
C10   H13   S    
C7    C17   S    
O10   Zn1   S    
