data_mof_unit_37401.cif
_audit_creation_date              2012-12-11T17:36:20-0500
_audit_creation_method            fapswitch 2.2
_symmetry_space_group_name_H-M    P1
_symmetry_Int_Tables_number       1
_space_group_crystal_system       triclinic
_cell_length_a                    25.830171
_cell_length_b                    6.90699
_cell_length_c                    21.710617
_cell_angle_alpha                 90.003048
_cell_angle_beta                  96.13893
_cell_angle_gamma                 89.992698
_cell_volume                      3851.15187841

loop_
_atom_site_label
_atom_site_type_symbol
_atom_type_description
_atom_site_fract_x
_atom_site_fract_y
_atom_site_fract_z
_atom_type_partial_charge
O1    O     O_R   0.208650 0.594520 0.175450 -0.546844
O2    O     O_R   0.791350 0.405480 0.824550 -0.546845
O3    O     O_R   0.291350 0.094520 0.324550 -0.546988
O4    O     O_R   0.708650 0.905480 0.675450 -0.546988
O5    O     O_R   0.192980 0.260780 0.300160 -0.505082
O6    O     O_R   0.807020 0.739220 0.699840 -0.505082
O7    O     O_R   0.307020 0.760780 0.199840 -0.505018
O8    O     O_R   0.692980 0.239220 0.800160 -0.505018
C1    C     C_R   0.178950 0.432754 0.318518 0.751757
C2    C     C_R   0.821050 0.567247 0.681481 0.751756
C3    C     C_R   0.321050 0.932736 0.181480 0.751724
C4    C     C_R   0.678950 0.067264 0.818520 0.751725
O9    O     O_R   0.202550 0.264660 0.174420 -0.531977
O10   O     O_R   0.797450 0.735340 0.825580 -0.531976
O11   O     O_R   0.297450 0.764660 0.325580 -0.531782
O12   O     O_R   0.702550 0.235340 0.674420 -0.531782
O13   O     O_R   0.300990 0.096480 0.197920 -0.544590
O14   O     O_R   0.699010 0.903520 0.802080 -0.544589
O15   O     O_R   0.199010 0.596480 0.302080 -0.544517
O16   O     O_R   0.800990 0.403520 0.697920 -0.544518
C5    C     C_R   0.191072 0.433432 0.151115 0.777537
C6    C     C_R   0.808928 0.566568 0.848885 0.777535
C7    C     C_R   0.308924 0.933411 0.348890 0.777606
C8    C     C_R   0.691076 0.066589 0.651110 0.777607
O17   O     O_3   0.282290 0.427760 0.257860 -0.366534
O18   O     O_3   0.717710 0.572240 0.742140 -0.366534
O19   O     O_3   0.217710 0.927760 0.242140 -0.366557
O20   O     O_3   0.782290 0.072240 0.757860 -0.366557
V1    V     V_3+5 0.244010 0.152080 0.248540 1.583764
V2    V     V_3+5 0.755990 0.847920 0.751460 1.583765
V3    V     V_3+5 0.255990 0.652080 0.251460 1.584189
V4    V     V_3+5 0.744010 0.347920 0.748540 1.584188
C9    C     C_R   0.657745 0.060009 0.591562 -0.207510
C10   C     C_R   0.342255 0.939992 0.408438 -0.207514
C11   C     C_R   0.842257 0.559811 0.908429 -0.207454
C12   C     C_R   0.157743 0.440188 0.091571 -0.207455
C13   C     C_R   0.648642 0.089223 0.480226 -0.192511
C14   C     C_R   0.351359 0.910778 0.519773 -0.192511
C15   C     C_R   0.851242 0.586311 0.019833 -0.192475
C16   C     C_R   0.148759 0.413691 0.980167 -0.192475
C17   C     C_R   0.679385 0.098705 0.536795 0.605790
C18   C     C_R   0.320615 0.901296 0.463205 0.605793
C19   C     C_R   0.820528 0.596696 0.963260 0.605696
C20   C     C_R   0.179473 0.403310 0.036740 0.605694
C21   C     C_R   0.604193 0.022002 0.589461 -0.187931
C22   C     C_R   0.395807 0.977999 0.410539 -0.187932
C23   C     C_R   0.895856 0.522744 0.910491 -0.187721
C24   C     C_R   0.104144 0.477248 0.089509 -0.187718
C25   C     C_R   0.570781 0.029984 0.532739 0.085177
C26   C     C_R   0.429219 0.970017 0.467261 0.085177
C27   C     C_R   0.929214 0.529791 0.967264 0.085202
C28   C     C_R   0.070786 0.470199 0.032735 0.085202
C29   C     C_R   0.594686 0.049713 0.476998 -0.056000
C30   C     C_R   0.405314 0.950289 0.523002 -0.056001
C31   C     C_R   0.905240 0.547607 0.023023 -0.055983
C32   C     C_R   0.094760 0.452386 0.976977 -0.055984
C33   C     C_R   0.514997 0.012589 0.529442 -0.149619
C34   C     C_R   0.485003 0.987412 0.470558 -0.149619
C35   C     C_R   0.985015 0.513168 0.970579 -0.149499
C36   C     C_R   0.014984 0.486818 0.029420 -0.149498
C37   C     C_R   0.511910 0.975481 0.417101 0.632667
C38   C     C_R   0.488090 0.024522 0.582898 0.632667
C39   C     C_R   0.988044 0.472986 0.082807 0.632656
C40   C     C_R   0.011956 0.526997 0.917192 0.632654
C41   C     C_R   0.565003 0.020663 0.419242 0.062538
C42   C     C_R   0.434997 0.979339 0.580757 0.062537
C43   C     C_R   0.934904 0.517400 0.080728 0.062637
C44   C     C_R   0.065096 0.482587 0.919271 0.062636
H1    H     H_    0.409655 0.019963 0.367440 0.206128
H2    H     H_    0.590345 0.980038 0.632559 0.206127
H3    H     H_    0.090214 0.517944 0.132686 0.205995
H4    H     H_    0.909786 0.482044 0.867314 0.205995
H5    H     H_    0.667980 0.111493 0.439034 0.159134
H6    H     H_    0.332020 0.888508 0.560966 0.159136
H7    H     H_    0.831846 0.607125 0.061055 0.159148
H8    H     H_    0.168156 0.392883 0.938945 0.159147
C45   C     C_R   0.439214 0.817634 0.095614 -0.258526
C46   C     C_R   0.560786 0.182366 0.904385 -0.258527
C47   C     C_R   0.060781 0.317689 0.404359 -0.258595
C48   C     C_R   0.939203 0.682337 0.595615 -0.258600
H9    H     H_    0.467882 0.703508 0.094397 0.154440
H10   H     H_    0.532118 0.296492 0.905603 0.154441
H11   H     H_    0.032122 0.203555 0.405576 0.154480
H12   H     H_    0.967862 0.796466 0.594398 0.154456
C49   C     C_R   0.400052 0.798591 0.135376 0.631367
C50   C     C_R   0.599948 0.201409 0.864623 0.631365
C51   C     C_R   0.099948 0.298640 0.364603 0.631059
C52   C     C_R   0.900043 0.701372 0.635382 0.631102
C53   C     C_R   0.362703 0.945815 0.138814 -0.209987
C54   C     C_R   0.637297 0.054185 0.861186 -0.209987
C55   C     C_R   0.137290 0.445859 0.361175 -0.210154
C56   C     C_R   0.862704 0.554145 0.638818 -0.210164
C57   C     C_R   0.365368 0.110222 0.100856 -0.180867
C58   C     C_R   0.634632 0.889778 0.899143 -0.180867
C59   C     C_R   0.134612 0.610273 0.399132 -0.180552
C60   C     C_R   0.865379 0.389736 0.600858 -0.180541
H13   H     H_    0.336772 0.224619 0.102255 0.205110
H14   H     H_    0.663228 0.775381 0.897745 0.205110
H15   H     H_    0.163204 0.724664 0.397740 0.205177
H16   H     H_    0.836791 0.275335 0.602257 0.205187
C61   C     C_R   0.404014 0.129155 0.060171 0.181108
C62   C     C_R   0.595986 0.870845 0.939829 0.181108
C63   C     C_R   0.095956 0.629224 0.439806 0.181117
C64   C     C_R   0.904022 0.370814 0.560165 0.181110
C65   C     C_R   0.441664 0.981378 0.057727 0.031645
C66   C     C_R   0.558335 0.018622 0.942272 0.031646
C67   C     C_R   0.058316 0.481441 0.442245 0.031626
C68   C     C_R   0.941659 0.518601 0.557721 0.031629
C69   C     C_1   0.482867 0.994217 0.017006 -0.003882
C70   C     C_1   0.517133 0.005783 0.982994 -0.003881
C71   C     C_1   0.017118 0.494253 0.482972 -0.003900
C72   C     C_1   0.982856 0.505789 0.516991 -0.003896
C73   C     C_3   0.590092 0.027275 0.359286 -0.661527
H17   H     H_    0.562053 0.001850 0.317708 0.265796
H18   H     H_    0.607418 0.172435 0.353594 0.192904
H19   H     H_    0.620861 0.914778 0.359916 0.200143
C74   C     C_3   0.409909 0.972728 0.640714 -0.661527
H20   H     H_    0.437947 0.998153 0.682292 0.265796
H21   H     H_    0.379139 0.085225 0.640084 0.200144
H22   H     H_    0.392582 0.827568 0.646406 0.192905
C75   C     C_3   0.909752 0.521872 0.140664 -0.661723
H23   H     H_    0.937774 0.495660 0.182200 0.265769
H24   H     H_    0.892288 0.666587 0.146752 0.192863
H25   H     H_    0.879085 0.408925 0.139670 0.200186
C76   C     C_3   0.090248 0.478112 0.859335 -0.661705
H26   H     H_    0.062224 0.504301 0.817798 0.265767
H27   H     H_    0.120912 0.591076 0.860326 0.200188
H28   H     H_    0.107717 0.333402 0.853251 0.192857
F1    F     F_    0.269025 0.861672 0.462137 -0.705747
F2    F     F_    0.730975 0.138328 0.537863 -0.705764
F3    F     F_    0.231120 0.364733 0.037766 -0.705692
F4    F     F_    0.768882 0.635281 0.962233 -0.705692
F5    F     F_    0.488242 0.904058 0.363044 -0.694906
F6    F     F_    0.511758 0.095945 0.636956 -0.694905
F7    F     F_    0.011742 0.400421 0.136688 -0.694822
F8    F     F_    0.988258 0.599560 0.863310 -0.694823
F9    F     F_    0.399593 0.638012 0.171347 -0.668236
F10   F     F_    0.600407 0.361987 0.828652 -0.668236
F11   F     F_    0.100419 0.138056 0.328632 -0.668257
F12   F     F_    0.899577 0.861950 0.671358 -0.668248
C77   C     C_3   0.403138 0.308248 0.020386 -0.704874
H29   H     H_    0.405804 0.438412 0.050431 0.225945
H30   H     H_    0.435577 0.313843 0.990888 0.197722
H31   H     H_    0.365932 0.314031 0.989666 0.226294
C78   C     C_3   0.596862 0.691752 0.979614 -0.704877
H32   H     H_    0.594196 0.561588 0.949568 0.225944
H33   H     H_    0.634067 0.685969 0.010334 0.226294
H34   H     H_    0.564423 0.686157 0.009112 0.197723
C79   C     C_3   0.096814 0.808326 0.479590 -0.705118
H35   H     H_    0.094264 0.938507 0.449553 0.225913
H36   H     H_    0.064300 0.814133 0.508976 0.197770
H37   H     H_    0.133968 0.813883 0.510415 0.226185
C80   C     C_3   0.903154 0.191731 0.520371 -0.705172
H38   H     H_    0.905813 0.061557 0.550407 0.225872
H39   H     H_    0.865953 0.185986 0.489642 0.226240
H40   H     H_    0.935598 0.186123 0.490882 0.197785

loop_
_geom_bond_atom_site_label_1
_geom_bond_atom_site_label_2
_ccdc_geom_bond_type
O17   V3    S    
C40   F8    S    
O1    C5    A    
C51   C55   A    
O19   V1    S    
C9    C21   A    
O3    C7    A    
C71   C72   T    
C10   C18   A    
C56   C60   A    
C48   H12   S    
O15   V3    S    
C1    C55   S    
C47   C51   A    
C78   H32   S    
C37   F5    S    
C33   C38   A    
C5    C12   S    
C20   F3    S    
O7    C3    A    
C6    C11   S    
C35   C40   A    
C26   C30   A    
C63   C79   S    
C36   C39   A    
C40   C44   A    
O9    V1    S    
C19   F4    S    
C14   C18   A    
C79   H36   S    
C62   C78   S    
C66   C70   S    
C17   F2    S    
O4    C8    A    
C59   H15   S    
C79   H35   S    
C58   H14   S    
O1    V3    S    
O13   V1    S    
O2    V4    S    
O3    V1    S    
C46   H10   S    
C52   F12   S    
C75   H25   S    
C13   H5    S    
C28   C36   A    
C61   C77   S    
C1    O15   A    
C15   C31   A    
C52   C56   A    
C2    O16   A    
C22   H1    S    
C42   C74   S    
O2    C6    A    
C76   H28   S    
C12   C24   A    
C10   C22   A    
C45   H9    S    
C64   C80   S    
C80   H39   S    
C11   C19   A    
C16   C20   A    
C73   H19   S    
C13   C29   A    
C46   C50   A    
C34   C37   A    
O11   C7    A    
C11   C23   A    
C35   C36   A    
O12   C8    A    
O17   V1    S    
C67   C71   S    
O10   V2    S    
C43   C75   S    
C78   H33   S    
C59   C63   A    
C54   C58   A    
O5    V1    S    
C61   C65   A    
C39   C43   A    
O7    V3    S    
C38   C42   A    
O9    C5    A    
C26   C34   A    
O20   V4    S    
C50   C54   A    
C74   H22   S    
C57   C61   A    
C49   C53   A    
O18   V4    S    
C15   C19   A    
C16   C32   A    
C32   C44   A    
C55   C59   A    
C53   C57   A    
C16   H8    S    
C77   H30   S    
O8    V4    S    
O5    C1    A    
C37   C41   A    
C3    C53   S    
C57   H13   S    
C31   C43   A    
C14   C30   A    
C21   C25   A    
O8    C4    A    
C7    C10   S    
C48   C68   A    
C47   C67   A    
C80   H40   S    
C75   H23   S    
O14   V2    S    
C79   H37   S    
O6    V2    S    
O18   V2    S    
C15   H7    S    
C60   C64   A    
O19   V3    S    
C76   H26   S    
C77   H31   S    
C27   C35   A    
C24   H3    S    
C4    O14   A    
C49   F9    S    
C64   C68   A    
C78   H34   S    
C29   C41   A    
C73   H17   S    
O16   V4    S    
C4    C54   S    
C65   C69   S    
C3    O13   A    
C21   H2    S    
C41   C73   S    
C51   F11   S    
O6    C2    A    
C25   C33   A    
C23   C27   A    
O11   V3    S    
C30   C42   A    
O12   V4    S    
C22   C26   A    
C8    C9    S    
C46   C66   A    
C9    C17   A    
O10   C6    A    
C74   H21   S    
O20   V2    S    
C48   C52   A    
C77   H29   S    
C47   H11   S    
C38   F6    S    
C33   C34   A    
C45   C49   A    
C25   C29   A    
C60   H16   S    
C45   C65   A    
C14   H6    S    
C62   C66   A    
C18   F1    S    
C27   C31   A    
C13   C17   A    
C23   H4    S    
C75   H24   S    
C12   C20   A    
C50   F10   S    
C2    C56   S    
C68   C72   S    
C24   C28   A    
C58   C62   A    
C69   C70   T    
C76   H27   S    
C63   C67   A    
C80   H38   S    
C74   H20   S    
C44   C76   S    
O4    V2    S    
C28   C32   A    
C39   F7    S    
C73   H18   S    
