data_mof_unit_66322.cif
_audit_creation_date              2013-03-05T15:44:19-0500
_audit_creation_method            fapswitch 2.2
_symmetry_space_group_name_H-M    P1
_symmetry_Int_Tables_number       1
_space_group_crystal_system       triclinic
_cell_length_a                    21.799505
_cell_length_b                    21.774858
_cell_length_c                    21.892152
_cell_angle_alpha                 119.285997
_cell_angle_beta                  118.279366
_cell_angle_gamma                 90.206796
_cell_volume                      7597.87347859

loop_
_atom_site_label
_atom_site_type_symbol
_atom_site_description
_atom_site_fract_x
_atom_site_fract_y
_atom_site_fract_z
_atom_type_partial_charge
O1    O     O_R   0.447780 0.090160 0.499990 -0.579129
O2    O     O_R   0.552220 0.909840 0.500010 -0.558395
O3    O     O_R   0.552200 0.090180 0.499980 -0.540710
O4    O     O_R   0.447800 0.909820 0.500020 -0.557789
C1    C     C_R   0.499527 0.117947 0.498675 0.827891
C2    C     C_R   0.500445 0.882154 0.501079 0.834102
O5    O     O_R   0.508070 0.060270 0.620570 -0.558063
O6    O     O_R   0.491930 0.939730 0.379430 -0.546736
O7    O     O_R   0.612490 0.060290 0.620560 -0.549393
O8    O     O_R   0.387510 0.939710 0.379440 -0.564603
C3    C     C_R   0.578903 0.080121 0.659709 0.793796
C4    C     C_R   0.421002 0.920683 0.340340 0.807336
Cu1   Cu    Cu3+1 0.438180 0.999990 0.500010 1.127920
Cu2   Cu    Cu3+1 0.561820 0.000010 0.499990 1.171261
C5    C     C_R   0.732970 0.643050 0.591202 0.316692
C6    C     C_R   0.236172 0.470573 0.351047 0.325640
C7    C     C_R   0.693550 0.439232 0.444840 0.332728
C8    C     C_R   0.314688 0.539610 0.576004 0.319997
C9    C     C_R   0.684250 0.505259 0.495288 -0.133425
C10   C     C_R   0.313802 0.512800 0.501843 -0.149468
H1    H     H_    0.786371 0.756446 0.696484 0.243430
H2    H     H_    0.173364 0.398558 0.217140 0.241357
C11   C     C_R   0.813666 0.569870 0.569057 -0.082383
C12   C     C_R   0.181820 0.458365 0.419996 -0.097146
C13   C     C_3   0.651362 0.259841 0.949879 0.309772
C14   C     C_3   0.352445 0.781407 0.049327 0.305722
C15   C     C_3   0.769776 0.260050 0.949862 -0.450314
C16   C     C_3   0.250680 0.722140 0.050378 -0.441026
C17   C     C_3   0.819187 0.307802 0.046766 0.053518
C18   C     C_3   0.199130 0.673839 0.953370 0.048567
H3    H     H_    0.799072 0.227272 0.922230 0.274390
H4    H     H_    0.219801 0.731120 0.080674 0.274325
H5    H     H_    0.759633 0.297641 0.928165 0.256749
H6    H     H_    0.285074 0.690003 0.069811 0.259604
H7    H     H_    0.830786 0.366393 0.067363 0.219022
H8    H     H_    0.208986 0.619415 0.930780 0.217258
C19   C     C_1   0.869489 0.377346 0.251298 0.037815
C20   C     C_1   0.129726 0.623902 0.748797 0.064024
C21   C     C_3   0.696276 0.208479 0.917257 -0.202437
C22   C     C_3   0.298870 0.797893 0.082976 -0.209635
C23   C     C_3   0.704054 0.316989 0.051838 0.333789
C24   C     C_3   0.302785 0.723426 0.947641 0.330478
C25   C     C_3   0.777960 0.294737 0.084094 -0.259907
C26   C     C_3   0.217729 0.711918 0.916178 -0.260052
C27   C     C_3   0.763676 0.210750 0.052489 0.008888
C28   C     C_3   0.198696 0.786678 0.948734 0.010920
C29   C     C_3   0.717684 0.156640 0.952886 0.391410
C30   C     C_3   0.243361 0.838809 0.048587 0.388209
C31   C     C_1   0.828069 0.341042 0.176376 0.202204
C32   C     C_1   0.169356 0.662812 0.823886 0.204239
C33   C     C_1   0.654602 0.162959 0.824534 0.249880
C34   C     C_1   0.342533 0.841639 0.175629 0.248529
C35   C     C_1   0.620767 0.125340 0.749226 0.020212
C36   C     C_1   0.378290 0.877449 0.250912 0.035903
H9    H     H_    0.819317 0.204787 0.074788 0.222900
H10   H     H_    0.140596 0.768345 0.927135 0.227209
C37   C     C_R   0.375460 0.121632 0.368254 -0.134750
C38   C     C_R   0.559334 0.889109 0.653948 -0.145813
H11   H     H_    0.378745 0.067450 0.355384 0.158004
H12   H     H_    0.575769 0.939744 0.659958 0.141778
C39   C     C_R   0.312055 0.125188 0.311467 -0.132754
C40   C     C_R   0.580066 0.892648 0.726440 -0.110380
H13   H     H_    0.269104 0.074266 0.256553 0.225588
H14   H     H_    0.613920 0.944566 0.786191 0.239135
C41   C     C_R   0.302882 0.193534 0.326234 0.366900
C42   C     C_R   0.555869 0.830352 0.722117 0.352979
C43   C     C_R   0.359639 0.259363 0.399321 -0.085462
C44   C     C_R   0.511633 0.762892 0.642970 -0.095070
C45   C     C_R   0.430178 0.254482 0.446259 -0.059778
C46   C     C_R   0.506883 0.755367 0.572167 -0.030301
C47   C     C_R   0.434769 0.186223 0.437269 0.054087
C48   C     C_R   0.522096 0.820628 0.575927 0.050603
C49   C     C_R   0.498837 0.183940 0.496927 -0.210299
C50   C     C_R   0.499951 0.816011 0.501732 -0.199853
C51   C     C_R   0.562058 0.245716 0.556824 0.243594
C52   C     C_R   0.471339 0.747571 0.425990 0.234426
C53   C     C_R   0.561814 0.309646 0.556402 0.259148
C54   C     C_R   0.467554 0.682700 0.424268 0.282934
C55   C     C_R   0.496056 0.314740 0.502048 -0.229598
C56   C     C_R   0.487440 0.685938 0.498029 -0.185511
C57   C     C_R   0.760153 0.440432 0.451430 -0.173749
C58   C     C_R   0.248782 0.537068 0.571625 -0.180015
C59   C     C_R   0.819834 0.504795 0.511546 -0.075802
C60   C     C_R   0.182475 0.495628 0.494483 -0.066408
O9    O     O_R   0.910000 0.552200 0.500000 -0.566639
O10   O     O_R   0.090000 0.447800 0.500000 -0.531766
O11   O     O_R   0.909970 0.447830 0.500020 -0.561331
O12   O     O_R   0.090030 0.552170 0.499980 -0.577657
C61   C     C_R   0.884292 0.502786 0.505944 0.840768
C62   C     C_R   0.115934 0.497120 0.494833 0.788052
O13   O     O_R   0.939920 0.491910 0.379430 -0.575740
O14   O     O_R   0.060080 0.508090 0.620570 -0.561304
O15   O     O_R   0.939890 0.387530 0.379440 -0.527616
O16   O     O_R   0.060110 0.612470 0.620560 -0.532382
C63   C     C_R   0.918511 0.420609 0.340439 0.806729
C64   C     C_R   0.082303 0.579470 0.659458 0.844150
Cu3   Cu    Cu3+1 0.000200 0.561800 0.499990 1.141030
Cu4   Cu    Cu3+1 0.999800 0.438200 0.500010 1.184001
O17   O     O_R   0.625100 0.534890 0.569750 -0.563259
O18   O     O_R   0.374900 0.465110 0.430250 -0.567496
O19   O     O_R   0.555310 0.465120 0.430190 -0.520023
O20   O     O_R   0.444690 0.534880 0.569810 -0.559138
C65   C     C_R   0.618561 0.501502 0.498542 0.881093
C66   C     C_R   0.381166 0.505626 0.501032 0.758053
O21   O     O_R   0.534910 0.444720 0.569790 -0.536497
O22   O     O_R   0.465090 0.555280 0.430210 -0.514255
O23   O     O_R   0.465120 0.374940 0.430230 -0.569401
O24   O     O_R   0.534880 0.625060 0.569770 -0.585024
C67   C     C_R   0.498856 0.381107 0.500468 0.815192
C68   C     C_R   0.495041 0.619011 0.499510 0.863050
Cu5   Cu    Cu3+1 0.541330 0.541310 0.582630 1.191901
Cu6   Cu    Cu3+1 0.458670 0.458690 0.417370 1.225134
C69   C     C_R   0.742631 0.572681 0.551357 -0.078595
C70   C     C_R   0.244826 0.482924 0.424988 -0.027830
H15   H     H_    0.765183 0.390379 0.408645 0.197124
H16   H     H_    0.249296 0.562447 0.628676 0.186555
C71   C     C_R   0.874900 0.631409 0.644407 0.267468
C72   C     C_R   0.123650 0.396149 0.341991 0.227800
C73   C     C_R   0.863768 0.697118 0.693050 0.242060
C74   C     C_R   0.124864 0.370258 0.269284 0.286961
C75   C     C_R   0.793659 0.703640 0.662945 -0.253251
C76   C     C_R   0.176896 0.412762 0.273743 -0.246242
N1    N     N_R   0.764663 0.115219 0.928027 0.138785
O25   O     O_R   0.801005 0.084821 0.966666 -0.207982
O26   O     O_R   0.754299 0.090254 0.855291 -0.331633
N2    N     N_R   0.190370 0.846588 0.074455 0.144395
O27   O     O_R   0.210361 0.860299 0.147239 -0.319264
O28   O     O_R   0.131570 0.861753 0.036919 -0.196404
N3    N     N_R   0.740585 0.191529 0.096033 0.188685
O29   O     O_R   0.787623 0.180876 0.151987 -0.228423
O30   O     O_R   0.674126 0.181903 0.078600 -0.159835
N4    N     N_R   0.195464 0.822775 0.905565 0.189316
O31   O     O_R   0.132000 0.820382 0.851975 -0.200762
O32   O     O_R   0.253660 0.860462 0.922008 -0.167946
N5    N     N_R   0.581977 0.210515 0.919398 0.168052
O33   O     O_R   0.574433 0.189755 0.962498 -0.185760
O34   O     O_R   0.526254 0.182987 0.843638 -0.229776
N6    N     N_R   0.397313 0.853544 0.079652 0.165758
O35   O     O_R   0.379699 0.882853 0.036727 -0.186440
O36   O     O_R   0.455793 0.891977 0.155101 -0.230309
N7    N     N_R   0.664506 0.316436 0.091196 0.197651
O37   O     O_R   0.603498 0.332999 0.068633 -0.171320
O38   O     O_R   0.698667 0.325344 0.163789 -0.275790
N8    N     N_R   0.324595 0.750106 0.907935 0.196386
O39   O     O_R   0.276822 0.738824 0.835932 -0.275236
O40   O     O_R   0.392649 0.761871 0.929930 -0.157038
N9    N     N_R   0.627367 0.243035 0.616990 0.165495
O41   O     O_R   0.626548 0.231052 0.669329 -0.312869
O42   O     O_R   0.688253 0.254693 0.621201 -0.225027
N10   N     N_R   0.447800 0.743845 0.350524 0.146954
O43   O     O_R   0.477521 0.712574 0.308305 -0.202706
O44   O     O_R   0.393663 0.767874 0.321361 -0.336566
N11   N     N_R   0.236353 0.195162 0.266376 0.181752
O45   O     O_R   0.174991 0.144128 0.224362 -0.224251
O46   O     O_R   0.238944 0.240113 0.244042 -0.254845
N12   N     N_R   0.577305 0.836008 0.798134 0.181115
O47   O     O_R   0.586811 0.897643 0.862223 -0.196035
O48   O     O_R   0.597472 0.783419 0.807477 -0.227364
C77   C     C_2   0.341314 0.328661 0.437784 0.459770
H17   H     H_    0.381478 0.375203 0.500513 0.054423
O49   O     O_2   0.279935 0.333265 0.403235 -0.494333
C78   C     C_2   0.457641 0.708503 0.630323 0.497974
H18   H     H_    0.418471 0.660717 0.568391 0.050091
O50   O     O_2   0.452804 0.718447 0.687553 -0.418388
N13   N     N_R   0.664369 0.656153 0.553680 0.113356
O51   O     O_R   0.622551 0.620058 0.472719 -0.320809
O52   O     O_R   0.653091 0.715903 0.598309 -0.355637
N14   N     N_R   0.283709 0.518971 0.353593 0.147093
O53   O     O_R   0.313535 0.588583 0.414413 -0.397773
O54   O     O_R   0.290450 0.495870 0.290553 -0.260273
N15   N     N_R   0.628764 0.369523 0.611602 0.168868
O55   O     O_R   0.663423 0.401200 0.692001 -0.216148
O56   O     O_R   0.657190 0.389753 0.581260 -0.305601
N16   N     N_R   0.440800 0.613769 0.346043 0.181168
O57   O     O_R   0.486936 0.582650 0.330436 -0.206792
O58   O     O_R   0.373457 0.592092 0.284501 -0.202985
N17   N     N_R   0.636049 0.370200 0.386630 0.132769
O59   O     O_R   0.579522 0.359349 0.319035 -0.235894
O60   O     O_R   0.647903 0.313625 0.391181 -0.257608
N18   N     N_R   0.380487 0.566177 0.655250 0.160805
O61   O     O_R   0.414105 0.519594 0.665796 -0.282441
O62   O     O_R   0.393600 0.628550 0.720999 -0.195649
N19   N     N_R   0.947396 0.625791 0.676216 0.107304
O63   O     O_R   0.001428 0.681327 0.709691 -0.297275
O64   O     O_R   0.961074 0.573274 0.688378 -0.317294
N20   N     N_R   0.071154 0.352783 0.338658 0.137746
O65   O     O_R   0.093921 0.323871 0.382213 -0.242927
O66   O     O_R   0.002539 0.327858 0.278887 -0.310775
N21   N     N_R   0.923087 0.757429 0.773608 0.196996
O67   O     O_R   0.924630 0.825408 0.797259 -0.235017
O68   O     O_R   0.968670 0.744856 0.828379 -0.194193
N22   N     N_R   0.076681 0.299937 0.192231 0.220789
O69   O     O_R   0.059806 0.243394 0.193538 -0.153128
O70   O     O_R   0.062286 0.288151 0.121816 -0.219727
N23   N     N_R   0.725707 0.395807 0.079662 0.140877
O71   O     O_R   0.743898 0.448341 0.154494 -0.243635
O72   O     O_R   0.736102 0.415392 0.036953 -0.278802
N24   N     N_R   0.314096 0.649018 0.919787 0.142027
O73   O     O_R   0.303945 0.608116 0.846134 -0.249714
O74   O     O_R   0.325552 0.618915 0.961512 -0.278101
N25   N     N_R   0.626981 0.303467 0.912362 0.179731
O75   O     O_R   0.585283 0.342837 0.928381 -0.168203
O76   O     O_R   0.637422 0.297059 0.855952 -0.288975
N26   N     N_R   0.407162 0.748931 0.085770 0.181088
O77   O     O_R   0.457107 0.737962 0.068254 -0.160288
O78   O     O_R   0.413153 0.739072 0.142173 -0.274326
N27   N     N_R   0.891970 0.297098 0.078621 0.163908
O79   O     O_R   0.901435 0.233535 0.040121 -0.221145
O80   O     O_R   0.949326 0.354634 0.140777 -0.303981
N28   N     N_R   0.120874 0.656158 0.923892 0.159652
O81   O     O_R   0.097375 0.696126 0.970599 -0.233306
O82   O     O_R   0.074720 0.595268 0.852132 -0.244807
N29   N     N_R   0.653560 0.099498 0.920754 0.168679
O83   O     O_R   0.664191 0.058214 0.950006 -0.187751
O84   O     O_R   0.594642 0.072345 0.847293 -0.330100
N30   N     N_R   0.280458 0.915025 0.081296 0.180176
O85   O     O_R   0.339906 0.955508 0.155558 -0.318068
O86   O     O_R   0.241576 0.950533 0.052221 -0.186569

loop_
_geom_bond_atom_site_label_1
_geom_bond_atom_site_label_2
_geom_bond_distance
_ccdc_geom_bond_type
C38   C40   1.388980 A    
C21   C33   1.485247 S    
N15   O55   1.301145 A    
C30   N30   1.483219 S    
C27   N3    1.476751 S    
N13   O51   1.300448 A    
N23   O72   1.302936 A    
C55   C67   1.464086 S    
C15   C17   1.552584 S    
N25   O76   1.301640 A    
O23   Cu6   1.972652 S    
C42   C44   1.416471 A    
N9    O41   1.301199 A    
O14   C64   1.297878 A    
O7    Cu2   1.935835 S    
C14   C22   1.610928 S    
C71   C73   1.413089 A    
Cu3   Cu4   2.691571 S    
C72   N20   1.432579 S    
O14   Cu4   1.943815 S    
N1    O25   1.303000 A    
O22   Cu6   1.975950 S    
N29   O83   1.302313 A    
C15   H5    1.107550 S    
O19   Cu6   1.983874 S    
O5    C3    1.297884 A    
N15   O56   1.301409 A    
C14   C24   1.636619 S    
N2    O27   1.301418 A    
C50   C52   1.398267 A    
O1    C1    1.297036 A    
N12   O47   1.301131 A    
N9    O42   1.301292 A    
C52   C54   1.395583 A    
C78   H18   1.080040 S    
C13   N25   1.487563 S    
N19   O64   1.300993 A    
C28   N4    1.476480 S    
O20   C66   1.292331 A    
C54   C56   1.423221 A    
N14   O54   1.301076 A    
C37   H11   1.082101 S    
C16   C22   1.568192 S    
C38   H12   1.082537 S    
O18   C66   1.288128 A    
C19   C63   1.433838 S    
N2    O28   1.303013 A    
C39   H13   1.083151 S    
N25   O75   1.302964 A    
O4    Cu1   1.975455 S    
C45   C47   1.411191 A    
C6    C76   1.396548 A    
N16   O57   1.300555 A    
C41   N11   1.437640 S    
C7    C9    1.410208 A    
C9    C65   1.471019 S    
Cu5   Cu6   2.646566 S    
C24   N24   1.495492 S    
C15   C21   1.567445 S    
N4    O31   1.301873 A    
N17   O60   1.300879 A    
C40   H14   1.079933 S    
C77   O49   1.220112 D    
H2    C76   1.082390 S    
N24   O73   1.302929 A    
N11   O46   1.301646 A    
N29   O84   1.301003 A    
C8    C10   1.421289 A    
O12   Cu3   1.970290 S    
C3    C35   1.433148 S    
C53   N15   1.436641 S    
O11   Cu4   1.970287 S    
C44   C46   1.428103 A    
C30   N2    1.487031 S    
C27   C29   1.598292 S    
O21   Cu5   1.975953 S    
O2    Cu2   1.974043 S    
C8    N18   1.433904 S    
O19   C65   1.282671 A    
Cu1   Cu2   2.695496 S    
C17   C25   1.574160 S    
H1    C75   1.082746 S    
C23   C25   1.609804 S    
C18   C26   1.576607 S    
O20   Cu5   1.983875 S    
N13   O52   1.301552 A    
C60   C62   1.454606 S    
O10   Cu4   1.976761 S    
C16   H4    1.108311 S    
C57   C59   1.395977 A    
C34   C36   1.205369 T    
C2    C50   1.447341 S    
C78   O50   1.219709 D    
C73   C75   1.388907 A    
C59   C61   1.466234 S    
C28   C30   1.600852 S    
C40   C42   1.396131 A    
C15   H3    1.109123 S    
N27   O79   1.301596 A    
N5    O33   1.298232 A    
O9    Cu3   1.976760 S    
N30   O85   1.301111 A    
C48   C50   1.406549 A    
O17   C65   1.287998 A    
O10   C62   1.288734 A    
C13   C23   1.641038 S    
C47   C49   1.412248 A    
O9    C61   1.300180 A    
C25   C31   1.483038 S    
C26   C28   1.574845 S    
O16   Cu3   1.940135 S    
C41   C43   1.418859 A    
C22   C34   1.483716 S    
O13   C63   1.295231 A    
O13   Cu3   1.943817 S    
O2    C2    1.292987 A    
C33   C35   1.206350 T    
N7    O38   1.301470 A    
N22   O70   1.301779 A    
C11   C71   1.427115 A    
C14   N26   1.488516 S    
N19   O63   1.300618 A    
C23   N7    1.483139 S    
C11   C69   1.416742 A    
C19   C31   1.205611 T    
C29   N1    1.487642 S    
C77   H17   1.082694 S    
C52   N10   1.436890 S    
O6    C4    1.299785 A    
O17   Cu5   1.971053 S    
C57   H15   1.084748 S    
C5    C69   1.421911 A    
C53   C55   1.413198 A    
C20   C64   1.433766 S    
C46   C56   1.429123 A    
C37   C47   1.410487 A    
C43   C77   1.491851 S    
O16   C64   1.298591 A    
C51   C53   1.396626 A    
O3    Cu2   1.975455 S    
O8    C4    1.298009 A    
N17   O59   1.300807 A    
N4    O32   1.297386 A    
C20   C32   1.205385 T    
C72   C74   1.419221 A    
N8    O40   1.303101 A    
N14   O53   1.300498 A    
O12   C62   1.304413 A    
O18   Cu6   1.971050 S    
N28   O82   1.301200 A    
O7    C3    1.300738 A    
C24   N8    1.484202 S    
C11   C59   1.423918 A    
N6    O36   1.303274 A    
N10   O44   1.300573 A    
C45   C55   1.425603 A    
O4    C2    1.293818 A    
O1    Cu1   1.974043 S    
C49   C51   1.406006 A    
C28   H10   1.109627 S    
O3    C1    1.294490 A    
N18   O61   1.301310 A    
C74   C76   1.397065 A    
C21   C29   1.618829 S    
N3    O29   1.302033 A    
O22   C68   1.284087 A    
C7    N17   1.432995 S    
N5    O34   1.303374 A    
O21   C67   1.282524 A    
C22   C30   1.620367 S    
C23   N23   1.496096 S    
O6    Cu2   1.948379 S    
N18   O62   1.301124 A    
C12   C72   1.425456 A    
C73   N21   1.438073 S    
N26   O78   1.301749 A    
N8    O39   1.301333 A    
C14   N6    1.489339 S    
O8    Cu1   1.935835 S    
C6    C70   1.418660 A    
C18   N28   1.477829 S    
C46   C48   1.411548 A    
C71   N19   1.428083 S    
C9    C69   1.423033 A    
C37   C39   1.388794 A    
C10   C66   1.484858 S    
C44   C78   1.491615 S    
C74   N22   1.440804 S    
C17   H7    1.105334 S    
C58   C60   1.393662 A    
C17   N27   1.473551 S    
O24   Cu5   1.972648 S    
C18   H8    1.106481 S    
C51   N9    1.436735 S    
N22   O69   1.301250 A    
N12   O48   1.301542 A    
C12   C60   1.414582 A    
C24   C26   1.610225 S    
C58   H16   1.084851 S    
C25   C27   1.572906 S    
N7    O37   1.303107 A    
C13   C21   1.615116 S    
C10   C70   1.428261 A    
C38   C48   1.409115 A    
O23   C67   1.284164 A    
C6    N14   1.437895 S    
C29   N29   1.482038 S    
C16   C18   1.556939 S    
C8    C58   1.392885 A    
N16   O58   1.300708 A    
O24   C68   1.293319 A    
C7    C57   1.388203 A    
C1    C49   1.456044 S    
N21   O67   1.301391 A    
C13   N5    1.489115 S    
C5    C75   1.396064 A    
N20   O65   1.301137 A    
N1    O26   1.301353 A    
N6    O35   1.297856 A    
C16   H6    1.107078 S    
N23   O71   1.302818 A    
C39   C41   1.397148 A    
O5    Cu1   1.948378 S    
N26   O77   1.302838 A    
C27   H9    1.108366 S    
C26   C32   1.482228 S    
O15   C63   1.300799 A    
N28   O81   1.301653 A    
C56   C68   1.481625 S    
C12   C70   1.407014 A    
N27   O80   1.301247 A    
O11   C61   1.297680 A    
C54   N16   1.434676 S    
N10   O43   1.300980 A    
C5    N13   1.435619 S    
N24   O74   1.302784 A    
C42   N12   1.437082 S    
C43   C45   1.429181 A    
N11   O45   1.301425 A    
N20   O66   1.299582 A    
O15   Cu4   1.940135 S    
C4    C36   1.431543 S    
N30   O86   1.302475 A    
N21   O68   1.301635 A    
N3    O30   1.297752 A    
