data_mof_unit_36338.cif
_audit_creation_date              2012-12-10T17:35:00-0500
_audit_creation_method            fapswitch 2.2
_symmetry_space_group_name_H-M    P1
_symmetry_Int_Tables_number       1
_space_group_crystal_system       triclinic
_cell_length_a                    12.337895
_cell_length_b                    13.194818
_cell_length_c                    13.859978
_cell_angle_alpha                 105.362575
_cell_angle_beta                  73.673534
_cell_angle_gamma                 116.667614
_cell_volume                      1909.52872634

loop_
_atom_site_label
_atom_site_type_symbol
_atom_type_description
_atom_site_fract_x
_atom_site_fract_y
_atom_site_fract_z
_atom_type_partial_charge
C1    C     C_R   0.144481 0.713568 0.508464 0.771136
C2    C     C_1   0.974678 0.508532 0.792198 -0.203198
C3    C     C_R   0.737234 0.975615 0.364654 -0.191248
C4    C     C_R   0.775264 0.164692 0.464048 -0.048107
C5    C     C_R   0.177988 0.916411 0.573513 -0.190285
C6    C     C_R   0.254916 0.031813 0.592853 -0.146124
C7    C     C_R   0.381502 0.068700 0.557399 -0.182808
C8    C     C_R   0.433814 0.990463 0.497845 0.078882
C9    C     C_R   0.353182 0.875271 0.468107 0.081392
C10   C     C_R   0.563380 0.023050 0.465828 0.072937
C11   C     C_R   0.609555 0.944277 0.396914 0.166751
C12   C     C_R   0.984165 0.504506 0.686511 0.823944
C13   C     C_R   0.527893 0.836158 0.359049 -0.242446
C14   C     C_R   0.401660 0.802673 0.392854 -0.198047
C15   C     C_R   0.648787 0.131478 0.501048 -0.253567
C16   C     C_R   0.819853 0.085764 0.397523 -0.195381
C17   C     C_R   0.225963 0.836615 0.513595 -0.101500
C18   C     C_R   0.640549 0.676383 0.660189 -0.300758
C19   C     C_R   0.251932 0.351268 0.363937 0.079504
C20   C     C_R   0.351018 0.318943 0.333684 -0.258862
C21   C     C_R   0.450276 0.375205 0.384633 -0.195746
C22   C     C_R   0.451552 0.465032 0.467147 -0.005512
C23   C     C_R   0.856175 0.286270 0.485196 0.795995
C24   C     C_R   0.347629 0.495141 0.495466 0.287064
C25   C     C_R   0.551344 0.525795 0.522670 -0.038011
C26   C     C_R   0.545098 0.615327 0.604442 0.175066
C27   C     C_R   0.443410 0.643271 0.630675 -0.279462
C28   C     C_R   0.346770 0.584207 0.577877 -0.177330
C29   C     C_R   0.657735 0.501972 0.501284 0.021221
C30   C     C_R   0.742133 0.648648 0.635388 0.072538
C31   C     C_R   0.015881 0.495728 0.313567 0.812352
C32   C     C_1   0.025058 0.493207 0.208310 -0.180349
C33   C     C_2   0.034359 0.490564 0.015477 -0.204916
C34   C     C_2   0.954967 0.517196 0.988590 0.112142
C35   C     C_1   0.965388 0.512564 0.881559 -0.026284
C36   C     C_1   0.030972 0.491539 0.120068 -0.012822
Cu1   Cu    Cu3+1 0.899780 0.525060 0.522890 0.932855
Cu2   Cu    Cu3+1 0.100220 0.474940 0.477110 0.923408
H1    H     H_    0.816138 0.695463 0.678141 0.120159
H2    H     H_    0.437960 0.711431 0.693401 0.152284
H3    H     H_    0.636455 0.745024 0.722740 0.136312
H4    H     H_    0.670249 0.435439 0.440598 0.123565
H5    H     H_    0.175346 0.307072 0.323890 0.124166
H6    H     H_    0.524469 0.346662 0.357891 0.135975
H7    H     H_    0.350898 0.250025 0.270471 0.144527
H8    H     H_    0.272739 0.611346 0.605012 0.205780
H9    H     H_    0.103481 0.467137 0.957959 0.146817
H10   H     H_    0.917787 0.110524 0.367868 0.147155
H11   H     H_    0.561691 0.777005 0.302978 0.148203
H12   H     H_    0.772940 0.915936 0.311809 0.131097
H13   H     H_    0.080873 0.889265 0.607636 0.151251
H14   H     H_    0.435198 0.159478 0.575986 0.130125
H15   H     H_    0.216635 0.092764 0.638372 0.142954
N1    N     N_R   0.748810 0.563010 0.557590 -0.178663
N2    N     N_R   0.250540 0.437620 0.443020 -0.205671
O1    O     O_R   0.025040 0.682470 0.528790 -0.580056
O2    O     O_R   0.194310 0.640150 0.490130 -0.604275
O3    O     O_R   0.903380 0.524130 0.659910 -0.575763
O4    O     O_R   0.072660 0.481800 0.621240 -0.588861
O5    O     O_R   0.805690 0.359850 0.509870 -0.586732
O6    O     O_R   0.974960 0.317530 0.471210 -0.586332
O7    O     O_R   0.927340 0.518200 0.378760 -0.575692
O8    O     O_R   0.096620 0.475870 0.340090 -0.585472
C37   C     C_3   0.857106 0.549935 0.067838 -0.362325
C38   C     C_3   0.776215 0.579917 0.023370 -0.349051
C39   C     C_3   0.681496 0.612731 0.107471 -0.862106
H16   H     H_    0.619865 0.540168 0.149931 0.260072
H17   H     H_    0.728775 0.689258 0.161370 0.247979
H18   H     H_    0.624209 0.633664 0.073296 0.243945
H19   H     H_    0.835249 0.653397 0.981354 0.222047
H20   H     H_    0.726398 0.504719 0.969578 0.226487
H21   H     H_    0.796424 0.476957 0.110184 0.199373
H22   H     H_    0.904083 0.625364 0.122910 0.200939
H23   H     H_    0.343037 0.720224 0.356753 0.177148
H24   H     H_    0.619574 0.192909 0.556902 0.148216

loop_
_geom_bond_atom_site_label_1
_geom_bond_atom_site_label_2
_ccdc_geom_bond_type
C2    C35   T    
C39   H17   S    
C29   H4    S    
C15   H24   S    
C19   C20   A    
C18   C26   A    
C2    C12   S    
C16   H10   S    
Cu1   O7    S    
C7    C8    A    
C24   N2    A    
C30   N1    A    
C28   H8    S    
C26   C27   A    
C32   C36   T    
C1    O1    A    
C7    H14   S    
C10   C15   A    
C5    C6    A    
C39   H18   S    
C5    C17   A    
C29   N1    A    
C38   H19   S    
C21   H6    S    
C33   C36   S    
C34   C35   S    
C12   O4    A    
Cu2   N2    S    
C8    C9    A    
C22   C25   A    
C37   H22   S    
C18   C30   A    
Cu1   O3    S    
Cu2   O6    S    
C12   O3    A    
C39   H16   S    
C21   C22   A    
Cu1   O1    S    
C31   O7    A    
C3    H12   S    
C19   H5    S    
C25   C29   A    
C23   O5    A    
C31   O8    A    
C18   H3    S    
C4    C23   S    
C25   C26   A    
C38   H20   S    
C4    C16   A    
C9    C14   A    
Cu1   Cu2   S    
C1    O2    A    
Cu2   O2    S    
C31   C32   S    
C27   H2    S    
C34   C37   S    
C33   C34   D    
C13   H11   S    
Cu1   N1    S    
C9    C17   A    
C33   H9    S    
C22   C24   A    
C6    H15   S    
C14   H23   S    
Cu2   O8    S    
C19   N2    A    
C24   C28   A    
C6    C7    A    
C1    C17   S    
C37   C38   S    
C4    C15   A    
C20   H7    S    
C11   C13   A    
C30   H1    S    
C37   H21   S    
Cu1   O5    S    
C3    C11   A    
C10   C11   A    
Cu2   O4    S    
C23   O6    A    
C20   C21   A    
C8    C10   A    
C38   C39   S    
C27   C28   A    
C5    H13   S    
C13   C14   A    
C3    C16   A    
