data_mof_unit_9660.cif
_audit_creation_date              2012-12-10T16:58:31-0500
_audit_creation_method            fapswitch 2.2
_symmetry_space_group_name_H-M    P1
_symmetry_Int_Tables_number       1
_space_group_crystal_system       triclinic
_cell_length_a                    7.848761
_cell_length_b                    8.545135
_cell_length_c                    23.329058
_cell_angle_alpha                 92.169022
_cell_angle_beta                  84.868083
_cell_angle_gamma                 93.969039
_cell_volume                      1553.85120574

loop_
_atom_site_label
_atom_site_type_symbol
_atom_type_description
_atom_site_fract_x
_atom_site_fract_y
_atom_site_fract_z
_atom_type_partial_charge
C1    C     C_R   0.545635 0.794437 0.498561 0.971390
C2    C     C_R   0.436236 0.360287 0.298252 0.108308
C3    C     C_R   0.565900 0.638508 0.761764 0.200966
C4    C     C_R   0.434100 0.361492 0.238236 0.200966
C5    C     C_R   0.500145 0.503887 0.791027 0.169076
C6    C     C_R   0.499855 0.496112 0.208973 0.169076
C7    C     C_2   0.569368 0.958308 0.497644 -0.307004
C8    C     C_2   0.430632 0.041692 0.502356 -0.307004
C9    C     C_R   0.500462 0.501870 0.610224 0.933437
C10   C     C_R   0.499538 0.498130 0.389776 0.933436
C11   C     C_R   0.641967 0.453310 0.114870 0.542734
C12   C     C_R   0.454365 0.205563 0.501439 0.971390
C13   C     C_R   0.358033 0.546690 0.885130 0.542734
C14   C     C_R   0.360650 0.548400 0.124924 0.561398
C15   C     C_R   0.639349 0.451600 0.875076 0.561399
C16   C     C_R   0.357159 0.549564 0.065234 -0.025785
C17   C     C_R   0.642841 0.450436 0.934766 -0.025785
C18   C     C_R   0.500422 0.500428 0.030087 -0.011647
C19   C     C_R   0.499578 0.499572 0.969913 -0.011647
C20   C     C_R   0.644505 0.452093 0.054968 -0.025347
C21   C     C_R   0.355495 0.547906 0.945032 -0.025347
C22   C     C_R   0.214424 0.597710 0.040036 -0.144661
C23   C     C_R   0.429673 0.373489 0.761671 -0.123206
C24   C     C_R   0.785575 0.402290 0.959964 -0.144661
C25   C     C_R   0.213635 0.596930 0.980395 -0.173170
C26   C     C_R   0.786364 0.403069 0.019605 -0.173170
C27   C     C_2   0.016852 0.332283 0.450946 1.128267
C28   C     C_2   0.983147 0.667717 0.549053 1.128267
C29   C     C_R   0.570327 0.626511 0.238329 -0.123206
C30   C     C_R   0.427229 0.373419 0.702407 0.122072
C31   C     C_R   0.572771 0.626581 0.297593 0.122072
C32   C     C_R   0.499791 0.504297 0.672196 -0.159396
C33   C     C_R   0.500208 0.495703 0.327804 -0.159396
C34   C     C_R   0.563764 0.639713 0.701748 0.108308
H1    H     H_    0.102971 0.635776 0.066251 0.204462
H2    H     H_    0.946610 0.899338 0.554556 0.354835
H3    H     H_    0.897029 0.364223 0.933750 0.204462
H4    H     H_    0.101877 0.634977 0.962142 0.199169
H5    H     H_    0.898123 0.365022 0.037858 0.199169
H6    H     H_    0.375266 0.272591 0.785328 0.185558
H7    H     H_    0.624734 0.727409 0.214671 0.185558
H8    H     H_    0.700287 0.009671 0.493024 0.224276
H9    H     H_    0.299713 0.990329 0.506976 0.224276
H10   H     H_    0.053391 0.100662 0.445444 0.354835
I1    I     I_    0.304178 0.175568 0.661682 -0.206920
I2    I     I_    0.695822 0.824432 0.338317 -0.206920
I3    I     I_    0.638015 0.849914 0.656654 -0.213500
I4    I     I_    0.361985 0.150086 0.343346 -0.213499
I5    I     I_    0.663299 0.837478 0.809898 -0.174227
I6    I     I_    0.336701 0.162522 0.190102 -0.174227
N1    N     N_R   0.500932 0.499589 0.148118 -0.348183
N2    N     N_R   0.499068 0.500410 0.851882 -0.348183
N3    N     N_2   0.950330 0.457950 0.484560 -0.195237
N4    N     N_2   0.049670 0.542050 0.515440 -0.195237
O1    O     O_R   0.389250 0.738570 0.503790 -0.621466
O2    O     O_2   0.221739 0.592110 0.860091 -0.506951
O3    O     O_2   0.225252 0.594651 0.159671 -0.495005
O4    O     O_2   0.774748 0.405349 0.840329 -0.495005
O5    O     O_2   0.053811 0.348564 0.399493 -0.595596
O6    O     O_R   0.014121 0.184351 0.474670 -0.803787
O7    O     O_2   0.946188 0.651435 0.600507 -0.595596
O8    O     O_R   0.985880 0.815650 0.525331 -0.803788
O9    O     O_R   0.610750 0.261430 0.496210 -0.621467
O10   O     O_R   0.678390 0.711620 0.493890 -0.611253
O11   O     O_R   0.321610 0.288380 0.506110 -0.611252
O12   O     O_R   0.355400 0.513520 0.588790 -0.600052
O13   O     O_R   0.644600 0.486480 0.411210 -0.600051
O14   O     O_R   0.644550 0.486570 0.578900 -0.601852
O15   O     O_R   0.355450 0.513430 0.421100 -0.601853
O16   O     O_2   0.778260 0.407890 0.139909 -0.506951
Zn1   Zn    Zn3+2 0.306930 0.518000 0.506610 1.038296
Zn2   Zn    Zn3+2 0.693070 0.482000 0.493390 1.038296

loop_
_geom_bond_atom_site_label_1
_geom_bond_atom_site_label_2
_ccdc_geom_bond_type
C2    C4    A    
C31   C33   A    
C5    N2    S    
C6    N1    S    
C13   N2    A    
C12   O11   A    
C30   I1    S    
C14   N1    A    
C5    C23   A    
C8    H9    S    
C8    C12   S    
O14   Zn2   S    
C13   O2    S    
C16   C22   A    
C28   O7    D    
C11   C20   A    
C27   N3    S    
C24   H3    S    
C3    I5    S    
C11   O16   S    
C13   C21   A    
C7    C8    D    
C29   C31   A    
C27   O5    D    
N3    N4    D    
C9    O12   A    
C30   C32   A    
C22   H1    S    
C2    I4    S    
C3    C34   A    
C20   C26   A    
H10   O6    S    
H2    O8    S    
C2    C33   A    
C4    C6    A    
C19   C21   A    
C24   C26   A    
C18   C19   A    
C10   C33   S    
C18   C20   A    
C27   O6    S    
O10   Zn2   S    
C1    O1    A    
C25   H4    S    
C15   O4    S    
C14   C16   A    
C26   H5    S    
C9    O14   A    
C17   C24   A    
C11   N1    A    
C28   O8    S    
C14   O3    S    
C23   H6    S    
C23   C30   A    
O15   Zn1   S    
C6    C29   A    
O9    Zn2   S    
C16   C18   A    
O13   Zn2   S    
C7    H8    S    
C4    I6    S    
C15   C17   A    
C12   O9    A    
C21   C25   A    
C10   O15   A    
C17   C19   A    
C1    C7    S    
C28   N4    S    
C34   I3    S    
C10   O13   A    
C9    C32   S    
C29   H7    S    
C15   N2    A    
N3    Zn2   S    
C1    O10   A    
C22   C25   A    
O1    Zn1   S    
N4    Zn1   S    
O12   Zn1   S    
O11   Zn1   S    
C3    C5    A    
C31   I2    S    
C32   C34   A    
