data_mof_unit_46939.cif
_audit_creation_date              2012-12-10T17:17:30-0500
_audit_creation_method            fapswitch 2.2
_symmetry_space_group_name_H-M    P1
_symmetry_Int_Tables_number       1
_space_group_crystal_system       triclinic
_cell_length_a                    10.211507
_cell_length_b                    10.749171
_cell_length_c                    12.299532
_cell_angle_alpha                 90.703577
_cell_angle_beta                  109.36622
_cell_angle_gamma                 95.926034
_cell_volume                      1265.30836166

loop_
_atom_site_label
_atom_site_type_symbol
_atom_type_description
_atom_site_fract_x
_atom_site_fract_y
_atom_site_fract_z
_atom_type_partial_charge
C1    C     C_R   0.054443 0.732984 0.497076 0.945969
C2    C     C_R   0.200536 0.498683 0.838079 -0.118457
C3    C     C_2   0.093194 0.866662 0.508174 -0.385951
C4    C     C_R   0.132184 0.504474 0.714003 0.851634
C5    C     C_2   0.026295 0.935993 0.558403 -0.154382
C6    C     C_2   0.929229 0.135456 0.532263 0.050444
C7    C     C_2   0.038579 0.069325 0.549020 -0.248373
C8    C     C_2   0.434668 0.506202 0.514015 0.050748
C9    C     C_2   0.568005 0.488500 0.490024 -0.113895
C10   C     C_R   0.950595 0.267374 0.511788 0.878940
C11   C     C_R   0.865397 0.486989 0.285974 0.867173
C12   C     C_R   0.413837 0.475489 0.994342 0.074364
C13   C     C_R   0.730494 0.332515 0.989258 -0.200844
C14   C     C_R   0.785878 0.460711 0.164715 -0.061708
C15   C     C_R   0.151146 0.563499 0.913600 -0.203320
C16   C     C_R   0.229138 0.578879 0.030124 -0.132137
C17   C     C_R   0.361171 0.538508 0.070237 -0.169326
C18   C     C_3   0.768723 0.094891 0.637819 -0.794544
C19   C     C_3   0.226454 0.275728 0.338573 -0.129868
C20   C     C_R   0.324280 0.441033 0.881509 0.086754
C21   C     C_R   0.552710 0.446140 0.026376 0.080961
C22   C     C_R   0.592999 0.363965 0.955060 0.176320
C23   C     C_R   0.494992 0.313758 0.851608 -0.260815
C24   C     C_R   0.362035 0.351965 0.814910 -0.203789
C25   C     C_R   0.653796 0.500161 0.126044 -0.255613
C26   C     C_R   0.826444 0.379144 0.095257 -0.201897
H1    H     H_    0.929207 0.347578 0.124756 0.152063
H2    H     H_    0.054116 0.605144 0.882124 0.159488
H3    H     H_    0.418353 0.554814 0.161251 0.154373
H4    H     H_    0.189995 0.627238 0.088631 0.151991
H5    H     H_    0.288741 0.309757 0.734615 0.167899
H6    H     H_    0.139122 0.113088 0.548240 0.163379
H7    H     H_    0.764295 0.991595 0.492225 0.235579
H8    H     H_    0.841240 0.043524 0.705643 0.231368
H9    H     H_    0.659647 0.056106 0.626378 0.231888
H10   H     H_    0.782343 0.195366 0.666057 0.258538
H11   H     H_    0.114338 0.289066 0.306265 0.183555
H12   H     H_    0.951917 0.893595 0.596942 0.190006
H13   H     H_    0.253115 0.222005 0.418322 0.133774
H14   H     H_    0.246394 0.218476 0.271286 0.130082
H15   H     H_    0.169675 0.908493 0.471458 0.148044
H16   H     H_    0.566314 0.417604 0.425877 0.214032
H17   H     H_    0.441081 0.568083 0.586406 0.090845
H18   H     H_    0.685336 0.619320 0.606368 0.154409
H19   H     H_    0.522031 0.247389 0.797713 0.147334
H20   H     H_    0.762108 0.268948 0.936022 0.137308
H21   H     H_    0.630709 0.571302 0.177524 0.150924
N1    N     N_2   0.313640 0.446500 0.454900 0.090224
N2    N     N_2   0.686360 0.553430 0.545150 -0.218771
N3    N     N_2   0.794679 0.080816 0.529900 -0.297548
O1    O     O_R   0.936910 0.692950 0.509080 -0.607427
O2    O     O_R   0.138320 0.658600 0.480130 -0.608322
O3    O     O_R   0.002900 0.525670 0.675280 -0.611690
O4    O     O_R   0.204310 0.491320 0.646330 -0.627308
O5    O     O_R   0.861680 0.341400 0.519870 -0.585689
O6    O     O_R   0.063090 0.307050 0.490920 -0.663264
O7    O     O_R   0.795690 0.508680 0.353670 -0.605772
O8    O     O_R   0.997100 0.474330 0.324720 -0.604255
O9    O     O_3   0.310436 0.390833 0.354870 -0.560519
Zn1   Zn    Zn3+2 0.865520 0.522940 0.519330 0.932270
Zn2   Zn    Zn3+2 0.134480 0.477060 0.480670 0.952803

loop_
_geom_bond_atom_site_label_1
_geom_bond_atom_site_label_2
_ccdc_geom_bond_type
H18   N2    S    
C6    C10   S    
C2    C4    S    
C23   C24   A    
C8    N1    D    
C6    C7    D    
C2    C15   A    
O4    Zn2   S    
C4    O3    A    
C11   O8    A    
C10   O6    A    
C18   H9    S    
C25   H21   S    
C8    H17   S    
C4    O4    A    
C12   C20   A    
O8    Zn2   S    
N1    Zn2   S    
C24   H5    S    
C11   O7    A    
O5    Zn1   S    
C14   C26   A    
C12   C17   A    
C10   O5    A    
C1    O1    A    
C9    H16   S    
C16   C17   A    
N2    Zn1   S    
C19   H13   S    
C23   H19   S    
C21   C22   A    
C11   C14   S    
O3    Zn1   S    
C13   C22   A    
O2    Zn2   S    
C18   H8    S    
C14   C25   A    
C26   H1    S    
C13   H20   S    
C1    O2    A    
C13   C26   A    
O1    Zn1   S    
C19   H14   S    
C16   H4    S    
C15   H2    S    
C15   C16   A    
C3    C5    D    
C17   H3    S    
C9    N2    D    
C18   N3    S    
N1    O9    S    
C5    C7    S    
C2    C20   A    
C21   C25   A    
O6    Zn2   S    
C3    H15   S    
O7    Zn1   S    
C7    H6    S    
C19   H11   S    
C19   O9    S    
H7    N3    S    
C5    H12   S    
C18   H10   S    
C12   C21   A    
C22   C23   A    
C6    N3    S    
C20   C24   A    
C8    C9    S    
C1    C3    S    
