data_mof_unit_25883.cif
_audit_creation_date              2013-03-05T15:51:23-0500
_audit_creation_method            fapswitch 2.2
_symmetry_space_group_name_H-M    P1
_symmetry_Int_Tables_number       1
_space_group_crystal_system       triclinic
_cell_length_a                    10.747958
_cell_length_b                    10.856013
_cell_length_c                    9.577958
_cell_angle_alpha                 90.364115
_cell_angle_beta                  89.76625
_cell_angle_gamma                 92.572226
_cell_volume                      1116.39926901

loop_
_atom_site_label
_atom_site_type_symbol
_atom_site_description
_atom_site_fract_x
_atom_site_fract_y
_atom_site_fract_z
_atom_type_partial_charge
O1    O     O_R   0.499990 0.319640 0.618810 -0.593174
O2    O     O_R   0.500000 0.319660 0.381240 -0.572655
C1    C     C_R   0.509915 0.263093 0.500298 0.837831
O3    O     O_R   0.317680 0.499970 0.618790 -0.549262
O4    O     O_R   0.317700 0.499990 0.381210 -0.583409
C2    C     C_R   0.260108 0.501746 0.500734 0.857211
Cu1   Cu    Cu3+1 0.499990 0.499990 0.640660 0.962969
Cu2   Cu    Cu3+1 0.500010 0.500010 0.359340 0.960993
O5    O     O_R   0.500000 0.680340 0.618760 -0.612676
O6    O     O_R   0.500010 0.680360 0.381190 -0.601317
O7    O     O_R   0.682300 0.500010 0.618790 -0.613815
O8    O     O_R   0.682320 0.500030 0.381210 -0.611113
C3    C     C_R   0.492957 0.737561 0.501555 0.822516
C4    C     C_R   0.739998 0.500597 0.500105 0.806258
C5    C     C_3   0.069682 0.497476 0.656126 0.141132
H1    H     H_    0.101659 0.414011 0.709170 0.176901
C6    C     C_3   0.926911 0.491272 0.653408 -0.345155
H2    H     H_    0.892429 0.401861 0.698944 0.164092
H3    H     H_    0.889408 0.563885 0.721595 0.236796
H4    H     H_    0.117716 0.705365 0.490568 0.249607
C7    C     C_3   0.078643 0.622726 0.434110 -0.455838
C8    C     C_3   0.066823 0.390825 0.415312 0.149510
C9    C     C_3   0.122115 0.502739 0.503005 -0.097214
H5    H     H_    0.095739 0.405650 0.304443 0.130682
C10   C     C_3   0.877973 0.501848 0.501181 -0.056783
C11   C     C_3   0.934243 0.621282 0.429762 0.204816
C12   C     C_3   0.922582 0.388325 0.418917 -0.503182
H6    H     H_    0.883257 0.301978 0.467168 0.221943
H7    H     H_    0.886950 0.389135 0.309917 0.171482
H8    H     H_    0.115587 0.630032 0.325535 0.158556
H9    H     H_    0.906505 0.617387 0.317698 0.105550
H10   H     H_    0.494583 0.109491 0.279307 0.160450
C13   C     C_R   0.580758 0.122299 0.754453 -0.134468
H11   H     H_    0.631544 0.210481 0.753286 0.156721
C14   C     C_R   0.565899 0.064368 0.883164 -0.144615
H12   H     H_    0.599205 0.110146 0.977487 0.139404
C15   C     C_R   0.503926 0.949666 0.890632 -0.126688
H13   H     H_    0.485611 0.907363 0.991153 0.145426
C16   C     C_R   0.468532 0.887598 0.768265 -0.126338
H14   H     H_    0.415938 0.801444 0.781027 0.195309
C17   C     C_R   0.495962 0.939510 0.635317 0.107830
C18   C     C_R   0.533684 0.065306 0.630661 0.110027
C19   C     C_R   0.520971 0.129253 0.502946 -0.112017
C20   C     C_R   0.501555 0.063025 0.378566 -0.143198
H15   H     H_    0.482726 0.887215 0.281129 0.158480
C21   C     C_R   0.490804 0.935776 0.380083 -0.158419
C22   C     C_R   0.487841 0.872242 0.506968 -0.087584
H16   H     H_    0.359445 0.360040 0.129007 0.161552
C23   C     C_R   0.665381 0.664032 0.144320 -0.158027
H17   H     H_    0.673325 0.671032 0.254157 0.233079
C24   C     C_R   0.745837 0.744698 0.072272 -0.206779
H18   H     H_    0.808859 0.807576 0.128526 0.206239
C25   C     C_R   0.745696 0.744907 0.928535 -0.160320
H19   H     H_    0.808203 0.808279 0.872615 0.219693
C26   C     C_R   0.665177 0.664408 0.856010 -0.157253
H20   H     H_    0.672723 0.672529 0.746030 0.226040
C27   C     C_R   0.581225 0.580813 0.925238 0.186418
C28   C     C_R   0.581247 0.580706 0.074884 0.196471
N1    N     N_R   0.501200 0.501210 0.147910 -0.205528
C29   C     C_R   0.422727 0.423060 0.073773 -0.056205
H21   H     H_    0.359516 0.360100 0.870073 0.158160
C30   C     C_R   0.422768 0.423093 0.925707 -0.029039
N2    N     N_R   0.501250 0.501290 0.852040 -0.205068
Br1   Br    Br    0.129175 0.635256 0.776324 -0.504999
N3    N     N_R   0.886668 0.734725 0.490729 0.126468
O9    O     O_R   0.916659 0.770308 0.616506 -0.338210
O10   O     O_R   0.820283 0.805861 0.415071 -0.405428
N4    N     N_R   0.114340 0.272406 0.459697 0.130095
O11   O     O_R   0.188022 0.213503 0.377255 -0.359832
O12   O     O_R   0.078915 0.221691 0.576925 -0.361101

loop_
_geom_bond_atom_site_label_1
_geom_bond_atom_site_label_2
_geom_bond_distance
_ccdc_geom_bond_type
O1    C1    1.293334 A    
O4    Cu2   1.969765 S    
C5    Br1   1.967171 S    
C23   H17   1.057796 S    
H16   C29   1.081867 S    
C15   H13   1.082849 S    
Cu2   N1    2.025177 S    
C10   C12   1.551498 S    
C17   C18   1.407929 A    
C25   C26   1.387253 A    
C14   H12   1.082714 S    
N3    O10   1.300521 A    
Cu2   O8    1.971465 S    
C12   H6    1.113212 S    
C8    N4    1.470330 S    
H21   C30   1.081834 S    
C26   H20   1.060101 S    
C5    C9    1.569448 S    
C6    H2    1.114224 S    
H10   C20   1.083500 S    
C6    C10   1.558679 S    
N1    C29   1.366881 A    
C16   C17   1.420263 A    
C21   C22   1.400734 A    
H15   C21   1.083486 S    
Cu1   O7    1.969765 S    
Cu1   N2    2.024646 S    
C27   C28   1.433311 A    
C30   N2    1.366928 A    
C5    C6    1.533274 S    
O3    Cu1   1.971465 S    
C2    C9    1.483740 S    
C1    C19   1.463510 S    
C29   C30   1.418166 A    
C13   C14   1.392840 A    
C7    C11   1.552115 S    
O8    C4    1.298641 A    
C27   N2    1.380691 A    
O2    C1    1.305596 A    
C8    C12   1.549562 S    
C26   C27   1.416563 A    
C19   C20   1.399054 A    
C17   C22   1.426839 A    
O4    C2    1.299639 A    
C15   C16   1.393909 A    
O7    C4    1.292604 A    
C8    H5    1.115837 S    
C28   N1    1.382136 A    
O3    C2    1.291853 A    
C12   H7    1.113713 S    
C18   C19   1.420435 A    
C13   C18   1.418481 A    
C25   H19   1.082481 S    
C24   H18   1.082529 S    
C11   H9    1.115190 S    
C13   H11   1.080604 S    
H4    C7    1.111529 S    
C4    C10   1.482474 S    
Cu2   O6    1.967712 S    
N3    O9    1.300184 A    
C7    H8    1.113666 S    
Cu1   Cu2   2.694472 S    
C16   H14   1.078269 S    
Cu1   O5    1.970407 S    
N4    O12   1.301665 A    
O5    C3    1.290573 A    
C8    C9    1.568765 S    
C6    H3    1.109156 S    
C23   C24   1.387699 A    
C10   C11   1.565980 S    
O1    Cu1   1.967712 S    
C11   N3    1.471081 S    
C3    C22   1.466181 S    
C7    C9    1.555156 S    
O2    Cu2   1.970407 S    
C23   C28   1.414962 A    
C5    H1    1.110164 S    
C14   C15   1.387664 A    
C20   C21   1.381228 A    
N4    O11   1.301334 A    
C24   C25   1.376727 A    
O6    C3    1.309517 A    
