data_mof_unit_26678.cif
_audit_creation_date              2012-12-10T19:11:23-0500
_audit_creation_method            fapswitch 2.2
_symmetry_space_group_name_H-M    P1
_symmetry_Int_Tables_number       1
_space_group_crystal_system       triclinic
_cell_length_a                    10.64615
_cell_length_b                    9.704525
_cell_length_c                    10.498685
_cell_angle_alpha                 89.827102
_cell_angle_beta                  90.747052
_cell_angle_gamma                 90.351136
_cell_volume                      1084.56309568

loop_
_atom_site_label
_atom_site_type_symbol
_atom_type_description
_atom_site_fract_x
_atom_site_fract_y
_atom_site_fract_z
_atom_type_partial_charge
C1    C     C_R   0.257487 0.499751 0.499912 0.917192
C2    C     C_3   0.497693 0.500904 0.122280 -0.002369
C3    C     C_3   0.074630 0.641428 0.551531 -0.437706
C4    C     C_3   0.074146 0.388463 0.596321 -0.444761
C5    C     C_3   0.931689 0.645258 0.551531 0.038231
C6    C     C_3   0.930714 0.380305 0.591185 0.040103
C7    C     C_3   0.065116 0.473041 0.363709 0.295650
C8    C     C_3   0.120818 0.499866 0.500995 0.002471
C9    C     C_3   0.878046 0.501892 0.508658 -0.003723
C10   C     C_3   0.920285 0.478971 0.369427 -0.530882
C11   C     C_3   0.388609 0.080636 0.428442 -0.219148
C12   C     C_3   0.388690 0.918197 0.428114 -0.223450
C13   C     C_3   0.612900 0.082172 0.434620 -0.228893
C14   C     C_3   0.612927 0.919679 0.434703 -0.232517
C15   C     C_3   0.497977 0.080757 0.628496 -0.239055
C16   C     C_3   0.497662 0.918479 0.628482 -0.228435
C17   C     C_R   0.498604 0.500275 0.257130 0.914722
C18   C     C_R   0.742146 0.500587 0.507080 0.925385
C19   C     C_R   0.500407 0.499674 0.742836 0.911186
C20   C     C_3   0.490048 0.630879 0.040028 -0.147366
C21   C     C_3   0.399243 0.426375 0.040417 -0.142530
C22   C     C_3   0.391720 0.556233 0.955336 -0.158802
C23   C     C_3   0.499705 0.498794 0.877806 -0.000153
C24   C     C_3   0.597963 0.573225 0.959883 -0.138722
C25   C     C_3   0.507182 0.368734 0.960110 -0.144142
C26   C     C_3   0.605515 0.443387 0.044750 -0.154280
H1    H     H_    0.304829 0.601893 0.914064 0.161024
H2    H     H_    0.883602 0.563260 0.307513 0.195839
H3    H     H_    0.877450 0.382520 0.331115 0.200148
H4    H     H_    0.386460 0.119727 0.328752 0.177066
H5    H     H_    0.386785 0.879954 0.328312 0.169227
H6    H     H_    0.301191 0.117002 0.473901 0.176116
H7    H     H_    0.301003 0.879950 0.472714 0.163815
H8    H     H_    0.617905 0.121200 0.335064 0.154164
H9    H     H_    0.618046 0.881239 0.335197 0.151136
H10   H     H_    0.581096 0.119150 0.683421 0.175162
H11   H     H_    0.580376 0.880551 0.683771 0.181683
H12   H     H_    0.699209 0.120017 0.484357 0.167501
H13   H     H_    0.699117 0.882670 0.484557 0.173761
H14   H     H_    0.678827 0.633382 0.923992 0.192855
H15   H     H_    0.514358 0.261885 0.923467 0.151862
H16   H     H_    0.692460 0.397787 0.085982 0.163826
H17   H     H_    0.109358 0.728380 0.492123 0.195130
H18   H     H_    0.112806 0.285057 0.574608 0.196198
N1    N     N_3   0.499750 0.138610 0.497240 -0.047764
N2    N     N_3   0.499750 0.861390 0.497240 -0.047189
O1    O     O_R   0.314910 0.616040 0.499970 -0.628563
O2    O     O_R   0.314910 0.383960 0.499970 -0.617964
O3    O     O_R   0.500080 0.616020 0.313900 -0.625948
O4    O     O_R   0.500080 0.383980 0.313900 -0.625130
O5    O     O_R   0.685320 0.616040 0.499930 -0.623074
O6    O     O_R   0.685320 0.383960 0.499930 -0.632282
O7    O     O_R   0.500150 0.616060 0.686000 -0.628546
O8    O     O_R   0.500150 0.383940 0.686000 -0.628882
Zn1   Zn    Zn3+2 0.500150 0.654960 0.499940 0.927945
Zn2   Zn    Zn3+2 0.500150 0.345040 0.499940 0.928220
H19   H     H_    0.413738 0.118512 0.679067 0.151610
H20   H     H_    0.413052 0.879682 0.678697 0.152846
H21   H     H_    0.482916 0.737739 0.076654 0.152467
H22   H     H_    0.318486 0.366544 0.077588 0.189734
H23   H     H_    0.112847 0.658669 0.649406 0.206657
H24   H     H_    0.107221 0.414800 0.694297 0.206450
I1    I     I_    0.865720 0.729985 0.728289 -0.408898
I2    I     I_    0.854074 0.353292 0.779169 -0.376219
H25   H     H_    0.901792 0.724007 0.480028 0.150108
H26   H     H_    0.904769 0.281763 0.543110 0.157111
I3    I     I_    0.131479 0.622656 0.225990 -0.404740
I4    I     I_    0.117202 0.275447 0.285741 -0.442467

loop_
_geom_bond_atom_site_label_1
_geom_bond_atom_site_label_2
_ccdc_geom_bond_type
N2    Zn1   S    
C17   O4    A    
C7    C10   S    
C19   C23   S    
C23   C24   S    
C1    O2    A    
C5    C9    S    
C25   H15   S    
C18   O5    A    
C1    C8    S    
O4    Zn2   S    
C9    C10   S    
C9    C18   S    
C2    C17   S    
N1    Zn2   S    
C20   C22   S    
C16   H11   S    
C4    C8    S    
O3    Zn1   S    
C19   O7    A    
C2    C21   S    
C3    H23   S    
C25   C26   S    
O1    Zn1   S    
C18   O6    A    
C7    C8    S    
C14   N2    S    
C16   H20   S    
C21   C22   S    
C11   H4    S    
C20   H21   S    
C13   N1    S    
C12   H7    S    
C15   H19   S    
C10   H3    S    
C3    H17   S    
C13   H12   S    
C6    C9    S    
C19   O8    A    
C5    H25   S    
C7    I4    S    
C24   H14   S    
C24   C26   S    
C11   H6    S    
O5    Zn1   S    
C22   H1    S    
O7    Zn1   S    
C12   H5    S    
C5    I1    S    
O8    Zn2   S    
C11   N1    S    
C4    C6    S    
C15   N1    S    
C16   N2    S    
C15   C16   S    
C4    H24   S    
C15   H10   S    
C6    H26   S    
C23   C25   S    
C26   H16   S    
C21   H22   S    
C2    C26   S    
C3    C8    S    
C10   H2    S    
C14   H9    S    
O2    Zn2   S    
C21   C25   S    
C22   C23   S    
C1    O1    A    
C13   H8    S    
C4    H18   S    
C14   H13   S    
C13   C14   S    
C2    C20   S    
C20   C24   S    
C17   O3    A    
O6    Zn2   S    
C11   C12   S    
C6    I2    S    
C3    C5    S    
C12   N2    S    
C7    I3    S    
