data_mof_unit_34122.cif
_audit_creation_date              2012-12-10T17:43:33-0500
_audit_creation_method            fapswitch 2.2
_symmetry_space_group_name_H-M    P1
_symmetry_Int_Tables_number       1
_space_group_crystal_system       triclinic
_cell_length_a                    15.000231
_cell_length_b                    10.691629
_cell_length_c                    9.872497
_cell_angle_alpha                 89.162398
_cell_angle_beta                  90.17526
_cell_angle_gamma                 91.772864
_cell_volume                      1582.38812912

loop_
_atom_site_label
_atom_site_type_symbol
_atom_type_description
_atom_site_fract_x
_atom_site_fract_y
_atom_site_fract_z
_atom_type_partial_charge
C1    C     C_R   0.504532 0.259370 0.502041 0.846244
C2    C     C_R   0.185374 0.456931 0.616966 -0.268559
C3    C     C_R   0.230984 0.493997 0.499206 -0.085195
C4    C     C_R   0.326724 0.498763 0.499808 0.892819
C5    C     C_R   0.185255 0.525337 0.380593 -0.273658
C6    C     C_R   0.511009 0.103290 0.761580 -0.188694
C7    C     C_R   0.482304 0.038369 0.877729 -0.253425
C8    C     C_R   0.432438 0.927425 0.865960 -0.236839
C9    C     C_R   0.418047 0.875115 0.738649 0.558569
C10   C     C_R   0.459152 0.932484 0.622163 -0.030567
C11   C     C_R   0.492035 0.055907 0.630757 0.039002
C12   C     C_R   0.907525 0.518942 0.380821 0.120113
C13   C     C_R   0.504783 0.124629 0.507246 -0.093257
C14   C     C_R   0.503126 0.063806 0.382791 -0.217203
C15   C     C_R   0.490789 0.936748 0.379242 -0.228965
C16   C     C_R   0.488809 0.738277 0.499385 0.923846
C17   C     C_R   0.473164 0.870088 0.499086 -0.119296
C18   C     C_R   0.381479 0.337547 0.142084 -0.200690
C19   C     C_R   0.322280 0.258778 0.072650 -0.241868
C20   C     C_R   0.321819 0.258658 0.931628 0.127956
C21   C     C_R   0.381652 0.337822 0.861192 -0.174692
C22   C     C_R   0.441677 0.419827 0.928523 0.126740
C23   C     C_R   0.954461 0.411525 0.735058 -0.191801
C24   C     C_R   0.441634 0.419839 0.073252 0.164664
C25   C     C_R   0.555654 0.576897 0.070666 -0.130237
C26   C     C_R   0.555624 0.576868 0.927266 -0.056670
C27   C     C_R   0.673310 0.496910 0.500383 0.919769
C28   C     C_R   0.815591 0.522073 0.383231 -0.333791
C29   C     C_R   0.769077 0.487455 0.501000 -0.195932
C30   C     C_R   0.814074 0.443240 0.617065 0.469473
C31   C     C_R   0.907127 0.445343 0.617786 0.003018
C32   C     C_R   0.953658 0.482671 0.498961 -0.013816
C33   C     C_3   0.281879 0.801566 0.669682 -0.339742
C34   C     C_R   0.047033 0.415020 0.734799 -0.237699
C35   C     C_3   0.747462 0.274197 0.720364 -0.310942
C36   C     C_R   0.093161 0.451856 0.617373 0.122120
C37   C     C_R   0.046571 0.485002 0.498517 0.091374
C38   C     C_R   0.092988 0.521661 0.379523 0.117471
C39   C     C_R   0.046570 0.555055 0.262002 -0.225630
C40   C     C_R   0.953990 0.554144 0.262800 -0.194087
H1    H     H_    0.780279 0.553861 0.293662 0.183908
H2    H     H_    0.600943 0.639624 0.872300 0.146798
H3    H     H_    0.920287 0.383380 0.827581 0.189821
H4    H     H_    0.082533 0.389357 0.826395 0.159873
H5    H     H_    0.221505 0.431733 0.708147 0.179529
H6    H     H_    0.221364 0.554166 0.289756 0.169461
H7    H     H_    0.081825 0.582987 0.170233 0.148808
H8    H     H_    0.918760 0.581666 0.171630 0.147903
H9    H     H_    0.513613 0.113811 0.287593 0.170921
H10   H     H_    0.290900 0.823070 0.559982 0.156729
H11   H     H_    0.251214 0.881513 0.721428 0.150860
H12   H     H_    0.550835 0.187457 0.777405 0.180918
H13   H     H_    0.234314 0.720461 0.678639 0.207258
H14   H     H_    0.220589 0.125673 0.924380 0.181178
H15   H     H_    0.297533 0.117184 0.802290 0.190944
H16   H     H_    0.702019 0.254924 0.633316 0.154012
H17   H     H_    0.809006 0.219406 0.711054 0.153411
H18   H     H_    0.712754 0.241399 0.813945 0.186918
H19   H     H_    0.496130 0.076578 0.976847 0.169215
H20   H     H_    0.405066 0.881559 0.955784 0.161471
H21   H     H_    0.498003 0.890661 0.283009 0.170422
H22   H     H_    0.601028 0.639631 0.124000 0.142213
H23   H     H_    0.377726 0.331206 0.249491 0.218363
H24   H     H_    0.276694 0.197684 0.129497 0.150416
H25   H     H_    0.379550 0.331378 0.753901 0.208456
N1    N     N_R   0.499150 0.498800 0.142780 -0.118169
N2    N     N_R   0.499120 0.498720 0.857170 -0.110098
N3    N     N_3   0.260346 0.179703 0.857645 -0.475412
O1    O     O_R   0.500000 0.316780 0.614690 -0.658620
O2    O     O_3   0.767591 0.403418 0.731637 -0.599373
O3    O     O_R   0.499990 0.316750 0.385360 -0.640873
O4    O     O_R   0.367850 0.499980 0.614680 -0.611120
O5    O     O_R   0.367840 0.499960 0.385350 -0.650450
O6    O     O_R   0.500010 0.683250 0.614640 -0.581163
O7    O     O_R   0.500000 0.683220 0.385310 -0.636119
O8    O     O_R   0.632160 0.500040 0.614650 -0.570888
O9    O     O_R   0.632150 0.500020 0.385320 -0.628507
O10   O     O_3   0.363167 0.769006 0.730908 -0.587577
Zn1   Zn    Zn3+2 0.500010 0.500020 0.653130 0.979191
Zn2   Zn    Zn3+2 0.499990 0.499980 0.346870 0.929447

loop_
_geom_bond_atom_site_label_1
_geom_bond_atom_site_label_2
_ccdc_geom_bond_type
C27   C29   S    
C16   O7    A    
C19   C20   A    
O8    Zn1   S    
H15   N3    S    
C7    C8    A    
C1    O3    A    
C12   C28   A    
C35   H18   S    
C16   O6    A    
C26   N2    A    
C21   C22   A    
C36   C37   A    
O4    Zn1   S    
C38   C39   A    
C33   O10   S    
C14   H9    S    
H14   N3    S    
C10   C17   A    
C28   H1    S    
C23   H3    S    
C40   H8    S    
C18   C19   A    
C35   O2    S    
C8    C9    A    
C18   C24   A    
C29   C30   A    
C9    C10   A    
C24   N1    A    
C9    O10   S    
C13   C14   A    
C12   C32   A    
C7    H19   S    
O3    Zn2   S    
C30   O2    S    
C2    H5    S    
C33   H13   S    
N2    Zn1   S    
C6    C11   A    
C16   C17   S    
C27   O9    A    
C33   H10   S    
C1    O1    A    
C23   C31   A    
C12   C40   A    
C37   C38   A    
C31   C32   A    
C19   H24   S    
C23   C34   A    
C15   H21   S    
C34   H4    S    
C32   C37   A    
C4    O5    A    
O6    Zn1   S    
C22   C24   A    
O1    Zn1   S    
C1    C13   S    
C3    C4    S    
C4    O4    A    
C26   H2    S    
C39   H7    S    
O7    Zn2   S    
O9    Zn2   S    
C2    C36   A    
C15   C17   A    
C28   C29   A    
C21   H25   S    
C35   H16   S    
C20   N3    S    
C25   N1    A    
C3    C5    A    
C6    C7    A    
C33   H11   S    
N1    Zn2   S    
C5    H6    S    
C35   H17   S    
C2    C3    A    
C25   C26   A    
C8    H20   S    
C11   C13   A    
C30   C31   A    
O5    Zn2   S    
C34   C36   A    
C25   H22   S    
C18   H23   S    
C22   N2    A    
C10   C11   A    
C39   C40   A    
C20   C21   A    
C14   C15   A    
C6    H12   S    
C5    C38   A    
C27   O8    A    
