data_mof_unit_41169.cif
_audit_creation_date              2012-12-10T17:23:08-0500
_audit_creation_method            fapswitch 2.2
_symmetry_space_group_name_H-M    P1
_symmetry_Int_Tables_number       1
_space_group_crystal_system       triclinic
_cell_length_a                    15.852857
_cell_length_b                    10.78218
_cell_length_c                    9.615432
_cell_angle_alpha                 90.042624
_cell_angle_beta                  90.052522
_cell_angle_gamma                 92.526352
_cell_volume                      1641.95136261

loop_
_atom_site_label
_atom_site_type_symbol
_atom_type_description
_atom_site_fract_x
_atom_site_fract_y
_atom_site_fract_z
_atom_type_partial_charge
C1    C     C_R   0.497055 0.262613 0.499989 0.786513
C2    C     C_3   0.082708 0.501254 0.500317 0.193884
C3    C     C_3   0.974671 0.585769 0.592517 -0.160888
C4    C     C_3   0.917393 0.501639 0.500433 0.194213
C5    C     C_3   0.031608 0.614668 0.464745 -0.160734
C6    C     C_3   0.972785 0.530546 0.372670 -0.158725
C7    C     C_1   0.174487 0.500756 0.500131 -0.079185
C8    C     C_1   0.825588 0.501484 0.500366 -0.078574
C9    C     C_R   0.363274 0.120581 0.647459 -0.187158
C10   C     C_R   0.301055 0.051678 0.719549 -0.144904
C11   C     C_R   0.301222 0.922719 0.719869 -0.136958
C12   C     C_R   0.339938 0.499673 0.499945 0.804066
C13   C     C_R   0.363614 0.861838 0.648113 -0.171072
C14   C     C_R   0.428306 0.929760 0.576198 0.099138
C15   C     C_R   0.428142 0.060982 0.575948 0.097713
C16   C     C_R   0.491257 0.128413 0.499812 -0.099959
C17   C     C_R   0.550365 0.067278 0.420663 -0.195371
C18   C     C_R   0.550509 0.939324 0.420818 -0.209005
C19   C     C_R   0.491543 0.870512 0.500126 -0.087030
C20   C     C_R   0.611778 0.665603 0.144037 -0.135377
C21   C     C_R   0.666101 0.746981 0.072091 -0.215408
C22   C     C_R   0.666081 0.747034 0.928791 -0.203775
C23   C     C_R   0.497434 0.737078 0.500061 0.761657
C24   C     C_R   0.611719 0.665735 0.856502 -0.129457
C25   C     C_R   0.554832 0.581512 0.925392 0.206495
C26   C     C_R   0.554840 0.581449 0.074857 0.211106
C27   C     C_R   0.447836 0.422437 0.073678 -0.055800
C28   C     C_R   0.447854 0.422469 0.925911 -0.055689
C29   C     C_R   0.660065 0.500440 0.500083 0.807562
C30   C     C_3   0.968512 0.388251 0.536014 -0.157185
C31   C     C_3   0.025417 0.417146 0.408252 -0.158629
C32   C     C_1   0.250121 0.500225 0.499963 -0.184827
C33   C     C_1   0.749922 0.501069 0.500242 -0.180498
C34   C     C_3   0.027320 0.472364 0.628088 -0.158941
Cu1   Cu    Cu3+1 0.499990 0.499990 0.640660 0.928486
Cu2   Cu    Cu3+1 0.500010 0.500010 0.359340 0.936924
H1    H     H_    0.252102 0.869503 0.774366 0.133394
H2    H     H_    0.359313 0.761580 0.647624 0.154248
H3    H     H_    0.598206 0.893740 0.361212 0.136407
H4    H     H_    0.405042 0.358763 0.128558 0.138032
H5    H     H_    0.617487 0.672870 0.253635 0.190408
H6    H     H_    0.708728 0.810316 0.128291 0.142643
H7    H     H_    0.708717 0.810387 0.872873 0.146172
H8    H     H_    0.405068 0.358813 0.870760 0.133429
H9    H     H_    0.941288 0.295297 0.565268 0.127311
H10   H     H_    0.949059 0.554421 0.267815 0.129517
H11   H     H_    0.952493 0.654989 0.668160 0.126450
H12   H     H_    0.051047 0.448494 0.732943 0.126754
H13   H     H_    0.597946 0.119142 0.360950 0.151866
H14   H     H_    0.358706 0.220283 0.646263 0.137392
N1    N     N_R   0.500800 0.501210 0.147910 -0.198793
N2    N     N_R   0.500830 0.501290 0.852040 -0.198644
O1    O     O_R   0.499990 0.319640 0.618810 -0.576888
O2    O     O_R   0.500000 0.319660 0.381240 -0.574752
O3    O     O_R   0.379070 0.499980 0.618770 -0.588105
O4    O     O_R   0.379080 0.500000 0.381190 -0.568432
O5    O     O_R   0.500000 0.680340 0.618760 -0.603035
O6    O     O_R   0.500010 0.680360 0.381190 -0.589712
O7    O     O_R   0.620920 0.500000 0.618810 -0.587423
O8    O     O_R   0.620930 0.500020 0.381230 -0.591592
H15   H     H_    0.047575 0.347911 0.332611 0.127403
H16   H     H_    0.617359 0.673082 0.746894 0.195121
H17   H     H_    0.058870 0.707611 0.435529 0.129089
H18   H     H_    0.251811 0.098543 0.773795 0.129132

loop_
_geom_bond_atom_site_label_1
_geom_bond_atom_site_label_2
_ccdc_geom_bond_type
C23   O6    A    
C19   C23   S    
C18   H3    S    
C24   C25   A    
C11   H1    S    
Cu2   O4    S    
Cu1   O1    S    
C28   N2    A    
C9    C10   A    
C31   H15   S    
C30   H9    S    
C26   N1    A    
C2    C7    S    
C29   O8    A    
C4    C8    S    
C27   H4    S    
Cu1   O5    S    
C2    C34   S    
C21   H6    S    
C6    C31   S    
C9    C15   A    
C25   N2    A    
C4    C30   S    
C1    C16   S    
C13   C14   A    
C12   C32   S    
C11   C13   A    
C13   H2    S    
C12   O4    A    
Cu2   N1    S    
C20   C26   A    
C1    O2    A    
C5    C6    S    
C3    H11   S    
C27   N1    A    
C20   H5    S    
Cu2   O6    S    
C8    C33   T    
C30   C31   S    
Cu1   O7    S    
C22   C24   A    
C12   O3    A    
C34   H12   S    
C10   C11   A    
C30   C34   S    
C29   O7    A    
Cu1   O3    S    
C15   C16   A    
C2    C5    S    
C29   C33   S    
Cu1   N2    S    
Cu2   O2    S    
C20   C21   A    
C5    H17   S    
C17   C18   A    
C4    C6    S    
C17   H13   S    
C27   C28   A    
C23   O5    A    
C1    O1    A    
C14   C15   A    
C18   C19   A    
C24   H16   S    
C7    C32   T    
C6    H10   S    
C3    C34   S    
C3    C5    S    
C25   C26   A    
C21   C22   A    
C14   C19   A    
C28   H8    S    
C22   H7    S    
C10   H18   S    
C9    H14   S    
C3    C4    S    
C16   C17   A    
C2    C31   S    
Cu2   O8    S    
Cu1   Cu2   S    
