data_mof_unit_48717.cif
_audit_creation_date              2012-12-11T15:19:37-0500
_audit_creation_method            fapswitch 2.2
_symmetry_space_group_name_H-M    P1
_symmetry_Int_Tables_number       1
_space_group_crystal_system       triclinic
_cell_length_a                    19.806171
_cell_length_b                    6.883047
_cell_length_c                    18.312286
_cell_angle_alpha                 89.998102
_cell_angle_beta                  104.051581
_cell_angle_gamma                 90.00113
_cell_volume                      2421.75537098

loop_
_atom_site_label
_atom_site_type_symbol
_atom_type_description
_atom_site_fract_x
_atom_site_fract_y
_atom_site_fract_z
_atom_type_partial_charge
O1    O     O_R   0.312200 0.620210 0.189560 -0.534470
O2    O     O_R   0.687800 0.379790 0.810440 -0.534457
O3    O     O_R   0.187800 0.120210 0.310440 -0.534441
O4    O     O_R   0.812200 0.879790 0.689560 -0.534460
O5    O     O_R   0.171590 0.286140 0.165000 -0.530273
O6    O     O_R   0.828410 0.713860 0.835000 -0.530280
O7    O     O_R   0.328410 0.786140 0.335000 -0.530287
O8    O     O_R   0.671590 0.213860 0.665000 -0.530284
C1    C     C_R   0.145915 0.459688 0.143528 0.715621
C2    C     C_R   0.854085 0.540311 0.856472 0.715618
C3    C     C_R   0.354084 0.959688 0.356474 0.715616
C4    C     C_R   0.645915 0.040311 0.643527 0.715614
O9    O     O_R   0.310670 0.290220 0.180540 -0.543541
O10   O     O_R   0.689330 0.709780 0.819460 -0.543549
O11   O     O_R   0.189330 0.790220 0.319460 -0.543562
O12   O     O_R   0.810670 0.209780 0.680540 -0.543551
O13   O     O_R   0.327870 0.124170 0.326080 -0.536251
O14   O     O_R   0.672130 0.875830 0.673920 -0.536277
O15   O     O_R   0.172130 0.624170 0.173920 -0.536308
O16   O     O_R   0.827870 0.375830 0.826080 -0.536273
C5    C     C_R   0.332853 0.459158 0.166247 0.720861
C6    C     C_R   0.667146 0.540843 0.833751 0.720826
C7    C     C_R   0.167148 0.959154 0.333754 0.720777
C8    C     C_R   0.832851 0.040845 0.666245 0.720823
O17   O     O_3   0.255480 0.455050 0.297740 -0.365500
O18   O     O_3   0.744520 0.544950 0.702260 -0.365512
O19   O     O_3   0.244520 0.955050 0.202260 -0.365514
O20   O     O_3   0.755480 0.044950 0.797740 -0.365503
V1    V     V_3+5 0.248980 0.178550 0.241140 1.439125
V2    V     V_3+5 0.751020 0.821450 0.758860 1.439094
V3    V     V_3+5 0.251020 0.678550 0.258860 1.439054
V4    V     V_3+5 0.748980 0.321450 0.741140 1.439094
C9    C     C_R   0.954418 0.982404 0.650045 -0.054780
C10   C     C_R   0.045571 0.017596 0.349938 -0.054765
C11   C     C_R   0.545584 0.482285 0.849953 -0.054773
C12   C     C_R   0.454408 0.517721 0.150036 -0.054783
C13   C     C_R   0.883714 0.030936 0.618972 -0.107989
C14   C     C_R   0.116276 0.969054 0.381016 -0.107980
C15   C     C_R   0.616279 0.530935 0.881019 -0.108015
C16   C     C_R   0.383714 0.469073 0.118972 -0.108020
C17   C     C_R   0.860570 0.066561 0.541641 -0.232442
C18   C     C_R   0.139414 0.933392 0.458346 -0.232422
C19   C     C_R   0.639406 0.566748 0.958338 -0.232432
C20   C     C_R   0.360583 0.433288 0.041652 -0.232448
C21   C     C_R   0.906258 0.052560 0.494150 0.109768
C22   C     C_R   0.093725 0.947376 0.505834 0.109755
C23   C     C_R   0.593714 0.552787 0.005826 0.109752
C24   C     C_R   0.406273 0.447265 0.994161 0.109761
C25   C     C_R   0.976911 0.005824 0.524197 0.043582
C26   C     C_R   0.023072 0.994119 0.475785 0.043592
C27   C     C_R   0.523075 0.505874 0.975788 0.043582
C28   C     C_R   0.476913 0.494173 0.024199 0.043575
C29   C     C_R   0.001518 0.971546 0.602461 0.064265
C30   C     C_R   0.998466 0.028403 0.397520 0.064263
C31   C     C_R   0.498482 0.471428 0.897535 0.064274
C32   C     C_R   0.501507 0.528616 0.102452 0.064278
C33   C     C_R   0.882010 0.083450 0.416679 -0.184821
C34   C     C_R   0.117969 0.916445 0.583303 -0.184834
C35   C     C_R   0.617944 0.583911 0.083284 -0.184845
C36   C     C_R   0.382040 0.416175 0.916702 -0.184835
C37   C     C_R   0.927106 0.070115 0.368984 -0.188499
C38   C     C_R   0.072872 0.929772 0.630997 -0.188431
C39   C     C_R   0.572847 0.570589 0.130978 -0.188385
C40   C     C_R   0.427137 0.429502 0.869007 -0.188433
H1    H     H_    0.806288 0.102514 0.518257 0.110412
H2    H     H_    0.193696 0.897428 0.481732 0.110416
H3    H     H_    0.693678 0.602829 0.981715 0.110443
H4    H     H_    0.306310 0.397212 0.018276 0.110437
H5    H     H_    0.827708 0.117286 0.392663 0.124479
H6    H     H_    0.172269 0.882578 0.607318 0.124480
H7    H     H_    0.672233 0.617928 0.107291 0.124482
H8    H     H_    0.327750 0.382181 0.892695 0.124481
H9    H     H_    0.905128 0.092237 0.309510 0.142645
H10   H     H_    0.094843 0.907587 0.690470 0.142657
H11   H     H_    0.594805 0.592947 0.190443 0.142664
H12   H     H_    0.405173 0.407192 0.809542 0.142657
C41   C     C_1   0.583726 0.026946 0.580962 -0.186675
C42   C     C_1   0.416273 0.973049 0.419040 -0.186648
C43   C     C_1   0.916275 0.526949 0.919038 -0.186652
C44   C     C_1   0.083725 0.473047 0.080963 -0.186686
C45   C     C_1   0.531212 0.010577 0.529743 -0.042368
C46   C     C_1   0.468786 0.989412 0.470259 -0.042326
C47   C     C_1   0.968788 0.510584 0.970257 -0.042396
C48   C     C_1   0.031212 0.489412 0.029743 -0.042444
C49   C     C_R   0.979123 0.947622 0.732126 0.081784
C50   C     C_R   0.984429 0.102792 0.783002 -0.125618
C51   C     C_R   0.012347 0.072186 0.859881 -0.126219
C52   C     C_R   0.035334 0.887391 0.886291 -0.083106
C53   C     C_R   0.029688 0.732118 0.835933 -0.126738
C54   C     C_R   0.000884 0.761295 0.759193 -0.143729
H13   H     H_    0.968146 0.247555 0.762980 0.098020
H14   H     H_    0.017138 0.192119 0.898879 0.120369
H15   H     H_    0.057617 0.864676 0.945752 0.116924
H16   H     H_    0.047758 0.589098 0.856304 0.114135
H17   H     H_    0.997120 0.640219 0.720617 0.111025
C55   C     C_R   0.020879 0.052486 0.267856 0.081765
C56   C     C_R   0.998990 0.238751 0.240824 -0.143838
C57   C     C_R   0.970230 0.268012 0.164079 -0.126763
C58   C     C_R   0.964763 0.112904 0.113681 -0.083137
C59   C     C_R   0.987892 0.928202 0.140053 -0.126201
C60   C     C_R   0.015756 0.897495 0.216937 -0.125564
H18   H     H_    0.002620 0.359703 0.279429 0.111132
H19   H     H_    0.952063 0.410970 0.143732 0.114194
H20   H     H_    0.942516 0.135679 0.054216 0.117001
H21   H     H_    0.983259 0.808418 0.101019 0.120451
H22   H     H_    0.032150 0.752788 0.236923 0.098065
C61   C     C_R   0.520884 0.447473 0.767873 0.081813
C62   C     C_R   0.515561 0.602641 0.716991 -0.125626
C63   C     C_R   0.487634 0.572025 0.640115 -0.126204
C64   C     C_R   0.464651 0.387223 0.613716 -0.083083
C65   C     C_R   0.470317 0.231949 0.664080 -0.126770
C66   C     C_R   0.499134 0.261134 0.740816 -0.143748
H23   H     H_    0.531836 0.747411 0.737005 0.098014
H24   H     H_    0.482831 0.691958 0.601113 0.120372
H25   H     H_    0.442358 0.364502 0.554257 0.116992
H26   H     H_    0.452251 0.088924 0.643716 0.114134
H27   H     H_    0.502911 0.140060 0.779397 0.111024
C67   C     C_R   0.479119 0.552453 0.232117 0.081814
C68   C     C_R   0.500774 0.738834 0.259204 -0.143665
C69   C     C_R   0.529625 0.767957 0.335938 -0.126743
C70   C     C_R   0.535421 0.612562 0.386273 -0.083063
C71   C     C_R   0.512543 0.427697 0.359843 -0.126203
C72   C     C_R   0.484579 0.397156 0.282965 -0.125666
H28   H     H_    0.496900 0.859997 0.220645 0.110945
H29   H     H_    0.547624 0.911020 0.356322 0.114090
H30   H     H_    0.557740 0.635238 0.445731 0.116932
H31   H     H_    0.517463 0.307653 0.398817 0.120308
H32   H     H_    0.468387 0.252348 0.262923 0.097981

loop_
_geom_bond_atom_site_label_1
_geom_bond_atom_site_label_2
_ccdc_geom_bond_type
C34   C38   A    
C51   C52   A    
O1    C5    A    
O19   V1    S    
O13   V1    S    
C61   C66   A    
O3    C7    A    
C65   C66   A    
C44   C48   T    
O15   V3    S    
C56   C57   A    
O4    V2    S    
C54   H17   S    
C68   H28   S    
O7    C3    A    
C21   C33   A    
C59   H21   S    
C26   C30   A    
C13   C17   A    
O9    V1    S    
C10   C55   S    
C14   C18   A    
C50   H13   S    
C66   H27   S    
O4    C8    A    
C36   H8    S    
C57   H19   S    
C57   C58   A    
O1    V3    S    
C62   C63   A    
O2    V4    S    
C18   C22   A    
C71   H31   S    
O3    V1    S    
C9    C49   S    
C64   C65   A    
C12   C16   A    
C67   C68   A    
C1    O15   A    
C58   C59   A    
C2    O16   A    
O2    C6    A    
C61   C62   A    
C65   H26   S    
O14   V2    S    
C21   C25   A    
C12   C67   S    
C16   C20   A    
C56   H18   S    
O11   C7    A    
C58   H20   S    
O12   C8    A    
C55   C60   A    
C4    C41   S    
O17   V1    S    
O10   V2    S    
C24   C36   A    
O5    V1    S    
C9    C29   A    
C49   C54   A    
O7    V3    S    
C11   C31   A    
C27   C28   A    
O8    V4    S    
O20   V4    S    
C50   C51   A    
C34   H6    S    
C15   C19   A    
C37   H9    S    
C49   C50   A    
O19   V3    S    
C45   C46   S    
C1    C44   S    
C62   H23   S    
C11   C15   A    
C55   C56   A    
O5    C1    A    
C12   C32   A    
C3    C42   S    
C29   C38   A    
C42   C46   T    
C47   C48   S    
C41   C45   T    
O8    C4    A    
C31   C40   A    
C8    C13   S    
C40   H12   S    
C32   C39   A    
O9    C5    A    
C68   C69   A    
C33   C37   A    
C70   C71   A    
C63   H24   S    
O6    V2    S    
C10   C30   A    
C20   H4    S    
C69   C70   A    
O16   V4    S    
C60   H22   S    
C52   H15   S    
C3    O13   A    
C10   C14   A    
O17   V3    S    
C53   H16   S    
C23   C27   A    
C2    C43   S    
O11   V3    S    
O18   V4    S    
C30   C37   A    
O12   V4    S    
C7    C14   S    
C22   C26   A    
C35   C39   A    
C36   C40   A    
O10   C6    A    
O20   V2    S    
C53   C54   A    
C70   H30   S    
C63   C64   A    
C43   C47   T    
C72   H32   S    
C5    C16   S    
C39   H11   S    
C25   C29   A    
C6    C15   S    
C59   C60   A    
C69   H29   S    
C27   C31   A    
C67   C72   A    
C17   H1    S    
C9    C13   A    
C11   C61   S    
O6    C2    A    
C23   C35   A    
C28   C32   A    
C24   C28   A    
C52   C53   A    
C19   H3    S    
C25   C26   A    
C4    O14   A    
C18   H2    S    
C17   C21   A    
C38   H10   S    
C33   H5    S    
C71   C72   A    
C51   H14   S    
C19   C23   A    
C64   H25   S    
C22   C34   A    
C20   C24   A    
C35   H7    S    
O18   V2    S    
