data_mof_unit_42445.cif
_audit_creation_date              2012-12-10T21:09:13-0500
_audit_creation_method            fapswitch 2.2
_symmetry_space_group_name_H-M    P1
_symmetry_Int_Tables_number       1
_space_group_crystal_system       triclinic
_cell_length_a                    10.616567
_cell_length_b                    17.319986
_cell_length_c                    16.869381
_cell_angle_alpha                 92.392066
_cell_angle_beta                  104.753874
_cell_angle_gamma                 90.605015
_cell_volume                      2996.31249057

loop_
_atom_site_label
_atom_site_type_symbol
_atom_type_description
_atom_site_fract_x
_atom_site_fract_y
_atom_site_fract_z
_atom_type_partial_charge
C1    C     C_R   0.499064 0.353036 0.498447 1.000803
C2    C     C_R   0.500147 0.647242 0.500955 0.992410
C3    C     C_R   0.581451 0.884787 0.490889 -0.061951
C4    C     C_R   0.571974 0.115195 0.511977 -0.073100
C5    C     C_1   0.597426 0.966284 0.499082 0.154957
C6    C     C_1   0.594100 0.034847 0.506095 0.141555
C7    C     C_R   0.433119 0.437218 0.817937 0.396602
C8    C     C_R   0.554757 0.569128 0.182067 0.305281
C9    C     C_R   0.437388 0.440622 0.734182 -0.188241
C10   C     C_R   0.552489 0.563307 0.265691 -0.115879
C11   C     C_R   0.560487 0.557743 0.764622 0.550017
C12   C     C_R   0.448310 0.439988 0.235947 0.517653
C13   C     C_R   0.553925 0.556738 0.846819 -0.342973
C14   C     C_R   0.449442 0.444500 0.153014 -0.322329
C15   C     C_R   0.491777 0.497238 0.875043 -0.084989
C16   C     C_R   0.501064 0.508252 0.124404 -0.097239
C17   C     C_1   0.492892 0.500913 0.962867 0.180355
C18   C     C_1   0.497387 0.506284 0.036265 0.124979
C19   C     C_R   0.256296 0.504950 0.465647 1.019191
C20   C     C_R   0.742917 0.499197 0.534648 0.889143
C21   C     C_2   0.116836 0.524649 0.448346 -0.013858
C22   C     C_2   0.884193 0.502567 0.556231 -0.022498
C23   C     C_2   0.074485 0.546310 0.514865 -0.148244
C24   C     C_2   0.937425 0.550152 0.512317 -0.201708
C25   C     C_R   0.655646 0.841916 0.553063 -0.174609
C26   C     C_R   0.653686 0.164824 0.484431 -0.140630
C27   C     C_R   0.625917 0.764609 0.556489 -0.210246
C28   C     C_R   0.626518 0.242356 0.479435 -0.198196
C29   C     C_R   0.514902 0.731006 0.502559 -0.195518
C30   C     C_R   0.513827 0.270189 0.497857 -0.193700
C31   C     C_R   0.435651 0.774625 0.440249 0.336965
C32   C     C_R   0.425331 0.220211 0.521850 0.266207
C33   C     C_R   0.476407 0.850878 0.430228 0.362427
C34   C     C_R   0.460312 0.142125 0.535087 0.353639
H1    H     H_    0.876528 0.586133 0.467165 0.171655
H2    H     H_    0.139605 0.550984 0.576126 0.187438
H3    H     H_    0.598118 0.603308 0.890179 0.252005
H4    H     H_    0.410885 0.396950 0.109524 0.239962
H5    H     H_    0.736917 0.868363 0.598956 0.194132
H6    H     H_    0.738656 0.143431 0.466709 0.196570
H7    H     H_    0.691086 0.730994 0.600942 0.236642
H8    H     H_    0.693698 0.281032 0.460911 0.178759
H9    H     H_    0.390545 0.395368 0.690504 0.237463
H10   H     H_    0.593357 0.610165 0.309279 0.201388
N1    N     N_R   0.500030 0.500030 0.707240 -0.172828
N2    N     N_R   0.499970 0.499970 0.292760 -0.167151
O1    O     O_R   0.500000 0.389130 0.566570 -0.623490
O2    O     O_R   0.500000 0.610870 0.433430 -0.618769
O3    O     O_R   0.499990 0.389100 0.433480 -0.527526
O4    O     O_R   0.500010 0.610900 0.566520 -0.528169
O5    O     O_R   0.317810 0.500010 0.541690 -0.630200
O6    O     O_R   0.682190 0.499990 0.458310 -0.647216
O7    O     O_R   0.317800 0.499990 0.408610 -0.572531
O8    O     O_R   0.682200 0.500010 0.591390 -0.579149
Zn1   Zn    Zn3+2 0.500010 0.500020 0.588860 1.041609
Zn2   Zn    Zn3+2 0.499990 0.499980 0.411140 1.036092
C35   C     C_3   0.966294 0.449044 0.617941 -0.408971
C36   C     C_3   0.887482 0.389661 0.652110 -0.394876
C37   C     C_3   0.976422 0.331945 0.703809 -0.670534
H11   H     H_    0.031630 0.299362 0.666091 0.304675
H12   H     H_    0.045652 0.362681 0.756398 0.297476
H13   H     H_    0.916944 0.290212 0.727948 0.247432
H14   H     H_    0.832298 0.419709 0.691599 0.262050
H15   H     H_    0.817890 0.357211 0.600805 0.210885
H16   H     H_    0.031755 0.416522 0.587123 0.246839
H17   H     H_    0.028041 0.484868 0.669885 0.233595
C38   C     C_3   0.022328 0.524610 0.362930 -0.417511
C39   C     C_3   0.081367 0.515485 0.289206 -0.285520
C40   C     C_3   0.978847 0.526553 0.208982 -0.825311
H18   H     H_    0.896300 0.484660 0.201879 0.258401
H19   H     H_    0.941782 0.586319 0.207995 0.290918
H20   H     H_    0.023056 0.517177 0.156459 0.274077
H21   H     H_    0.160510 0.559227 0.294270 0.287033
H22   H     H_    0.119901 0.456757 0.286544 0.279250
H23   H     H_    0.947442 0.478094 0.358341 0.218313
H24   H     H_    0.971928 0.580866 0.357505 0.244345
S1    S     S_3+6 0.283595 0.734665 0.381028 0.076050
O9    O     O_2   0.304584 0.691578 0.306404 -0.268280
O10   O     O_2   0.230224 0.679732 0.431462 -0.367330
O11   O     O_3   0.172718 0.803312 0.351778 -0.438960
H25   H     H_    0.095393 0.775503 0.316309 0.397196
S2    S     S_3+6 0.268420 0.253866 0.526068 0.065463
O12   O     O_2   0.270388 0.275566 0.613328 -0.215482
O13   O     O_2   0.231154 0.323669 0.476077 -0.361167
O14   O     O_3   0.153147 0.184814 0.490213 -0.457572
H26   H     H_    0.154167 0.174844 0.432128 0.370159
S3    S     S_3+6 0.403826 0.903594 0.341938 0.124160
O15   O     O_2   0.292421 0.948895 0.358286 -0.203661
O16   O     O_2   0.502193 0.958819 0.324022 -0.274467
O17   O     O_3   0.349455 0.843819 0.258752 -0.434731
H27   H     H_    0.301474 0.877228 0.215395 0.403471
S4    S     S_3+6 0.368974 0.077431 0.580394 0.101346
O18   O     O_2   0.268552 0.035129 0.513162 -0.229102
O19   O     O_2   0.457491 0.019464 0.629024 -0.292637
O20   O     O_3   0.294532 0.124190 0.644455 -0.421672
H28   H     H_    0.236477 0.084834 0.658601 0.396375
S5    S     S_3+6 0.357023 0.357969 0.850972 0.036932
O21   O     O_2   0.295725 0.302816 0.780306 -0.244400
O22   O     O_2   0.457542 0.316516 0.912990 -0.255282
O23   O     O_3   0.242157 0.390989 0.895605 -0.574762
H29   H     H_    0.209373 0.344720 0.917326 0.396593
S6    S     S_3+6 0.621243 0.653878 0.152314 0.073893
O24   O     O_2   0.513417 0.710072 0.125805 -0.164204
O25   O     O_2   0.722763 0.689971 0.223553 -0.288447
O26   O     O_3   0.688549 0.635135 0.073650 -0.512275
H30   H     H_    0.748588 0.592196 0.091281 0.337433
S7    S     S_3+6 0.644490 0.639470 0.742141 0.047893
O27   O     O_2   0.730973 0.675475 0.820076 -0.282007
O28   O     O_2   0.729097 0.618772 0.686132 -0.306545
O29   O     O_3   0.533520 0.704622 0.700205 -0.540318
H31   H     H_    0.574012 0.755817 0.720688 0.393045
S8    S     S_3+6 0.386858 0.350690 0.260479 0.057126
O30   O     O_2   0.311510 0.307822 0.183274 -0.285101
O31   O     O_2   0.499754 0.302071 0.300423 -0.271913
O32   O     O_3   0.286547 0.362157 0.322135 -0.548817
H32   H     H_    0.244037 0.310787 0.320948 0.396466

loop_
_geom_bond_atom_site_label_1
_geom_bond_atom_site_label_2
_ccdc_geom_bond_type
S3    O15   D    
C9    N1    A    
C27   C29   A    
O20   H28   S    
C35   H17   S    
C22   C35   S    
S8    O31   D    
S5    O21   D    
C35   C36   S    
O14   H26   S    
C2    C29   S    
C22   C24   D    
S4    O18   D    
C19   C21   S    
C5    C6    T    
S1    O11   S    
C3    C33   A    
C39   H22   S    
O32   H32   S    
S6    O26   S    
C7    C9    A    
C28   H8    S    
C40   H19   S    
O29   H31   S    
O23   H29   S    
C2    O4    A    
C39   C40   S    
C10   N2    A    
C23   C24   S    
C31   C33   A    
C13   H3    S    
C19   O7    A    
C7    C15   A    
C37   H11   S    
C8    C16   A    
C21   C38   S    
C29   C31   A    
S7    O28   D    
C40   H18   S    
S8    O30   D    
S5    O22   D    
C31   S1    S    
S1    O10   D    
C36   H15   S    
C4    C34   A    
C9    H9    S    
C24   H1    S    
C37   H12   S    
C10   H10   S    
C38   C39   S    
C3    C25   A    
C20   O8    A    
C1    O1    A    
C2    O2    A    
C39   H21   S    
S1    O9    D    
S4    O20   S    
C12   N2    A    
C32   C34   A    
C40   H20   S    
C14   H4    S    
C27   H7    S    
S7    O27   D    
S4    O19   D    
C17   C18   T    
S6    O25   D    
C4    C6    S    
C12   C14   A    
C23   H2    S    
S2    O13   D    
C13   C15   A    
C11   S7    S    
S7    O29   S    
C14   C16   A    
C11   N1    A    
C38   H23   S    
C20   C22   S    
S2    O14   S    
C12   S8    S    
S5    O23   S    
O1    Zn1   S    
O7    Zn2   S    
C36   H14   S    
O2    Zn2   S    
O8    Zn1   S    
C37   H13   S    
C7    S5    S    
C8    C10   A    
C35   H16   S    
O11   H25   S    
C3    C5    S    
C4    C26   A    
C15   C17   S    
C25   C27   A    
O3    Zn2   S    
C32   S2    S    
O26   H30   S    
C26   C28   A    
O4    Zn1   S    
C21   C23   D    
C36   C37   S    
C20   O6    A    
C25   H5    S    
C30   C32   A    
C11   C13   A    
C26   H6    S    
O17   H27   S    
C1    O3    A    
C28   C30   A    
C1    C30   S    
O5    Zn1   S    
C33   S3    S    
S6    O24   D    
C34   S4    S    
C19   O5    A    
N1    Zn1   S    
C16   C18   S    
S2    O12   D    
S3    O17   S    
N2    Zn2   S    
S3    O16   D    
C38   H24   S    
C8    S6    S    
S8    O32   S    
O6    Zn2   S    
