data_mof_unit_15795.cif
_audit_creation_date              2013-03-05T15:51:03-0500
_audit_creation_method            fapswitch 2.2
_symmetry_space_group_name_H-M    P1
_symmetry_Int_Tables_number       1
_space_group_crystal_system       triclinic
_cell_length_a                    19.048669
_cell_length_b                    11.201781
_cell_length_c                    18.804462
_cell_angle_alpha                 89.925016
_cell_angle_beta                  90.553369
_cell_angle_gamma                 90.109033
_cell_volume                      4012.27990043

loop_
_atom_site_label
_atom_site_type_symbol
_atom_site_description
_atom_site_fract_x
_atom_site_fract_y
_atom_site_fract_z
_atom_type_partial_charge
O1    O     O_R   0.784290 0.290360 0.830540 -0.417652
O2    O     O_R   0.215710 0.290360 0.169460 -0.410393
O3    O     O_R   0.284290 0.790360 0.830540 -0.417676
O4    O     O_R   0.715710 0.790360 0.169460 -0.410706
O5    O     O_R   0.762610 0.041070 0.825230 -0.442512
O6    O     O_R   0.237390 0.041070 0.174770 -0.447557
O7    O     O_R   0.262610 0.541070 0.825230 -0.441758
O8    O     O_R   0.737390 0.541070 0.174770 -0.448416
C1    C     C_R   0.724906 0.963052 0.857092 0.542854
C2    C     C_R   0.274862 0.963239 0.142924 0.549329
C3    C     C_R   0.224896 0.463060 0.857092 0.543552
C4    C     C_R   0.774876 0.463278 0.142910 0.548767
O9    O     O_R   0.667390 0.924160 0.829970 -0.556192
O10   O     O_R   0.332610 0.924160 0.170030 -0.548990
O11   O     O_R   0.167390 0.424160 0.829970 -0.555924
O12   O     O_R   0.832610 0.424160 0.170030 -0.549134
O13   O     O_R   0.553980 0.081420 0.821780 -0.493980
O14   O     O_R   0.446020 0.081420 0.178220 -0.493760
O15   O     O_R   0.053980 0.581420 0.821780 -0.493760
O16   O     O_R   0.946020 0.581420 0.178220 -0.493692
C5    C     C_R   0.530279 0.177937 0.850631 0.556542
C6    C     C_R   0.470281 0.177867 0.149733 0.552810
C7    C     C_R   0.030275 0.677935 0.850628 0.557064
C8    C     C_R   0.970276 0.677870 0.149730 0.552970
O17   O     O_R   0.543210 0.283170 0.826740 -0.535115
O18   O     O_R   0.456790 0.283170 0.173260 -0.536184
O19   O     O_R   0.043210 0.783170 0.826740 -0.534793
O20   O     O_R   0.956790 0.783170 0.173260 -0.536141
O21   O     O_R   0.678350 0.375000 0.822720 -0.524001
O22   O     O_R   0.321650 0.375000 0.177280 -0.526608
O23   O     O_R   0.178350 0.875000 0.822720 -0.523904
O24   O     O_R   0.821650 0.875000 0.177280 -0.526296
C9    C     C_R   0.740050 0.368539 0.849095 0.576719
C10   C     C_R   0.259684 0.371054 0.151596 0.572286
C11   C     C_R   0.240044 0.868526 0.849104 0.576722
C12   C     C_R   0.759686 0.871032 0.151591 0.572600
O25   O     O_R   0.785060 0.289300 0.670580 -0.526856
O26   O     O_R   0.214940 0.289300 0.329420 -0.531443
O27   O     O_R   0.285060 0.789300 0.670580 -0.526530
O28   O     O_R   0.714940 0.789300 0.329420 -0.527389
O29   O     O_R   0.763330 0.040090 0.676940 -0.515616
O30   O     O_R   0.236670 0.040090 0.323060 -0.516677
O31   O     O_R   0.263330 0.540090 0.676940 -0.514949
O32   O     O_R   0.736670 0.540090 0.323060 -0.512382
C13   C     C_R   0.727914 0.956382 0.647520 0.542553
C14   C     C_R   0.271846 0.954421 0.351849 0.537985
C15   C     C_R   0.225864 0.461113 0.645360 0.536827
C16   C     C_R   0.772067 0.454742 0.351964 0.540177
O33   O     O_R   0.668160 0.923110 0.670000 -0.528870
O34   O     O_R   0.331840 0.923110 0.330000 -0.527221
O35   O     O_R   0.168160 0.423110 0.670000 -0.524398
O36   O     O_R   0.831840 0.423110 0.330000 -0.527994
O37   O     O_R   0.554690 0.080440 0.673480 -0.508893
O38   O     O_R   0.445310 0.080440 0.326520 -0.510686
O39   O     O_R   0.054690 0.580440 0.673480 -0.508941
O40   O     O_R   0.945310 0.580440 0.326520 -0.510986
C17   C     C_R   0.532853 0.176734 0.643224 0.544553
C18   C     C_R   0.471082 0.176958 0.354070 0.546735
C19   C     C_R   0.034229 0.676720 0.642497 0.545144
C20   C     C_R   0.971362 0.676972 0.353870 0.546003
O41   O     O_R   0.543980 0.282110 0.666770 -0.525674
O42   O     O_R   0.456020 0.282110 0.333230 -0.529925
O43   O     O_R   0.043980 0.782110 0.666770 -0.525551
O44   O     O_R   0.956020 0.782110 0.333230 -0.529787
O45   O     O_R   0.679070 0.374030 0.674430 -0.524109
O46   O     O_R   0.320930 0.374030 0.325570 -0.523743
O47   O     O_R   0.179070 0.874030 0.674430 -0.524518
O48   O     O_R   0.820930 0.874030 0.325570 -0.524165
C21   C     C_R   0.737760 0.356029 0.644226 0.536335
C22   C     C_R   0.260058 0.362619 0.353080 0.532680
C23   C     C_R   0.237508 0.855230 0.643929 0.535015
C24   C     C_R   0.761241 0.858906 0.354703 0.532641
Cr1   Cr    Cr6+3 0.769260 0.163750 0.750730 1.071219
Cr2   Cr    Cr6+3 0.230740 0.163750 0.249270 1.064781
Cr3   Cr    Cr6+3 0.269260 0.663750 0.750730 1.071391
Cr4   Cr    Cr6+3 0.730740 0.663750 0.249270 1.067698
Cr5   Cr    Cr6+3 0.612640 0.009910 0.748780 1.002569
Cr6   Cr    Cr6+3 0.387360 0.009910 0.251220 0.999101
Cr7   Cr    Cr6+3 0.112640 0.509910 0.748780 1.004791
Cr8   Cr    Cr6+3 0.887360 0.509910 0.251220 0.999297
Cr9   Cr    Cr6+3 0.614190 0.322400 0.747710 0.972805
Cr10  Cr    Cr6+3 0.385810 0.322400 0.252290 0.972306
Cr11  Cr    Cr6+3 0.114190 0.822400 0.747710 0.972610
Cr12  Cr    Cr6+3 0.885810 0.822400 0.252290 0.973086
O49   O     O_3   0.665360 0.165350 0.749070 -0.252857
O50   O     O_3   0.334640 0.165350 0.250930 -0.247137
O51   O     O_3   0.165360 0.665350 0.749070 -0.254899
O52   O     O_3   0.834640 0.665350 0.250930 -0.248264
C25   C     C_2   0.498534 0.170633 0.921403 -0.113740
C26   C     C_2   0.503637 0.169582 0.079713 -0.121553
C27   C     C_2   0.998519 0.670626 0.921396 -0.113839
C28   C     C_2   0.003622 0.669593 0.079705 -0.121363
C29   C     C_2   0.495684 0.071459 0.039339 -0.163365
C30   C     C_2   0.504601 0.071627 0.961354 -0.166646
C31   C     C_2   0.995687 0.571461 0.039337 -0.163371
C32   C     C_2   0.004597 0.571625 0.961350 -0.166706
H1    H     H_    0.481874 0.987396 0.064059 0.149535
H2    H     H_    0.516112 0.987004 0.936218 0.149152
H3    H     H_    0.981901 0.487391 0.064063 0.149563
H4    H     H_    0.016115 0.487005 0.936216 0.149114
H5    H     H_    0.524867 0.250751 0.056779 0.087908
H6    H     H_    0.480145 0.253072 0.944988 0.088154
H7    H     H_    0.024834 0.750771 0.056765 0.087873
H8    H     H_    0.980117 0.753057 0.944977 0.088150
C33   C     C_R   0.762029 0.441991 0.065903 0.037280
C34   C     C_R   0.237139 0.441187 0.934030 0.031759
C35   C     C_R   0.262011 0.941925 0.065923 0.037163
C36   C     C_R   0.737161 0.941202 0.934036 0.032072
C37   C     C_R   0.695795 0.448319 0.030367 -0.036924
C38   C     C_R   0.303541 0.442384 0.968412 -0.030090
C39   C     C_R   0.195778 0.948260 0.030388 -0.036858
C40   C     C_R   0.803569 0.942413 0.968432 -0.030032
C41   C     C_R   0.691224 0.444080 0.956132 0.030356
C42   C     C_R   0.308913 0.441658 0.042467 0.029592
C43   C     C_R   0.191208 0.944025 0.956155 0.030346
C44   C     C_R   0.808926 0.941672 0.042495 0.029664
C45   C     C_R   0.816931 0.428814 0.949434 -0.089352
C46   C     C_R   0.183381 0.438499 0.051877 -0.080448
C47   C     C_R   0.316916 0.928754 0.949456 -0.089372
C48   C     C_R   0.683388 0.938510 0.051873 -0.080563
C49   C     C_R   0.822012 0.434962 0.023072 -0.114763
C50   C     C_R   0.177519 0.439524 0.977828 -0.105260
C51   C     C_R   0.321995 0.934874 0.023094 -0.114805
C52   C     C_R   0.677536 0.939555 0.977827 -0.105116
C53   C     C_3   0.640459 0.543834 0.027274 0.100778
C54   C     C_3   0.363332 0.529692 0.966146 0.097943
C55   C     C_3   0.140427 0.043752 0.027316 0.100742
C56   C     C_3   0.863326 0.029811 0.966231 0.097892
C57   C     C_3   0.640782 0.545984 0.944946 0.026903
C58   C     C_3   0.365800 0.534789 0.048591 0.022307
C59   C     C_3   0.140746 0.045908 0.944984 0.026939
C60   C     C_3   0.865733 0.034926 0.048675 0.022259
C61   C     C_R   0.750930 0.425320 0.916685 0.046031
C62   C     C_R   0.249521 0.432224 0.084326 0.033795
C63   C     C_R   0.250917 0.925283 0.916704 0.046004
C64   C     C_R   0.749522 0.932189 0.084325 0.033714
H9    H     H_    0.864178 0.420168 0.918429 0.166267
H10   H     H_    0.136350 0.435447 0.083638 0.159984
H11   H     H_    0.364164 0.920110 0.918452 0.166232
H12   H     H_    0.636354 0.935476 0.083629 0.159912
H13   H     H_    0.873528 0.434642 0.046724 0.128918
H14   H     H_    0.125837 0.440519 0.954567 0.131241
H15   H     H_    0.373512 0.934538 0.046744 0.128901
H16   H     H_    0.625856 0.940573 0.954561 0.131351
H17   H     H_    0.592096 0.508548 0.051996 0.077535
H18   H     H_    0.409251 0.488127 0.939723 0.073896
H19   H     H_    0.092068 0.008439 0.052045 0.077493
H20   H     H_    0.909297 0.988304 0.939867 0.073872
C65   C     C_R   0.508492 0.170982 0.420836 0.019397
C66   C     C_R   0.517090 0.170883 0.568484 0.021853
C67   C     C_R   0.010215 0.671381 0.419872 0.018177
C68   C     C_R   0.021109 0.670252 0.567237 0.019271
C69   C     C_R   0.521968 0.277261 0.457855 0.028870
C70   C     C_R   0.525664 0.276129 0.530211 0.047410
C71   C     C_R   0.023104 0.777800 0.457009 0.031464
C72   C     C_R   0.027486 0.776161 0.529268 0.045691
C73   C     C_R   0.516204 0.061982 0.531574 -0.166640
C74   C     C_R   0.513908 0.061992 0.457353 -0.170851
C75   C     C_R   0.023710 0.561553 0.529850 -0.161622
C76   C     C_R   0.019184 0.562194 0.455614 -0.166830
C77   C     C_3   0.484157 0.395358 0.458724 -0.268867
C78   C     C_3   0.488613 0.392178 0.538695 -0.278140
C79   C     C_3   0.984810 0.895505 0.458612 -0.267646
C80   C     C_3   0.989837 0.891418 0.538599 -0.276587
H21   H     H_    0.514294 0.978191 0.559895 0.119088
H22   H     H_    0.508951 0.978103 0.429398 0.117048
H23   H     H_    0.026407 0.477081 0.557662 0.133037
H24   H     H_    0.015525 0.478194 0.427424 0.123539
H25   H     H_    0.929634 0.889776 0.439861 0.175671
H26   H     H_    0.023543 0.962913 0.561370 0.134554
H27   H     H_    0.429066 0.389394 0.439772 0.171983
H28   H     H_    0.522564 0.463405 0.561401 0.132734
H29   H     H_    0.515619 0.468558 0.434829 0.121686
H30   H     H_    0.436676 0.382052 0.564584 0.135091
H31   H     H_    0.015949 0.969256 0.434875 0.123111
H32   H     H_    0.938179 0.879938 0.564829 0.140785
C81   C     C_R   0.751415 0.404966 0.420239 0.016823
C82   C     C_R   0.237090 0.440944 0.569923 0.017135
C83   C     C_R   0.250145 0.903358 0.419618 0.015013
C84   C     C_R   0.750271 0.913763 0.578287 0.014493
C85   C     C_R   0.799500 0.334573 0.458445 0.022836
C86   C     C_R   0.181524 0.392910 0.530639 0.042802
C87   C     C_R   0.296895 0.829605 0.457291 0.028369
C88   C     C_R   0.714478 0.820460 0.544448 0.017082
C89   C     C_R   0.795175 0.324069 0.530890 0.034624
C90   C     C_R   0.184798 0.381726 0.458178 0.028752
C91   C     C_R   0.292814 0.818994 0.529841 0.041876
C92   C     C_R   0.716125 0.809879 0.471693 0.046243
C93   C     C_R   0.687786 0.435942 0.530063 -0.150635
C94   C     C_R   0.295262 0.486532 0.458110 -0.163505
C95   C     C_R   0.187617 0.936642 0.529977 -0.158325
C96   C     C_R   0.798758 0.971466 0.463417 -0.172959
C97   C     C_R   0.691515 0.445701 0.455695 -0.155002
C98   C     C_R   0.291797 0.497035 0.532490 -0.160198
C99   C     C_R   0.190990 0.946517 0.455573 -0.164928
C100  C     C_R   0.796946 0.983633 0.537585 -0.164080
C101  C     C_3   0.878190 0.337606 0.461985 -0.268638
C102  C     C_3   0.143830 0.277394 0.540252 -0.280467
C103  C     C_3   0.375583 0.828260 0.460483 -0.269952
C104  C     C_3   0.639180 0.781812 0.546780 -0.270870
C105  C     C_3   0.872766 0.325671 0.541811 -0.279200
C106  C     C_3   0.147388 0.263953 0.460409 -0.270056
C107  C     C_3   0.370430 0.816860 0.540305 -0.277286
C108  C     C_3   0.640744 0.774613 0.466521 -0.266145
C109  C     C_R   0.743194 0.382683 0.568812 0.022418
C110  C     C_R   0.244705 0.417938 0.421303 0.018536
C111  C     C_R   0.242299 0.880385 0.568229 0.019612
C112  C     C_R   0.754345 0.888793 0.429447 0.024967
H33   H     H_    0.643058 0.472623 0.557180 0.123928
H34   H     H_    0.339769 0.523993 0.430553 0.117889
H35   H     H_    0.144091 0.976559 0.557549 0.126943
H36   H     H_    0.832836 0.028932 0.432740 0.119408
H37   H     H_    0.650420 0.491489 0.426734 0.115960
H38   H     H_    0.332720 0.544997 0.560641 0.126937
H39   H     H_    0.150729 0.995967 0.427351 0.118831
H40   H     H_    0.827397 0.054435 0.561947 0.137087
H41   H     H_    0.899682 0.425319 0.445693 0.168179
H42   H     H_    0.089479 0.289443 0.559841 0.133527
H43   H     H_    0.398518 0.914690 0.444141 0.167069
H44   H     H_    0.603099 0.851535 0.565870 0.162220
H45   H     H_    0.902316 0.258571 0.436246 0.125439
H46   H     H_    0.175724 0.210235 0.569765 0.133837
H47   H     H_    0.398094 0.747967 0.434615 0.126565
H48   H     H_    0.632890 0.693414 0.572842 0.123402
H49   H     H_    0.893327 0.239371 0.562289 0.132153
H50   H     H_    0.181835 0.189482 0.444249 0.164840
H51   H     H_    0.389899 0.729960 0.560824 0.133741
H52   H     H_    0.633112 0.683248 0.445895 0.135839
H53   H     H_    0.891273 0.406130 0.571146 0.138097
H54   H     H_    0.095084 0.267192 0.433728 0.126786
H55   H     H_    0.390261 0.896560 0.569464 0.135442
H56   H     H_    0.608124 0.843717 0.439741 0.134328
N1    N     N_R   0.161663 0.154243 0.059124 0.083045
O53   O     O_R   0.114240 0.220028 0.089096 -0.394462
O54   O     O_R   0.226919 0.187795 0.055927 -0.378864
N2    N     N_R   0.844339 0.141625 0.933807 0.084300
O55   O     O_R   0.892550 0.205578 0.903359 -0.395492
O56   O     O_R   0.781238 0.182649 0.942342 -0.380875
N3    N     N_R   0.661699 0.654317 0.059081 0.082979
O57   O     O_R   0.614279 0.720085 0.089070 -0.394691
O58   O     O_R   0.726960 0.687846 0.055899 -0.378945
N4    N     N_R   0.344355 0.641539 0.933749 0.084309
O59   O     O_R   0.392583 0.705540 0.903365 -0.395574
O60   O     O_R   0.281270 0.682604 0.942336 -0.380950
C113  C     C_3   0.564499 0.519330 0.918520 -0.256028
C114  C     C_3   0.543988 0.546719 0.841162 -0.375096
H57   H     H_    0.551255 0.642786 0.828677 0.136153
H58   H     H_    0.572601 0.491960 0.802672 0.200676
H59   H     H_    0.487343 0.526432 0.833381 0.148408
H60   H     H_    0.549151 0.426938 0.932706 0.139302
H61   H     H_    0.530682 0.582040 0.947809 0.149345
C115  C     C_3   0.438536 0.489000 0.073986 -0.240124
C116  C     C_3   0.467429 0.531267 0.145988 -0.365278
H62   H     H_    0.476527 0.629128 0.145217 0.149792
H63   H     H_    0.432890 0.505845 0.190421 0.184905
H64   H     H_    0.519267 0.489047 0.156064 0.144428
H65   H     H_    0.439313 0.391190 0.069154 0.162511
H66   H     H_    0.477505 0.520833 0.036380 0.101768
C117  C     C_3   0.064472 0.019197 0.918553 -0.256046
C118  C     C_3   0.043948 0.046620 0.841202 -0.374874
H67   H     H_    0.051182 0.142702 0.828741 0.136190
H68   H     H_    0.072578 0.991921 0.802695 0.200788
H69   H     H_    0.987309 0.026283 0.833419 0.148425
H70   H     H_    0.049145 0.926797 0.932736 0.139278
H71   H     H_    0.030640 0.081861 0.947845 0.149087
C119  C     C_3   0.938519 0.989411 0.074108 -0.240376
C120  C     C_3   0.967209 0.031387 0.146246 -0.365171
H72   H     H_    0.976341 0.129242 0.145618 0.149458
H73   H     H_    0.932525 0.005854 0.190540 0.185333
H74   H     H_    0.019022 0.989122 0.156403 0.144683
H75   H     H_    0.939535 0.891625 0.069080 0.162058
H76   H     H_    0.977464 0.021854 0.036655 0.102429
C121  C     C_3   0.674473 0.659189 0.908032 -0.219515
C122  C     C_3   0.703201 0.644009 0.832021 -0.430105
H77   H     H_    0.756819 0.605969 0.833056 0.117503
H78   H     H_    0.669736 0.590733 0.796397 0.162838
H79   H     H_    0.709456 0.731239 0.805832 0.164884
H80   H     H_    0.634870 0.731599 0.907794 0.169183
H81   H     H_    0.720593 0.692179 0.937466 0.197994
C123  C     C_3   0.340383 0.655792 0.082577 -0.215252
C124  C     C_3   0.330271 0.662833 0.163609 -0.434299
H82   H     H_    0.283222 0.717133 0.175801 0.143100
H83   H     H_    0.320716 0.576937 0.189007 0.161663
H84   H     H_    0.375900 0.706153 0.190084 0.156061
H85   H     H_    0.377821 0.726657 0.066830 0.175655
H86   H     H_    0.287878 0.678799 0.061410 0.192259
C125  C     C_3   0.174411 0.159140 0.908075 -0.219281
C126  C     C_3   0.203151 0.143979 0.832070 -0.430670
H87   H     H_    0.256771 0.105949 0.833108 0.117306
H88   H     H_    0.169690 0.090717 0.796436 0.162589
H89   H     H_    0.209407 0.231216 0.805894 0.164980
H90   H     H_    0.134794 0.231528 0.907835 0.169099
H91   H     H_    0.220524 0.192160 0.937507 0.198041
C127  C     C_3   0.840186 0.155859 0.082646 -0.215247
C128  C     C_3   0.829933 0.162832 0.163661 -0.434223
H92   H     H_    0.783082 0.217649 0.175775 0.142939
H93   H     H_    0.819923 0.077010 0.188958 0.161491
H94   H     H_    0.875638 0.205589 0.190302 0.155866
H95   H     H_    0.877603 0.226801 0.066986 0.175724
H96   H     H_    0.787696 0.178774 0.061411 0.192208

loop_
_geom_bond_atom_site_label_1
_geom_bond_atom_site_label_2
_geom_bond_distance
_ccdc_geom_bond_type
C56   N2    1.437653 S    
C113  H60   1.107878 S    
O4    C12   1.277894 A    
C73   C74   1.395950 A    
O39   C19   1.284565 A    
C45   C61   1.395105 A    
C107  H51   1.109780 S    
C115  H66   1.089375 S    
C83   C99   1.406490 A    
C124  H84   1.108806 S    
C105  H49   1.110749 S    
C81   C97   1.404328 A    
O25   C21   1.268505 A    
C31   H3    1.082722 S    
O21   C9    1.273385 A    
C90   C106  1.498969 S    
C122  H77   1.107405 S    
C25   C30   1.343262 D    
C65   C69   1.401914 A    
C123  H85   1.108016 S    
O44   Cr12  2.066426 S    
C27   C32   1.343263 D    
C3    O11   1.279808 A    
C94   C110  1.408045 A    
C68   C72   1.389570 A    
N4    O60   1.299136 A    
C67   C71   1.402416 A    
C83   C87   1.402337 A    
C84   C100  1.413434 A    
O2    C10   1.278015 A    
C23   C111  1.454446 S    
C41   C61   1.380412 A    
C113  C114  1.533350 S    
O17   Cr9   2.065091 S    
C42   C58   1.506472 S    
C102  H42   1.110771 S    
C36   C52   1.409391 A    
Cr7   O51   2.008382 S    
O9    Cr5   2.076166 S    
O31   Cr3   1.964269 S    
O16   Cr8   1.948836 S    
C126  H89   1.100392 S    
C90   C110  1.400138 A    
C57   C113  1.559602 S    
O13   C5    1.294293 A    
O28   Cr4   2.087106 S    
C69   C77   1.507643 S    
O12   Cr8   2.076179 S    
C20   C67   1.440241 S    
C108  H56   1.110711 S    
O15   C7    1.294286 A    
C98   H38   1.080595 S    
O46   Cr10  1.948960 S    
O48   C24   1.277736 A    
C17   O41   1.277856 A    
C82   C86   1.392605 A    
C102  C106  1.511318 S    
C104  H44   1.103978 S    
C73   H21   1.079292 S    
C26   C29   1.344168 D    
C14   C83   1.459244 S    
Cr12  O52   2.009668 S    
C97   H37   1.079344 S    
C47   C51   1.388929 A    
C19   O43   1.278867 A    
C121  H80   1.108731 S    
C20   O44   1.273197 A    
C94   H34   1.081654 S    
C47   H11   1.081627 S    
Cr8   O52   2.011679 S    
C127  C128  1.539892 S    
C75   H23   1.081620 S    
C76   H24   1.082398 S    
C55   C59   1.548434 S    
C53   C57   1.548368 S    
C16   O36   1.266315 A    
C91   C111  1.391827 A    
C71   C72   1.360662 A    
C54   C58   1.551711 S    
C93   H33   1.079381 S    
C46   H10   1.081961 S    
O31   C15   1.278835 A    
O16   C8    1.291958 A    
O32   C16   1.287667 A    
C95   H35   1.080037 S    
C115  C116  1.531865 S    
O47   Cr11  1.946493 S    
C66   C73   1.404291 A    
C91   C107  1.489865 S    
C80   H26   1.109338 S    
C85   C101  1.500095 S    
C24   C112  1.452527 S    
O46   C22   1.280355 A    
O24   C12   1.271746 A    
C101  H45   1.111874 S    
C119  H75   1.099793 S    
O30   C14   1.287273 A    
C116  H62   1.109599 S    
C120  H74   1.110232 S    
C10   C62   1.449374 S    
O8    Cr4   1.968834 S    
N2    O55   1.300376 A    
C46   C50   1.395875 A    
O32   Cr4   1.962013 S    
C96   H36   1.083151 S    
C1    O9    1.279928 A    
O11   Cr7   2.076166 S    
C88   C104  1.498476 S    
C54   N4    1.437701 S    
C48   H12   1.081957 S    
O27   Cr3   2.083670 S    
O3    Cr3   2.083627 S    
C65   C74   1.403446 A    
C38   C42   1.395351 A    
C46   C62   1.396390 A    
C104  C108  1.512069 S    
C105  H53   1.112297 S    
C68   C75   1.408002 A    
Cr5   O49   2.008382 S    
C8    C28   1.470611 S    
C55   N1    1.431316 S    
O22   C10   1.271740 A    
C4    O12   1.285290 A    
C103  H43   1.105839 S    
C123  C124  1.539881 S    
C2    O10   1.285268 A    
C11   C63   1.435116 S    
C71   C79   1.508521 S    
C92   C108  1.490848 S    
C125  H91   1.097540 S    
C126  H88   1.096621 S    
O5    C1    1.281847 A    
C44   C60   1.506406 S    
O3    C11   1.268133 A    
O8    C4    1.280684 A    
C34   C50   1.409406 A    
C42   C62   1.388240 A    
N3    O58   1.299850 A    
C95   C111  1.409369 A    
Cr1   O49   1.979218 S    
C38   C54   1.500699 S    
Cr3   O51   1.979218 S    
C29   H1    1.082715 S    
C40   C44   1.395476 A    
O26   Cr2   2.087106 S    
C5    O17   1.285190 A    
C114  H57   1.109823 S    
O27   C23   1.268805 A    
O28   C24   1.265749 A    
O14   C6    1.291942 A    
C35   C39   1.423817 A    
C70   C78   1.489861 S    
C8    O20   1.287564 A    
C118  H67   1.109824 S    
C116  H64   1.110195 S    
C120  H72   1.109602 S    
C124  H83   1.089428 S    
C21   C109  1.453450 S    
O40   Cr8   1.953749 S    
C127  H95   1.107924 S    
O41   Cr9   2.066183 S    
C43   C63   1.380456 A    
C81   C85   1.401949 A    
C32   H4    1.083513 S    
O33   Cr5   2.072781 S    
C122  H78   1.096635 S    
O42   Cr10  2.066426 S    
C123  H86   1.103709 S    
O29   Cr1   1.964269 S    
C77   H27   1.106939 S    
C93   C97   1.405048 A    
C78   H28   1.109387 S    
C125  H90   1.108741 S    
Cr9   O49   2.012854 S    
C114  H59   1.110594 S    
C18   O42   1.273275 A    
Cr11  O51   2.012854 S    
O26   C22   1.265706 A    
O20   Cr12  2.067015 S    
C122  H79   1.100430 S    
C57   C121  1.582710 S    
N3    O57   1.300056 A    
C35   C51   1.406680 A    
C77   C78   1.505761 S    
C106  H50   1.106977 S    
C5    C25   1.469205 S    
C19   C68   1.436641 S    
C82   C98   1.409531 A    
C96   C100  1.402264 A    
C15   C82   1.454627 S    
O38   C18   1.293394 A    
C4    C33   1.485771 S    
C100  H40   1.081395 S    
C30   H2    1.083519 S    
C12   C64   1.449243 S    
C86   C90   1.370525 A    
C89   C105  1.490311 S    
C33   C37   1.423837 A    
C13   C84   1.455101 S    
C1    C36   1.483468 S    
C79   C80   1.506890 S    
C93   C109  1.409693 A    
C84   C88   1.397422 A    
C99   H39   1.081488 S    
C113  H61   1.105154 S    
C79   H31   1.111700 S    
O18   Cr10  2.067015 S    
C103  C107  1.510385 S    
C118  H69   1.110600 S    
C101  H41   1.107680 S    
O34   Cr6   2.069066 S    
C115  H65   1.099667 S    
O6    Cr2   1.968834 S    
O24   Cr12  1.948767 S    
O30   Cr2   1.962013 S    
O48   Cr12  1.948960 S    
C49   H13   1.073475 S    
C128  H93   1.089353 S    
C117  H70   1.107851 S    
C128  H92   1.109865 S    
O37   C17   1.286762 A    
C56   H20   1.113255 S    
C15   O35   1.269518 A    
Cr10  O50   2.009668 S    
C47   C63   1.395097 A    
O40   C20   1.294040 A    
O43   Cr11  2.066183 S    
C48   C64   1.396343 A    
O37   Cr5   1.953948 S    
O21   Cr9   1.948478 S    
C87   C91   1.372204 A    
O39   Cr7   1.953948 S    
O45   Cr9   1.946493 S    
C75   C76   1.397806 A    
C13   O33   1.272960 A    
C3    C34   1.483352 S    
O13   Cr5   1.952054 S    
N4    O59   1.300378 A    
C6    C26   1.470622 S    
O23   Cr11  1.948478 S    
O29   C13   1.277568 A    
O15   Cr7   1.952054 S    
O35   Cr7   2.072781 S    
C59   C117  1.559588 S    
O23   C11   1.273368 A    
C103  H47   1.111803 S    
C74   H22   1.080875 S    
C92   C112  1.396221 A    
O6    C2    1.280703 A    
C44   C64   1.388150 A    
C58   C115  1.549215 S    
O1    Cr1   2.083627 S    
O19   Cr11  2.065091 S    
C119  H76   1.089422 S    
C126  H87   1.107399 S    
C107  H55   1.111948 S    
C120  H73   1.105149 S    
O45   C21   1.275355 A    
N2    O56   1.299126 A    
C80   H32   1.112123 S    
O47   C23   1.275150 A    
C58   C123  1.578229 S    
C79   H25   1.107137 S    
C40   C56   1.500814 S    
C60   C119  1.549262 S    
C36   C40   1.415214 A    
C6    O18   1.287587 A    
C53   H17   1.107909 S    
O36   Cr8   2.069066 S    
O38   Cr6   1.953749 S    
O22   Cr10  1.948767 S    
C29   C30   1.477903 S    
C25   H6    1.085112 S    
C31   C32   1.477915 S    
C86   C102  1.490294 S    
C27   H8    1.085102 S    
C54   H18   1.113250 S    
O1    C9    1.268121 A    
C43   C59   1.506720 S    
O7    C3    1.281894 A    
C121  H81   1.097564 S    
C41   C57   1.506703 S    
C102  H46   1.112286 S    
C77   H29   1.111675 S    
C45   C49   1.388951 A    
C28   H7    1.084979 S    
C125  C126  1.545112 S    
C101  C105  1.511368 S    
C7    O19   1.285201 A    
C108  H52   1.103819 S    
Cr4   O52   1.979151 S    
O2    Cr2   2.081693 S    
C18   C65   1.439175 S    
C37   C41   1.398673 A    
C106  H54   1.111823 S    
Cr6   O50   2.011679 S    
O5    Cr1   1.965936 S    
C96   C112  1.403394 A    
C2    C35   1.485716 S    
C56   C60   1.551679 S    
C16   C81   1.456381 S    
C128  H94   1.108569 S    
C95   C99   1.405432 A    
C114  H58   1.098752 S    
C104  H48   1.111060 S    
C89   C109  1.391903 A    
C118  H68   1.098742 S    
C116  H63   1.105165 S    
C85   C89   1.370471 A    
O7    Cr3   1.965936 S    
C124  H82   1.110018 S    
C28   C31   1.344161 D    
C87   C103  1.499633 S    
C88   C92   1.374057 A    
C26   H5    1.084992 S    
C127  H96   1.103654 S    
C117  H71   1.104998 S    
C17   C66   1.435888 S    
C121  C122  1.545164 S    
C33   C49   1.406668 A    
Cr2   O50   1.979151 S    
N1    O54   1.299852 A    
C37   C53   1.504046 S    
O14   Cr6   1.948836 S    
C39   C55   1.504057 S    
C7    C27   1.469214 S    
C50   H14   1.073468 S    
C117  C118  1.533364 S    
N1    O53   1.300076 A    
O25   Cr1   2.083670 S    
C45   H9    1.081626 S    
C53   N3    1.431249 S    
C78   H30   1.112364 S    
C22   C110  1.457867 S    
C14   O34   1.268381 A    
C67   C76   1.404735 A    
C59   C125  1.582708 S    
C60   C127  1.578220 S    
O10   Cr6   2.076179 S    
O4    Cr4   2.081693 S    
C119  C120  1.531757 S    
C94   C98   1.405950 A    
C9    C61   1.435095 S    
C72   C80   1.489490 S    
C34   C38   1.415003 A    
C66   C70   1.390630 A    
C51   H15   1.073488 S    
C52   H16   1.073478 S    
C39   C43   1.398648 A    
C69   C70   1.361815 A    
C48   C52   1.395815 A    
C55   H19   1.108009 S    
