data_mof_unit_42160.cif
_audit_creation_date              2012-12-10T17:24:51-0500
_audit_creation_method            fapswitch 2.2
_symmetry_space_group_name_H-M    P1
_symmetry_Int_Tables_number       1
_space_group_crystal_system       triclinic
_cell_length_a                    10.271807
_cell_length_b                    10.795011
_cell_length_c                    19.156566
_cell_angle_alpha                 94.016233
_cell_angle_beta                  79.534297
_cell_angle_gamma                 96.374798
_cell_volume                      2073.2037495

loop_
_atom_site_label
_atom_site_type_symbol
_atom_type_description
_atom_site_fract_x
_atom_site_fract_y
_atom_site_fract_z
_atom_type_partial_charge
C1    C     C_R   0.556828 0.731902 0.494634 0.906459
C2    C     C_R   0.502575 0.500277 0.365278 0.862887
C3    C     C_R   0.419544 0.566487 0.762318 -0.019146
C4    C     C_R   0.613834 0.458130 0.239395 -0.002689
C5    C     C_R   0.444953 0.576420 0.831428 -0.237728
C6    C     C_R   0.623044 0.475233 0.167655 -0.247670
C7    C     C_R   0.542505 0.512042 0.850637 0.037064
C8    C     C_R   0.531061 0.539656 0.143460 0.050605
C9    C     C_R   0.615533 0.432787 0.800310 0.112691
C10   C     C_R   0.429069 0.593056 0.191897 0.115044
C11   C     C_R   0.590281 0.423512 0.730970 -0.247142
C12   C     C_R   0.443654 0.267213 0.505393 0.868332
C13   C     C_R   0.421193 0.577215 0.264421 -0.276827
C14   C     C_R   0.496846 0.493195 0.710679 -0.112211
C15   C     C_R   0.511588 0.509309 0.288639 -0.101903
C16   C     C_R   0.537894 0.535480 0.067173 0.276591
C17   C     C_R   0.554031 0.521574 0.925223 0.274088
C18   C     C_R   0.307040 0.629371 0.749152 0.148294
C19   C     C_R   0.310255 0.759628 0.759260 -0.175229
C20   C     C_R   0.193651 0.817384 0.764532 -0.124191
C21   C     C_R   0.073546 0.745669 0.759331 -0.116595
C22   C     C_R   0.070408 0.616264 0.747650 -0.160783
C23   C     C_2   0.591709 0.858796 0.475442 -0.161969
C24   C     C_R   0.186732 0.558027 0.742471 -0.098592
C25   C     C_R   0.706808 0.378376 0.259793 0.155636
C26   C     C_R   0.844035 0.415747 0.248718 -0.139637
C27   C     C_R   0.931508 0.338743 0.267437 -0.161908
C28   C     C_R   0.882462 0.224385 0.296781 -0.118548
C29   C     C_R   0.746076 0.187072 0.307574 -0.133072
C30   C     C_R   0.658260 0.263362 0.289106 -0.132141
C31   C     C_3   0.725359 0.362773 0.816706 -0.434178
C32   C     C_3   0.679332 0.223239 0.822818 -0.308110
C33   C     C_3   0.788080 0.152604 0.841366 -0.897400
C34   C     C_2   0.412638 0.135743 0.519437 -0.158169
C35   C     C_3   0.325522 0.663038 0.168650 -0.435938
C36   C     C_3   0.221142 0.573410 0.137843 -0.317057
C37   C     C_3   0.110682 0.643162 0.120384 -0.895714
C38   C     C_R   0.296913 0.095231 0.575268 0.142247
C39   C     C_R   0.255032 0.176487 0.633996 -0.128914
C40   C     C_R   0.142898 0.141581 0.684289 -0.175575
C41   C     C_R   0.073615 0.023948 0.677895 -0.128863
C42   C     C_R   0.117634 0.940624 0.621744 -0.137590
C43   C     C_R   0.225679 0.977019 0.569543 -0.176458
C44   C     C_R   0.667755 0.876978 0.402792 0.125731
C45   C     C_2   0.521333 0.943049 0.514915 -0.232857
C46   C     C_R   0.805421 0.911241 0.392276 -0.155401
C47   C     C_R   0.881114 0.905234 0.323819 -0.170011
C48   C     C_R   0.819474 0.867828 0.265394 -0.112378
C49   C     C_R   0.682000 0.835936 0.275330 -0.134267
C50   C     C_R   0.606379 0.839611 0.343809 -0.173265
C51   C     C_R   0.103990 0.361375 0.461429 0.205973
C52   C     C_R   0.067585 0.248319 0.495278 -0.135967
C53   C     C_R   0.094883 0.135377 0.458029 -0.143232
C54   C     C_R   0.161405 0.134861 0.387607 -0.151471
C55   C     C_R   0.194089 0.246778 0.353040 -0.195715
C56   C     C_2   0.506308 0.062056 0.488323 -0.192026
C57   C     C_R   0.161133 0.359186 0.389132 -0.107897
C58   C     C_R   0.883199 0.615297 0.557470 0.207686
C59   C     C_R   0.845794 0.595675 0.630205 -0.118372
C60   C     C_R   0.794875 0.690905 0.677129 -0.164713
C61   C     C_R   0.785834 0.807470 0.652018 -0.150736
C62   C     C_R   0.831880 0.830188 0.580380 -0.165423
C63   C     C_R   0.884000 0.735204 0.533484 -0.148843
C64   C     C_2   0.927181 0.511716 0.507160 -0.048784
C65   C     C_2   0.068433 0.479741 0.499824 -0.055883
C66   C     C_R   0.497550 0.498232 0.634597 0.857217
H1    H     H_    0.384508 0.632010 0.871460 0.161266
H2    H     H_    0.195921 0.917338 0.774800 0.144425
H3    H     H_    0.982668 0.790208 0.765448 0.125794
H4    H     H_    0.977137 0.560502 0.745358 0.118067
H5    H     H_    0.181783 0.457112 0.737106 0.113431
H6    H     H_    0.882707 0.504390 0.226084 0.134858
H7    H     H_    0.037120 0.367439 0.259176 0.123328
H8    H     H_    0.949982 0.164573 0.310964 0.150870
H9    H     H_    0.707881 0.098897 0.329853 0.155187
H10   H     H_    0.552683 0.233024 0.297563 0.107887
H11   H     H_    0.879222 0.164767 0.800339 0.251132
H12   H     H_    0.700029 0.433470 0.129801 0.153597
H13   H     H_    0.812157 0.187353 0.893959 0.271863
H14   H     H_    0.753382 0.051565 0.843618 0.246399
H15   H     H_    0.589408 0.210111 0.864729 0.238540
H16   H     H_    0.653205 0.182965 0.771530 0.209651
H17   H     H_    0.813123 0.375075 0.773355 0.180641
H18   H     H_    0.760151 0.401553 0.866073 0.214114
H19   H     H_    0.059092 0.691081 0.169149 0.253010
H20   H     H_    0.152542 0.713188 0.080343 0.269834
H21   H     H_    0.036752 0.575969 0.098296 0.249847
H22   H     H_    0.268030 0.523619 0.088598 0.233953
H23   H     H_    0.647914 0.364463 0.691758 0.156327
H24   H     H_    0.176477 0.502902 0.177086 0.212005
H25   H     H_    0.273764 0.717563 0.214863 0.191524
H26   H     H_    0.373954 0.732556 0.129613 0.215384
H27   H     H_    0.308842 0.267015 0.641278 0.126988
H28   H     H_    0.110819 0.205312 0.728657 0.124440
H29   H     H_    0.987770 0.996294 0.717368 0.125048
H30   H     H_    0.068885 0.847167 0.618705 0.158500
H31   H     H_    0.253122 0.912815 0.524613 0.149762
H32   H     H_    0.854516 0.939931 0.436910 0.118734
H33   H     H_    0.987575 0.929575 0.315993 0.122498
H34   H     H_    0.344054 0.618308 0.302260 0.150925
H35   H     H_    0.878194 0.863673 0.212469 0.129149
H36   H     H_    0.634391 0.806547 0.230110 0.146176
H37   H     H_    0.500631 0.810582 0.351190 0.129021
H38   H     H_    0.017596 0.247723 0.550172 0.127206
H39   H     H_    0.064630 0.048243 0.483735 0.134385
H40   H     H_    0.184955 0.047575 0.359373 0.121615
H41   H     H_    0.241761 0.246116 0.297788 0.133694
H42   H     H_    0.179951 0.444378 0.360763 0.129190
H43   H     H_    0.851168 0.505119 0.649833 0.109697
H44   H     H_    0.761881 0.674170 0.732903 0.141743
H45   H     H_    0.583408 0.096683 0.445552 0.173594
H46   H     H_    0.746019 0.880962 0.688310 0.130002
H47   H     H_    0.828618 0.921793 0.561634 0.135005
H48   H     H_    0.919955 0.753205 0.478091 0.126199
H49   H     H_    0.466445 0.918526 0.567017 0.172220
H50   H     H_    0.130004 0.633248 0.554781 0.160140
H51   H     H_    0.875285 0.377919 0.436145 0.175860
H52   H     H_    0.401599 0.815474 0.766585 0.126690
N1    N     N_R   0.550572 0.416787 0.960510 -0.179127
N2    N     N_R   0.542249 0.640653 0.032017 -0.185239
N3    N     N_R   0.543863 0.423824 0.030367 -0.180656
N4    N     N_R   0.549133 0.633591 0.961990 -0.182799
N5    N     N_2   0.842710 0.448880 0.471430 -0.210567
N6    N     N_2   0.157290 0.551120 0.528570 -0.213325
O1    O     O_R   0.431050 0.692470 0.505750 -0.618061
O2    O     O_R   0.568950 0.307530 0.494250 -0.613853
O3    O     O_R   0.651120 0.659650 0.487410 -0.589424
O4    O     O_R   0.348880 0.340350 0.512590 -0.592142
O5    O     O_R   0.389930 0.516430 0.611030 -0.612762
O6    O     O_R   0.610070 0.483570 0.388970 -0.592310
O7    O     O_R   0.610000 0.483610 0.592700 -0.600948
O8    O     O_R   0.390000 0.516390 0.407300 -0.620533
Zn1   Zn    Zn3+2 0.353060 0.521920 0.512240 0.941606
Zn2   Zn    Zn3+2 0.646940 0.478080 0.487760 0.961371

loop_
_geom_bond_atom_site_label_1
_geom_bond_atom_site_label_2
_ccdc_geom_bond_type
C34   C56   D    
C23   C45   D    
C26   H6    S    
C41   C42   A    
C19   C20   A    
O3    Zn2   S    
C5    H1    S    
O7    Zn2   S    
C28   H8    S    
C4    C25   S    
C31   H17   S    
C41   H29   S    
C53   C54   A    
C36   H22   S    
C32   H15   S    
C26   C27   A    
C29   C30   A    
N6    Zn1   S    
C42   H30   S    
C37   H19   S    
C28   C29   A    
C1    O1    A    
C16   N2    A    
C38   C39   A    
C11   C14   A    
C6    H12   S    
C12   O2    A    
O1    Zn1   S    
C25   C30   A    
C47   H33   S    
C3    C18   S    
C18   C19   A    
C51   C65   S    
C65   N6    D    
C11   H23   S    
C39   H27   S    
C44   C50   A    
C59   H43   S    
C46   C47   A    
C63   H48   S    
C31   C32   S    
C19   H52   S    
C44   C46   A    
O8    Zn1   S    
C7    C17   S    
C2    O8    A    
C10   C35   S    
C51   C57   A    
C56   H45   S    
C66   O5    A    
C35   H26   S    
C46   H32   S    
C50   H37   S    
C8    C16   S    
C21   C22   A    
O6    Zn2   S    
N2    N4    A    
N1    N3    A    
C58   C64   S    
C54   H40   S    
N5    Zn2   S    
C51   C52   A    
C1    O3    A    
C37   H20   S    
C45   C56   S    
C62   H47   S    
C4    C6    A    
C49   H36   S    
C5    C7    A    
C9    C31   S    
C33   H13   S    
C6    C8    A    
C25   C26   A    
C31   H18   S    
C55   H41   S    
C60   C61   A    
C35   C36   S    
C16   N3    A    
C62   C63   A    
C30   H10   S    
C45   H49   S    
C47   C48   A    
C14   C66   S    
C2    C15   S    
C9    C11   A    
C3    C14   A    
O5    Zn1   S    
C8    C10   A    
C48   C49   A    
C1    C23   S    
C55   C57   A    
C18   C24   A    
C42   C43   A    
C12   C34   S    
C39   C40   A    
C52   C53   A    
C66   O7    A    
C36   H24   S    
C58   C63   A    
C7    C9    A    
C54   C55   A    
C52   H38   S    
H50   N6    S    
C34   C38   S    
C20   H2    S    
C37   H21   S    
C43   H31   S    
C40   H28   S    
C3    C5    A    
C10   C13   A    
C33   H14   S    
C12   O4    A    
C64   N5    D    
C32   H16   S    
C64   C65   S    
C13   H34   S    
C13   C15   A    
C58   C59   A    
C38   C43   A    
O4    Zn1   S    
C32   C33   S    
C33   H11   S    
C29   H9    S    
C4    C15   A    
C48   H35   S    
C2    O6    A    
C22   C24   A    
H51   N5    S    
C61   C62   A    
C60   H44   S    
C17   N1    A    
C53   H39   S    
C17   N4    A    
C59   C60   A    
C57   H42   S    
C20   C21   A    
O2    Zn2   S    
C36   C37   S    
C49   C50   A    
C21   H3    S    
C27   C28   A    
C40   C41   A    
C27   H7    S    
C61   H46   S    
C22   H4    S    
C24   H5    S    
C23   C44   S    
C35   H25   S    
