data_mof_unit_41648.cif
_audit_creation_date              2012-12-10T17:18:54-0500
_audit_creation_method            fapswitch 2.2
_symmetry_space_group_name_H-M    P1
_symmetry_Int_Tables_number       1
_space_group_crystal_system       triclinic
_cell_length_a                    10.172376
_cell_length_b                    10.816741
_cell_length_c                    13.907099
_cell_angle_alpha                 92.323087
_cell_angle_beta                  102.649985
_cell_angle_gamma                 95.561892
_cell_volume                      1483.04332866

loop_
_atom_site_label
_atom_site_type_symbol
_atom_type_description
_atom_site_fract_x
_atom_site_fract_y
_atom_site_fract_z
_atom_type_partial_charge
C1    C     C_R   0.054317 0.732480 0.496643 0.930869
C2    C     C_2   0.028521 0.069468 0.531962 -0.068572
C3    C     C_2   0.431285 0.510687 0.511258 -0.030411
C4    C     C_2   0.570393 0.475966 0.509378 0.016212
C5    C     C_R   0.096194 0.512363 0.685125 0.876224
C6    C     C_R   0.902564 0.481866 0.314470 0.869490
C7    C     C_R   0.145410 0.499354 0.790226 -0.082793
C8    C     C_R   0.842298 0.443050 0.210129 -0.087415
C9    C     C_R   0.108006 0.493114 0.955273 -0.178698
C10   C     C_R   0.851736 0.333743 0.055875 -0.179415
C11   C     C_R   0.063349 0.517965 0.857071 -0.182451
C12   C     C_R   0.948709 0.268111 0.509194 0.958112
C13   C     C_R   0.915206 0.381740 0.151407 -0.186695
C14   C     C_R   0.271421 0.455410 0.822113 -0.117055
C15   C     C_R   0.704802 0.450697 0.173302 -0.133185
C16   C     C_R   0.311589 0.417406 0.917525 0.097610
C17   C     C_R   0.636195 0.387579 0.083780 0.146893
C18   C     C_R   0.231627 0.443810 0.985923 0.082117
C19   C     C_R   0.712479 0.339382 0.020623 0.088612
C20   C     C_R   0.437037 0.368127 0.949987 -0.152600
C21   C     C_R   0.494180 0.380611 0.052360 -0.119381
C22   C     C_R   0.406097 0.387094 0.118017 0.490264
C23   C     C_R   0.510469 0.310047 0.887277 0.392986
C24   C     C_R   0.276876 0.421579 0.084386 -0.290805
C25   C     C_R   0.647637 0.295719 0.924362 -0.267931
C26   C     C_2   0.089930 0.865396 0.504173 -0.340120
C27   C     C_2   0.924559 0.137447 0.523791 -0.363574
C28   C     C_2   0.005638 0.937257 0.534402 -0.149095
H1    H     H_    0.213606 0.435059 0.136195 0.178355
H2    H     H_    0.913101 0.898652 0.554309 0.189607
H3    H     H_    0.823443 0.096577 0.526184 0.162186
H4    H     H_    0.182079 0.904469 0.484103 0.172816
H5    H     H_    0.580750 0.385400 0.477210 0.181239
H6    H     H_    0.421621 0.593160 0.555162 0.136919
H7    H     H_    0.663102 0.640271 0.566364 0.160845
H8    H     H_    0.335057 0.363703 0.426441 0.246945
H9    H     H_    0.601675 0.247123 0.330332 0.370436
H10   H     H_    0.254728 0.143418 0.816440 0.359150
H11   H     H_    0.704350 0.251876 0.877487 0.192222
H12   H     H_    0.651063 0.504929 0.215491 0.198711
H13   H     H_    0.338786 0.452525 0.772349 0.205472
H14   H     H_    0.020280 0.369187 0.179905 0.180251
H15   H     H_    0.965539 0.552285 0.833714 0.167533
H16   H     H_    0.046400 0.512917 0.007213 0.151849
H17   H     H_    0.910789 0.290747 0.010382 0.157707
H18   H     H_    0.129887 0.109870 0.529494 0.222390
N1    N     N_2   0.322180 0.446120 0.460900 -0.157773
N2    N     N_2   0.677820 0.553880 0.539100 -0.205598
O1    O     O_R   0.935190 0.693030 0.507870 -0.613566
O2    O     O_2   0.319608 0.261837 0.257214 -0.326007
O3    O     O_3   0.573428 0.249599 0.257680 -0.546389
O4    O     O_2   0.457649 0.304767 0.689463 -0.312561
O5    O     O_2   0.493006 0.107803 0.764890 -0.291631
O6    O     O_3   0.263937 0.195376 0.760761 -0.545876
O7    O     O_R   0.064810 0.306970 0.492130 -0.593542
O8    O     O_R   0.142080 0.658430 0.482770 -0.610670
O9    O     O_R   0.857920 0.341570 0.517230 -0.615517
O10   O     O_R   0.969700 0.527180 0.651960 -0.613555
O11   O     O_R   0.030300 0.472820 0.348040 -0.602375
O12   O     O_R   0.176600 0.492580 0.626860 -0.599130
O13   O     O_R   0.823400 0.507420 0.373140 -0.582802
O14   O     O_2   0.475542 0.452409 0.305863 -0.395064
S1    S     S_3+6 0.442865 0.336760 0.238498 -0.036278
S2    S     S_3+6 0.432001 0.228000 0.772473 0.001431
Zn1   Zn    Zn3+2 0.861850 0.523100 0.516760 0.978413
Zn2   Zn    Zn3+2 0.138150 0.476900 0.483240 1.014665

loop_
_geom_bond_atom_site_label_1
_geom_bond_atom_site_label_2
_ccdc_geom_bond_type
C6    C8    S    
C26   H4    S    
C2    C27   D    
N2    Zn1   S    
C5    C7    S    
C5    O12   A    
N1    Zn2   S    
C26   C28   D    
O10   Zn1   S    
H10   O6    S    
C20   C23   A    
C10   C19   A    
C16   C20   A    
C10   H17   S    
C28   H2    S    
O12   Zn2   S    
C21   C22   A    
C25   H11   S    
C7    C11   A    
O2    S1    D    
C9    C11   A    
O14   S1    D    
O1    Zn1   S    
C5    O10   A    
C14   H13   S    
O8    Zn2   S    
H7    N2    S    
C6    O11   A    
C6    O13   A    
C3    N1    D    
C23   S2    S    
C17   C19   A    
C1    O8    A    
C8    C15   A    
C14   C16   A    
C23   C25   A    
O11   Zn2   S    
C4    N2    D    
C1    C26   S    
H9    O3    S    
O5    S2    D    
C18   C24   A    
C15   H12   S    
C12   O7    A    
C12   O9    A    
C19   C25   A    
C27   H3    S    
C3    C4    S    
C8    C13   A    
O13   Zn1   S    
C9    C18   A    
O7    Zn2   S    
O3    S1    S    
C20   C21   A    
O6    S2    S    
H8    N1    S    
C16   C18   A    
O4    S2    D    
C22   C24   A    
C15   C17   A    
C4    H5    S    
C13   H14   S    
C9    H16   S    
C2    C28   S    
C12   C27   S    
C3    H6    S    
C22   S1    S    
C24   H1    S    
C1    O1    A    
C11   H15   S    
C7    C14   A    
C2    H18   S    
O9    Zn1   S    
C10   C13   A    
C17   C21   A    
