data_mof_unit_19878.cif
_audit_creation_date              2012-10-26T20:52:51-0400
_audit_creation_method            fapswitch 2.2
_symmetry_space_group_name_H-M    P1
_symmetry_Int_Tables_number       1
_space_group_crystal_system       triclinic
_cell_length_a                    13.39779
_cell_length_b                    14.739975
_cell_length_c                    16.00069
_cell_angle_alpha                 89.801419
_cell_angle_beta                  89.653465
_cell_angle_gamma                 71.856975
_cell_volume                      3002.70494102

loop_
_atom_site_label
_atom_site_type_symbol
_atom_type_description
_atom_site_fract_x
_atom_site_fract_y
_atom_site_fract_z
_atom_type_partial_charge
C1    C     C_R   0.499927 0.499907 0.659143 0.547800
C2    C     C_R   0.817773 0.417382 0.512007 -0.037830
C3    C     C_R   0.475844 0.425511 0.045399 0.273582
C4    C     C_R   0.701341 0.449006 0.505303 0.620127
C5    C     C_R   0.497347 0.500521 0.087617 -0.036329
C6    C     C_R   0.521269 0.573623 0.043376 0.216948
C7    C     C_R   0.519572 0.573687 0.955106 0.232242
C8    C     C_R   0.497909 0.498419 0.912883 -0.016811
C9    C     C_R   0.474691 0.424327 0.957896 0.208508
C10   C     C_1   0.496458 0.501514 0.177188 0.018430
C11   C     C_1   0.498676 0.499232 0.823105 0.010622
C12   C     C_R   0.978024 0.463590 0.513755 -0.045173
C13   C     C_1   0.499355 0.499708 0.748123 0.000018
C14   C     C_1   0.497397 0.501233 0.252077 -0.009119
C15   C     C_R   0.517891 0.044042 0.423571 0.258427
C16   C     C_R   0.499181 0.500367 0.340928 0.539481
C17   C     C_R   0.498793 0.097456 0.498237 -0.040731
C18   C     C_R   0.480251 0.053383 0.572125 -0.180881
C19   C     C_R   0.482441 0.956583 0.573160 0.217678
C20   C     C_R   0.497725 0.903639 0.498374 -0.012849
C21   C     C_R   0.513088 0.948381 0.422934 0.237958
C22   C     C_1   0.499283 0.197471 0.499417 0.193633
C23   C     C_R   0.870758 0.483704 0.534420 -0.080517
C24   C     C_1   0.499154 0.802950 0.499361 0.203860
C25   C     C_R   0.299036 0.550991 0.506756 0.544235
C26   C     C_R   0.011490 0.703970 0.533017 0.304341
C27   C     C_R   0.184196 0.582179 0.522072 -0.056379
C28   C     C_R   0.877072 0.324130 0.486525 0.212402
C29   C     C_R   0.984692 0.303221 0.468376 0.257387
C30   C     C_R   0.031355 0.376174 0.473076 0.278187
C31   C     C_3   0.538079 0.279091 0.105844 0.004988
C32   C     C_3   0.508863 0.207528 0.161819 -0.346431
C33   C     C_3   0.646805 0.625529 0.103453 -0.028029
C34   C     C_R   0.026749 0.534648 0.528783 -0.031633
C35   C     C_3   0.665034 0.703622 0.157386 -0.349377
C36   C     C_3   0.432765 0.893909 0.316544 -0.013201
C37   C     C_3   0.390402 0.972965 0.252271 -0.392042
C38   C     C_3   0.544481 0.907321 0.704042 -0.021073
C39   C     C_3   0.543787 0.832413 0.769513 -0.334424
C40   C     C_3   0.856912 0.182053 0.529191 0.019683
C41   C     C_3   0.766452 0.141942 0.543212 -0.347802
C42   C     C_3   0.111925 0.397195 0.352288 -0.003815
C43   C     C_3   0.218138 0.383846 0.310982 -0.334906
C44   C     C_3   0.119825 0.164547 0.486383 0.001140
C45   C     C_R   0.964631 0.630464 0.541314 0.003981
C46   C     C_3   0.172562 0.065860 0.449978 -0.367927
C47   C     C_R   0.859379 0.648513 0.567151 0.266972
C48   C     C_R   0.819544 0.570583 0.576154 0.243991
C49   C     C_R   0.135374 0.511803 0.537264 0.227794
C50   C     C_R   0.121371 0.679447 0.519937 0.161562
Cu1   Cu    Cu3+1 0.499970 0.410790 0.500000 1.023046
Cu2   Cu    Cu3+1 0.500030 0.589210 0.500000 1.033606
H1    H     H_    0.464446 0.094245 0.629515 0.128897
H2    H     H_    0.622169 0.708461 0.217683 0.181776
H3    H     H_    0.750196 0.687041 0.170294 0.108764
H4    H     H_    0.636722 0.773435 0.124587 0.162784
H5    H     H_    0.546086 0.696604 0.945697 0.353132
H6    H     H_    0.371381 0.897867 0.365107 0.120864
H7    H     H_    0.447050 0.824242 0.284554 0.175374
H8    H     H_    0.450459 0.969040 0.203092 0.160340
H9    H     H_    0.319036 0.964695 0.222608 0.123039
H10   H     H_    0.369087 0.043910 0.282964 0.160177
H11   H     H_    0.561768 0.039888 0.306780 0.356940
H12   H     H_    0.215790 0.745678 0.554947 0.342003
H13   H     H_    0.531664 0.976858 0.736118 0.138571
H14   H     H_    0.623531 0.885222 0.673560 0.153176
H15   H     H_    0.556950 0.761962 0.739114 0.190285
H16   H     H_    0.607214 0.826327 0.815582 0.110366
H17   H     H_    0.467064 0.852886 0.802854 0.181058
H18   H     H_    0.723956 0.744892 0.583108 0.319947
H19   H     H_    0.991889 0.841628 0.531914 0.357249
H20   H     H_    0.242160 0.431424 0.609460 0.324386
H21   H     H_    0.878250 0.205079 0.591244 0.103975
H22   H     H_    0.924577 0.123653 0.504422 0.173337
H23   H     H_    0.599056 0.302536 0.138563 0.115936
H24   H     H_    0.740928 0.119914 0.482737 0.191029
H25   H     H_    0.791694 0.078817 0.585171 0.107569
H26   H     H_    0.699551 0.196920 0.572941 0.162950
H27   H     H_    0.067024 0.474805 0.351512 0.117212
H28   H     H_    0.069114 0.357419 0.315173 0.151891
H29   H     H_    0.264985 0.306997 0.310617 0.170470
H30   H     H_    0.206878 0.410281 0.245555 0.115288
H31   H     H_    0.261813 0.424476 0.345664 0.184755
H32   H     H_    0.088181 0.155746 0.549411 0.107048
H33   H     H_    0.181183 0.200195 0.493360 0.202202
H34   H     H_    0.571589 0.242704 0.046467 0.167948
H35   H     H_    0.205894 0.072403 0.387360 0.159620
H36   H     H_    0.237155 0.024963 0.491554 0.115555
H37   H     H_    0.114580 0.026408 0.444019 0.170656
H38   H     H_    0.727447 0.628465 0.669410 0.328383
H39   H     H_    0.450402 0.356758 0.858369 0.321399
H40   H     H_    0.449103 0.181459 0.130746 0.163539
H41   H     H_    0.579664 0.145768 0.174495 0.116938
H42   H     H_    0.476434 0.241694 0.222093 0.190670
H43   H     H_    0.692472 0.620679 0.044337 0.142381
H44   H     H_    0.676629 0.556717 0.138124 0.127652
N1    N     N_1   0.499970 0.723300 0.500020 -0.184443
N2    N     N_1   0.500030 0.276700 0.499980 -0.182514
O1    O     O_R   0.499950 0.424690 0.619690 -0.522122
O2    O     O_3   0.447192 0.356809 0.089972 -0.514757
O3    O     O_3   0.538417 0.648545 0.086606 -0.560912
O4    O     O_3   0.538053 0.646040 0.908283 -0.702869
O5    O     O_3   0.529849 0.897077 0.348969 -0.576437
O6    O     O_3   0.540489 0.087368 0.352323 -0.716152
O7    O     O_3   0.463001 0.914334 0.646318 -0.551594
O8    O     O_3   0.799139 0.740104 0.588155 -0.649937
O9    O     O_3   0.948660 0.798311 0.536883 -0.618639
O10   O     O_3   0.189879 0.422978 0.569094 -0.633040
O11   O     O_3   0.826827 0.257024 0.469880 -0.510045
O12   O     O_R   0.500000 0.575360 0.619690 -0.466086
O13   O     O_3   0.127997 0.361939 0.434843 -0.498964
O14   O     O_3   0.038577 0.216231 0.432309 -0.535579
O15   O     O_3   0.736503 0.575169 0.629572 -0.681764
O16   O     O_3   0.449586 0.350137 0.919829 -0.671584
O17   O     O_R   0.650940 0.387890 0.499980 -0.455865
O18   O     O_R   0.650990 0.538570 0.499980 -0.457702
O19   O     O_R   0.500000 0.424640 0.380310 -0.486530
O20   O     O_R   0.500050 0.575310 0.380310 -0.496003
O21   O     O_R   0.349010 0.461430 0.500020 -0.472783
O22   O     O_R   0.349060 0.612110 0.500020 -0.483670
O23   O     O_3   0.165482 0.751371 0.508559 -0.702891

loop_
_geom_bond_atom_site_label_1
_geom_bond_atom_site_label_2
_ccdc_geom_bond_type
C32   H42   S    
C25   O22   A    
C42   H28   S    
C22   N2    T    
H19   O9    S    
C43   H31   S    
C39   H16   S    
C4    O17   A    
C19   C20   A    
C36   H7    S    
C1    O1    A    
C37   H10   S    
C7    C8    A    
C46   H37   S    
H5    O4    S    
C12   C23   A    
C36   O5    S    
C33   O3    S    
C9    O16   S    
C36   C37   S    
C36   H6    S    
C26   C50   A    
C41   H25   S    
C38   C39   S    
C6    O3    S    
H12   O23   S    
C25   O21   A    
Cu2   N1    S    
C40   H21   S    
C18   C19   A    
H38   O15   S    
C20   C24   S    
C29   O14   S    
C26   C45   A    
C33   C35   S    
C3    O2    S    
H20   O10   S    
C8    C9    A    
C7    O4    S    
Cu1   O21   S    
C15   O6    S    
C18   H1    S    
C27   C50   A    
Cu1   N2    S    
Cu2   O18   S    
C32   H41   S    
C42   H27   S    
C31   H34   S    
C35   H2    S    
C50   O23   S    
C33   H43   S    
C44   O14   S    
C44   C46   S    
C49   O10   S    
C46   H36   S    
C45   C47   A    
Cu1   O1    S    
C35   H3    S    
C24   N1    T    
C38   H14   S    
H18   O8    S    
C41   H26   S    
C3    C5    A    
Cu1   O17   S    
Cu1   Cu2   S    
C2    C4    S    
C42   O13   S    
C29   C30   A    
C3    C9    A    
C16   O20   A    
C1    O12   A    
C31   H23   S    
C47   C48   A    
C38   H13   S    
Cu2   O12   S    
C47   O8    S    
C17   C18   A    
C39   H17   S    
C34   C45   A    
C31   O2    S    
C6    C7    A    
Cu2   O22   S    
C40   C41   S    
C10   C14   T    
C43   H29   S    
C14   C16   S    
C1    C13   S    
C42   C43   S    
C12   C34   A    
C44   H33   S    
C33   H44   S    
C19   O7    S    
C46   H35   S    
C15   C17   A    
C28   C29   A    
C34   C49   A    
C23   C48   A    
C12   C30   A    
C35   H4    S    
C39   H15   S    
C4    O18   A    
C31   C32   S    
H11   O6    S    
C44   H32   S    
C26   O9    S    
C37   H9    S    
C40   O11   S    
C28   O11   S    
C25   C27   S    
C17   C22   S    
H39   O16   S    
C30   O13   S    
C38   O7    S    
C5    C10   S    
C16   O19   A    
C41   H24   S    
C11   C13   T    
C32   H40   S    
C8    C11   S    
Cu1   O19   S    
C40   H22   S    
C37   H8    S    
C21   O5    S    
C15   C21   A    
C20   C21   A    
C2    C23   A    
C5    C6    A    
C43   H30   S    
C2    C28   A    
C27   C49   A    
C48   O15   S    
Cu2   O20   S    
