data_mof_unit_45622.cif
_audit_creation_date              2012-10-26T20:51:08-0400
_audit_creation_method            fapswitch 2.2
_symmetry_space_group_name_H-M    P1
_symmetry_Int_Tables_number       1
_space_group_crystal_system       triclinic
_cell_length_a                    12.953283
_cell_length_b                    10.893207
_cell_length_c                    9.6188
_cell_angle_alpha                 89.120177
_cell_angle_beta                  95.059533
_cell_angle_gamma                 93.9362
_cell_volume                      1348.70301094

loop_
_atom_site_label
_atom_site_type_symbol
_atom_type_description
_atom_site_fract_x
_atom_site_fract_y
_atom_site_fract_z
_atom_type_partial_charge
C1    C     C_R   0.498621 0.262138 0.501149 0.540865
C2    C     C_R   0.512566 0.939233 0.374477 -0.133602
C3    C     C_R   0.499260 0.870032 0.496173 0.016451
C4    C     C_R   0.302661 0.515259 0.474161 0.576437
C5    C     C_R   0.477228 0.930313 0.614665 0.005312
C6    C     C_3   0.527769 0.923240 0.758571 -0.253537
C7    C     C_3   0.505745 0.057423 0.770787 -0.129091
C8    C     C_R   0.588282 0.532475 0.083297 0.207822
C9    C     C_R   0.416485 0.455332 0.067976 0.003656
C10   C     C_R   0.413861 0.454838 0.919862 0.081841
C11   C     C_R   0.588923 0.531139 0.936763 0.162369
C12   C     C_R   0.029875 0.551389 0.558266 -0.039983
C13   C     C_3   0.652588 0.650610 0.938148 -0.270677
C14   C     C_3   0.650524 0.652230 0.095525 -0.249053
C15   C     C_R   0.502387 0.737364 0.499093 0.545870
C16   C     C_R   0.699715 0.499464 0.524629 0.567974
C17   C     C_R   0.813851 0.509921 0.535438 0.001335
C18   C     C_R   0.192668 0.543248 0.456669 -0.026269
C19   C     C_R   0.032630 0.551666 0.306103 0.295850
C20   C     C_R   0.141447 0.565041 0.324269 0.239865
C21   C     C_R   0.137884 0.555565 0.573065 -0.171225
C22   C     C_R   0.422707 0.068579 0.872000 0.020429
C23   C     C_R   0.976449 0.530912 0.425046 0.037369
C24   C     C_R   0.444224 0.142080 0.991123 -0.111607
C25   C     C_R   0.369051 0.150817 0.085952 -0.125862
C26   C     C_R   0.272883 0.084974 0.064834 -0.073069
C27   C     C_R   0.250976 0.010149 0.948277 -0.080456
C28   C     C_R   0.324888 0.002109 0.852076 -0.093979
C29   C     C_R   0.311332 0.404270 0.851110 0.043957
C30   C     C_R   0.219062 0.444782 0.896691 -0.137168
C31   C     C_R   0.122827 0.381363 0.862693 -0.110526
C32   C     C_R   0.115332 0.281708 0.772683 -0.098972
C33   C     C_R   0.204878 0.242116 0.722640 -0.117611
C34   C     C_R   0.869439 0.495841 0.416978 0.247244
C35   C     C_R   0.301844 0.299681 0.766562 -0.039597
C36   C     C_R   0.867698 0.544513 0.663152 -0.162532
C37   C     C_R   0.974937 0.562790 0.675145 -0.134305
C38   C     C_R   0.465937 0.055490 0.617328 -0.007028
C39   C     C_R   0.493799 0.127774 0.501533 -0.003257
C40   C     C_R   0.513268 0.067239 0.378587 -0.142270
Cl1   Cl    Cl    0.812246 0.407081 0.273428 -0.562029
Cl2   Cl    Cl    0.970219 0.583447 0.139347 -0.563972
Cl3   Cl    Cl    0.210806 0.637187 0.192298 -0.602569
Cu1   Cu    Cu3+1 0.499990 0.499980 0.640670 0.942201
Cu2   Cu    Cu3+1 0.500010 0.500020 0.359330 1.004144
H1    H     H_    0.612235 0.910242 0.759352 0.123642
H2    H     H_    0.179267 0.566810 0.674525 0.157099
H3    H     H_    0.533874 0.118743 0.286961 0.149846
H4    H     H_    0.528358 0.895693 0.278845 0.140555
H5    H     H_    0.484238 0.857393 0.825171 0.153319
H6    H     H_    0.518566 0.193547 0.009943 0.121175
H7    H     H_    0.385019 0.208751 0.176332 0.130062
H8    H     H_    0.215330 0.092080 0.138812 0.132250
H9    H     H_    0.176367 0.958992 0.931768 0.138538
H10   H     H_    0.305440 0.943901 0.762131 0.120211
H11   H     H_    0.222094 0.525299 0.960002 0.193088
H12   H     H_    0.577274 0.119070 0.792938 0.141966
H13   H     H_    0.053890 0.410590 0.904790 0.177334
H14   H     H_    0.040573 0.234387 0.743271 0.131784
H15   H     H_    0.199912 0.162656 0.655581 0.111659
H16   H     H_    0.368497 0.258090 0.739589 0.158681
H17   H     H_    0.349730 0.419854 0.119685 0.150450
H18   H     H_    0.731644 0.641376 0.905949 0.153775
H19   H     H_    0.610559 0.724623 0.884212 0.133635
H20   H     H_    0.728132 0.643432 0.152456 0.205802
H21   H     H_    0.605912 0.727136 0.132477 0.132033
H22   H     H_    0.827193 0.555443 0.754958 0.155409
H23   H     H_    0.014816 0.587454 0.775519 0.160224
N1    N     N_R   0.500660 0.500930 0.148010 -0.245926
N2    N     N_R   0.500660 0.500890 0.852110 -0.246191
O1    O     O_R   0.500000 0.319640 0.618810 -0.522688
O2    O     O_R   0.500010 0.319680 0.381230 -0.509616
O3    O     O_R   0.348990 0.499960 0.599490 -0.511783
O4    O     O_R   0.349000 0.500000 0.361910 -0.466884
O5    O     O_R   0.499990 0.680320 0.618770 -0.511629
O6    O     O_R   0.500000 0.680360 0.381190 -0.495571
O7    O     O_R   0.651000 0.500000 0.638090 -0.514125
O8    O     O_R   0.651010 0.500040 0.400510 -0.448871

loop_
_geom_bond_atom_site_label_1
_geom_bond_atom_site_label_2
_ccdc_geom_bond_type
C15   O5    A    
C18   C21   A    
C19   C20   A    
C27   H9    S    
C12   C23   A    
C8    N1    A    
C1    O1    A    
Cu2   O6    S    
C31   H13   S    
Cu1   O7    S    
C9    N1    A    
C5    C6    S    
C37   H23   S    
Cu1   O1    S    
C16   O7    A    
C12   C37   A    
C7    C38   S    
C16   C17   S    
Cu1   N2    S    
Cu2   O8    S    
C17   C36   A    
C9    C10   A    
C4    O4    A    
C19   Cl2   S    
C4    C18   S    
C24   H6    S    
C15   O6    A    
C22   C28   A    
C5    C38   A    
Cu2   O2    S    
C34   Cl1   S    
C28   H10   S    
C14   H21   S    
C38   C39   A    
C36   H22   S    
C1    O2    A    
Cu2   N1    S    
C9    H17   S    
C24   C25   A    
C39   C40   A    
C25   C26   A    
C30   H11   S    
C12   C21   A    
Cu2   O4    S    
Cu1   O5    S    
C19   C23   A    
C29   C30   A    
C2    H4    S    
C31   C32   A    
C13   H18   S    
C23   C34   A    
C26   C27   A    
C35   H16   S    
C6    H5    S    
C4    O3    A    
C10   N2    A    
C33   H15   S    
C22   C24   A    
C17   C34   A    
C26   H8    S    
C20   Cl3   S    
C3    C15   S    
Cu1   Cu2   S    
C40   H3    S    
C36   C37   A    
C8    C14   S    
C6    H1    S    
C3    C5    A    
C18   C20   A    
C6    C7    S    
C7    C22   S    
C29   C35   A    
C32   C33   A    
C2    C3    A    
C25   H7    S    
C11   C13   S    
C10   C29   S    
C30   C31   A    
C13   H19   S    
C8    C11   A    
C33   C35   A    
C14   H20   S    
C16   O8    A    
Cu1   O3    S    
C1    C39   S    
C11   N2    A    
C2    C40   A    
C27   C28   A    
C32   H14   S    
C13   C14   S    
C7    H12   S    
C21   H2    S    
