data_mof_unit_40546.cif
_audit_creation_date              2012-12-10T16:37:55-0500
_audit_creation_method            fapswitch 2.2
_symmetry_space_group_name_H-M    P1
_symmetry_Int_Tables_number       1
_space_group_crystal_system       triclinic
_cell_length_a                    28.057425
_cell_length_b                    18.432994
_cell_length_c                    16.936578
_cell_angle_alpha                 89.842691
_cell_angle_beta                  61.088225
_cell_angle_gamma                 89.732791
_cell_volume                      7667.50096092

loop_
_atom_site_label
_atom_site_type_symbol
_atom_type_description
_atom_site_fract_x
_atom_site_fract_y
_atom_site_fract_z
_atom_type_partial_charge
C1    C     C_R   0.700983 0.266243 0.677080 0.849376
C2    C     C_R   0.299095 0.733886 0.322893 0.896724
C3    C     C_R   0.299076 0.266176 0.322980 0.897167
C4    C     C_R   0.700993 0.733706 0.676993 0.863502
C5    C     C_R   0.201006 0.766286 0.677062 0.847466
C6    C     C_R   0.799114 0.233921 0.322876 0.893921
C7    C     C_R   0.799032 0.766253 0.322993 0.873071
C8    C     C_R   0.201073 0.233575 0.676960 0.847676
C9    C     C_R   0.902204 0.502773 0.495703 0.072166
C10   C     C_R   0.079695 0.501259 0.563865 0.071627
C11   C     C_R   0.387851 0.999688 0.541378 0.074312
C12   C     C_R   0.574990 0.000053 0.582730 0.076235
C13   C     C_R   0.069463 0.371936 0.590695 -0.121135
C14   C     C_R   0.922144 0.627935 0.447143 -0.114162
C15   C     C_R   0.878000 0.382440 0.559536 -0.127821
C16   C     C_R   0.077454 0.632129 0.565082 -0.121095
C17   C     C_R   0.569959 0.869196 0.598129 -0.126601
C18   C     C_R   0.377995 0.128561 0.566902 -0.134548
C19   C     C_R   0.379372 0.870586 0.565298 -0.135642
C20   C     C_R   0.569740 0.131001 0.596225 -0.127507
C21   C     C_R   0.718461 0.261182 0.956529 -0.024208
C22   C     C_R   0.282514 0.740396 0.042638 -0.019586
C23   C     C_R   0.282827 0.259509 0.042397 -0.020044
C24   C     C_R   0.718325 0.738787 0.956583 -0.022171
C25   C     C_R   0.218492 0.761176 0.956487 -0.022079
C26   C     C_R   0.782529 0.240395 0.042608 -0.020181
C27   C     C_R   0.782136 0.760572 0.042981 -0.021972
C28   C     C_R   0.219043 0.237668 0.955986 -0.023328
C29   C     C_R   0.766582 0.218942 0.913546 -0.066387
C30   C     C_R   0.234215 0.782312 0.085847 -0.059329
C31   C     C_R   0.235237 0.216614 0.085133 -0.055413
C32   C     C_R   0.765958 0.781633 0.913804 -0.059858
C33   C     C_R   0.266781 0.719244 0.913319 -0.068034
C34   C     C_R   0.734381 0.282593 0.085659 -0.055516
C35   C     C_R   0.734537 0.717681 0.085717 -0.057354
C36   C     C_R   0.266711 0.280452 0.913188 -0.068693
C37   C     C_R   0.800634 0.213431 0.954239 0.075791
C38   C     C_R   0.200239 0.787868 0.045012 0.088421
C39   C     C_R   0.201326 0.210457 0.044209 0.093637
C40   C     C_R   0.799889 0.787735 0.954724 0.088783
C41   C     C_R   0.300781 0.713728 0.954102 0.078582
C42   C     C_R   0.700372 0.288178 0.044882 0.094504
C43   C     C_R   0.700609 0.711565 0.044804 0.091679
C44   C     C_R   0.300645 0.286544 0.954081 0.077689
C45   C     C_R   0.638325 0.314905 0.955553 0.086132
C46   C     C_R   0.362411 0.686146 0.043905 0.075321
C47   C     C_R   0.362093 0.314813 0.044092 0.075537
C48   C     C_R   0.638687 0.684163 0.955332 0.084390
C49   C     C_R   0.138303 0.814795 0.955548 0.081877
C50   C     C_R   0.862382 0.186046 0.043890 0.073179
C51   C     C_R   0.861620 0.815455 0.044437 0.082483
C52   C     C_R   0.139182 0.183504 0.954997 0.085918
C53   C     C_R   0.613147 0.340084 0.904474 -0.137430
C54   C     C_R   0.387242 0.660383 0.095267 -0.133193
C55   C     C_R   0.386879 0.340328 0.095568 -0.132462
C56   C     C_R   0.613499 0.659256 0.904194 -0.136208
C57   C     C_R   0.113157 0.840067 0.904459 -0.135431
C58   C     C_R   0.887239 0.160356 0.095248 -0.132562
C59   C     C_R   0.886649 0.840590 0.095712 -0.135501
C60   C     C_R   0.113786 0.158928 0.904029 -0.137100
C61   C     C_R   0.632427 0.318213 0.816552 -0.285129
C62   C     C_R   0.367794 0.681988 0.183352 -0.285935
C63   C     C_R   0.367461 0.318539 0.183623 -0.287093
C64   C     C_R   0.632689 0.681386 0.816341 -0.285380
C65   C     C_R   0.132477 0.818273 0.816508 -0.292697
C66   C     C_R   0.867818 0.182010 0.183317 -0.286919
C67   C     C_R   0.867365 0.818597 0.183645 -0.287623
C68   C     C_R   0.132914 0.181154 0.816251 -0.285925
C69   C     C_R   0.677711 0.274374 0.774915 -0.082437
C70   C     C_R   0.322593 0.725999 0.224934 -0.089269
C71   C     C_R   0.322647 0.274224 0.224965 -0.089226
C72   C     C_R   0.677637 0.725445 0.774893 -0.087818
C73   C     C_R   0.177776 0.774462 0.774857 -0.078686
C74   C     C_R   0.822639 0.226059 0.224885 -0.089604
C75   C     C_R   0.822473 0.774434 0.225044 -0.087389
C76   C     C_R   0.177935 0.225063 0.774741 -0.079921
C77   C     C_R   0.704306 0.248771 0.824281 -0.015824
C78   C     C_R   0.296278 0.752027 0.175337 -0.005496
C79   C     C_R   0.296726 0.247989 0.175111 -0.001866
C80   C     C_R   0.703933 0.751128 0.824426 -0.004365
C81   C     C_R   0.204426 0.748914 0.824155 -0.013583
C82   C     C_R   0.796370 0.252139 0.175236 -0.002551
C83   C     C_R   0.796331 0.748535 0.175370 -0.002468
C84   C     C_R   0.204476 0.250398 0.824056 -0.014949
C85   C     C_R   0.690348 0.129796 0.539391 0.905149
C86   C     C_R   0.304491 0.871838 0.480984 0.943972
C87   C     C_R   0.304547 0.128198 0.480802 0.943477
C88   C     C_R   0.690338 0.870072 0.539553 0.901250
C89   C     C_R   0.190716 0.629682 0.538015 0.912859
C90   C     C_R   0.804966 0.372323 0.477712 0.928980
C91   C     C_R   0.809287 0.629528 0.463995 0.909686
C92   C     C_R   0.190245 0.370197 0.539144 0.906682
C93   C     C_R   0.687231 0.275242 0.911872 0.065222
C94   C     C_R   0.313575 0.725982 0.087490 0.069692
C95   C     C_R   0.313696 0.274387 0.087421 0.070055
C96   C     C_R   0.687202 0.724348 0.911852 0.068263
C97   C     C_R   0.187274 0.775250 0.911816 0.066469
C98   C     C_R   0.813604 0.225988 0.087440 0.070863
C99   C     C_R   0.813153 0.775178 0.087843 0.069068
C100  C     C_R   0.187810 0.223464 0.911389 0.065518
C101  C     C_R   0.615674 0.325167 0.049377 -0.175721
C102  C     C_R   0.385280 0.676175 0.949980 -0.169033
C103  C     C_R   0.384666 0.325311 0.950233 -0.169325
C104  C     C_R   0.616348 0.673399 0.049076 -0.175793
C105  C     C_R   0.115547 0.824822 0.049417 -0.174398
C106  C     C_R   0.885152 0.175860 0.950002 -0.168214
C107  C     C_R   0.884054 0.826117 0.950653 -0.176031
C108  C     C_R   0.116923 0.172690 0.048719 -0.176059
C109  C     C_R   0.646140 0.312285 0.092829 -0.122708
C110  C     C_R   0.355037 0.689622 0.906225 -0.107262
C111  C     C_R   0.354526 0.311605 0.906456 -0.106325
C112  C     C_R   0.646719 0.686607 0.092532 -0.121216
C113  C     C_R   0.145931 0.811723 0.092970 -0.115625
C114  C     C_R   0.854821 0.189095 0.906355 -0.096622
C115  C     C_R   0.853777 0.812728 0.907063 -0.119847
C116  C     C_R   0.147403 0.185649 0.092031 -0.122917
C117  C     C_R   0.744947 0.194559 0.792515 -0.163325
C118  C     C_R   0.255540 0.806070 0.207352 -0.176266
C119  C     C_R   0.256811 0.193279 0.206682 -0.185020
C120  C     C_R   0.743979 0.805685 0.792834 -0.184046
C121  C     C_R   0.245239 0.694921 0.792198 -0.176404
C122  C     C_R   0.755768 0.306354 0.207119 -0.183203
C123  C     C_R   0.756354 0.693901 0.206926 -0.184395
C124  C     C_R   0.244628 0.304858 0.792452 -0.174427
C125  C     C_R   0.775342 0.178995 0.835966 0.393927
C126  C     C_R   0.225064 0.821640 0.164084 0.356044
C127  C     C_R   0.226729 0.177062 0.163056 0.346783
C128  C     C_R   0.774358 0.821424 0.836084 0.350922
C129  C     C_R   0.275759 0.679543 0.835453 0.379193
C130  C     C_R   0.725394 0.322096 0.163699 0.349263
C131  C     C_R   0.726111 0.677961 0.163495 0.350096
C132  C     C_R   0.275037 0.320448 0.835686 0.380200
C133  C     C_R   0.072609 0.102156 0.935911 0.898728
C134  C     C_R   0.927548 0.897699 0.063966 0.898603
C135  C     C_R   0.927877 0.102696 0.063580 0.899386
C136  C     C_R   0.072264 0.897427 0.936298 0.897033
C137  C     C_R   0.572511 0.602249 0.935985 0.898290
C138  C     C_R   0.427636 0.397614 0.063893 0.897205
C139  C     C_R   0.427885 0.602713 0.063575 0.897660
C140  C     C_R   0.572269 0.397443 0.936292 0.898677
C141  C     C_R   0.519633 0.131875 0.595978 -0.062479
C142  C     C_R   0.424436 0.868724 0.580635 -0.070443
C143  C     C_R   0.423330 0.130702 0.581345 -0.069923
C144  C     C_R   0.520149 0.868074 0.597060 -0.061952
C145  C     C_R   0.038804 0.633482 0.535846 -0.075421
C146  C     C_R   0.924233 0.378359 0.571192 -0.062932
C147  C     C_R   0.960818 0.631300 0.476851 -0.072224
C148  C     C_R   0.019913 0.373165 0.587937 -0.061280
C149  C     C_R   0.490069 0.196932 0.606943 0.326231
C150  C     C_R   0.443271 0.803286 0.600135 0.317920
C151  C     C_R   0.441810 0.196239 0.600466 0.317754
C152  C     C_R   0.491158 0.802891 0.607743 0.325853
C153  C     C_R   0.023528 0.698810 0.510163 0.327802
C154  C     C_R   0.937563 0.314776 0.603599 0.321785
C155  C     C_R   0.986198 0.697252 0.477143 0.328134
C156  C     C_R   0.985893 0.311617 0.609907 0.331008
C157  C     C_R   0.451057 0.065685 0.575790 -0.023817
C158  C     C_R   0.498826 0.933832 0.584975 -0.027500
C159  C     C_R   0.498515 0.065989 0.584616 -0.027568
C160  C     C_R   0.451520 0.933893 0.575689 -0.023808
C161  C     C_R   0.973759 0.567336 0.508375 -0.028440
C162  C     C_R   0.003957 0.437888 0.562491 -0.030487
C163  C     C_R   0.015360 0.567643 0.531779 -0.025569
C164  C     C_R   0.957959 0.439423 0.549612 -0.025518
C165  C     C_R   0.944929 0.503022 0.517172 0.060741
C166  C     C_R   0.032857 0.502135 0.553071 0.059373
C167  C     C_R   0.430130 0.999739 0.564309 0.061425
C168  C     C_R   0.524264 0.999968 0.583786 0.057291
C169  C     C_R   0.870379 0.440437 0.511293 -0.029467
C170  C     C_R   0.104594 0.567031 0.564423 -0.021070
C171  C     C_R   0.101848 0.434876 0.572530 -0.018050
C172  C     C_R   0.889683 0.565837 0.462184 -0.016624
C173  C     C_R   0.365742 0.934043 0.532231 -0.020393
C174  C     C_R   0.600452 0.066416 0.580992 -0.018219
C175  C     C_R   0.600460 0.933716 0.581980 -0.019210
C176  C     C_R   0.365201 0.065329 0.532883 -0.022438
C177  C     C_R   0.833127 0.438254 0.475996 -0.205665
C178  C     C_R   0.155020 0.565683 0.565601 -0.211204
C179  C     C_R   0.154051 0.434796 0.568152 -0.212760
C180  C     C_R   0.843870 0.565167 0.447162 -0.200475
C181  C     C_R   0.331015 0.935702 0.491108 -0.195483
C182  C     C_R   0.654214 0.065477 0.570328 -0.213704
C183  C     C_R   0.654176 0.934477 0.570944 -0.213060
C184  C     C_R   0.330884 0.064048 0.491208 -0.195063
C185  C     C_R   0.823982 0.499803 0.436981 0.305442
C186  C     C_R   0.174986 0.500122 0.579751 0.313812
C187  C     C_R   0.321914 0.999975 0.458671 0.284896
C188  C     C_R   0.675856 0.999910 0.580514 0.318093
H1    H     H_    0.081241 0.322962 0.611814 0.212472
H2    H     H_    0.918027 0.673557 0.410843 0.209928
H3    H     H_    0.847972 0.340504 0.589632 0.213863
H4    H     H_    0.085026 0.682100 0.589740 0.212008
H5    H     H_    0.583794 0.819999 0.615057 0.212596
H6    H     H_    0.353128 0.176388 0.584045 0.222441
H7    H     H_    0.355389 0.822308 0.581084 0.223455
H8    H     H_    0.583483 0.180435 0.612172 0.214024
H9    H     H_    0.613437 0.338808 0.778340 0.204569
H10   H     H_    0.386537 0.660985 0.221754 0.196180
H11   H     H_    0.386000 0.339509 0.222138 0.196398
H12   H     H_    0.613848 0.660904 0.778060 0.204791
H13   H     H_    0.113497 0.838894 0.778294 0.198459
H14   H     H_    0.886559 0.161011 0.221723 0.196135
H15   H     H_    0.886084 0.839275 0.222024 0.200381
H16   H     H_    0.113914 0.160929 0.778097 0.204241
H17   H     H_    0.573635 0.340510 0.091596 0.174236
H18   H     H_    0.427274 0.660470 0.908035 0.187404
H19   H     H_    0.426443 0.341417 0.908131 0.188330
H20   H     H_    0.574527 0.657640 0.091455 0.175575
H21   H     H_    0.073489 0.840128 0.091554 0.179132
H22   H     H_    0.927126 0.160113 0.907975 0.190041
H23   H     H_    0.925863 0.841990 0.908388 0.177019
H24   H     H_    0.075067 0.157159 0.091237 0.175590
H25   H     H_    0.625633 0.318145 0.165249 0.197106
H26   H     H_    0.375619 0.683895 0.833757 0.228204
H27   H     H_    0.375011 0.317726 0.834032 0.228593
H28   H     H_    0.626300 0.680426 0.164917 0.197587
H29   H     H_    0.125322 0.817268 0.165434 0.208721
H30   H     H_    0.875294 0.183050 0.833935 0.237061
H31   H     H_    0.874245 0.818853 0.834666 0.201611
H32   H     H_    0.127019 0.179481 0.164417 0.197176
H33   H     H_    0.751120 0.159293 0.737588 0.231534
H34   H     H_    0.249208 0.841070 0.262582 0.228993
H35   H     H_    0.250966 0.158253 0.261797 0.228553
H36   H     H_    0.749682 0.841044 0.738074 0.229944
H37   H     H_    0.251464 0.659617 0.737282 0.233811
H38   H     H_    0.749507 0.341341 0.262330 0.230886
H39   H     H_    0.750597 0.658674 0.261825 0.228506
H40   H     H_    0.250299 0.340419 0.737888 0.233913
O1    O     O_R   0.746490 0.236330 0.638080 -0.631301
O2    O     O_R   0.253510 0.763670 0.361920 -0.622073
O3    O     O_R   0.253510 0.236330 0.361920 -0.628985
O4    O     O_R   0.746490 0.763670 0.638080 -0.628366
O5    O     O_R   0.246490 0.736330 0.638080 -0.638355
O6    O     O_R   0.753510 0.263670 0.361920 -0.627986
O7    O     O_R   0.753510 0.736330 0.361920 -0.629792
O8    O     O_R   0.246490 0.263670 0.638080 -0.637529
O9    O     O_R   0.674170 0.186160 0.516270 -0.635636
O10   O     O_R   0.325830 0.813840 0.483730 -0.650664
O11   O     O_R   0.325830 0.186160 0.483730 -0.648231
O12   O     O_R   0.674170 0.813840 0.516270 -0.633532
O13   O     O_R   0.174170 0.686160 0.516270 -0.632814
O14   O     O_R   0.825830 0.313840 0.483730 -0.638772
O15   O     O_R   0.825830 0.686160 0.483730 -0.636481
O16   O     O_R   0.174170 0.313840 0.516270 -0.636033
O17   O     O_R   0.739960 0.127620 0.525000 -0.553393
O18   O     O_R   0.260040 0.872380 0.475000 -0.562787
O19   O     O_R   0.260040 0.127620 0.475000 -0.564430
O20   O     O_R   0.739960 0.872380 0.525000 -0.553504
O21   O     O_R   0.239960 0.627620 0.525000 -0.555893
O22   O     O_R   0.760040 0.372380 0.475000 -0.561501
O23   O     O_R   0.760040 0.627620 0.475000 -0.559905
O24   O     O_R   0.239960 0.372380 0.525000 -0.552288
O25   O     O_R   0.680700 0.294870 0.629350 -0.621028
O26   O     O_R   0.319300 0.705130 0.370650 -0.614978
O27   O     O_R   0.319300 0.294870 0.370650 -0.612974
O28   O     O_R   0.680700 0.705130 0.629350 -0.615854
O29   O     O_R   0.180700 0.794870 0.629350 -0.626364
O30   O     O_R   0.819300 0.205130 0.370650 -0.614720
O31   O     O_R   0.819300 0.794870 0.370650 -0.614657
O32   O     O_R   0.180700 0.205130 0.629350 -0.623129
O33   O     O_R   0.062020 0.072840 0.007170 -0.619729
O34   O     O_R   0.937980 0.927160 0.992830 -0.617536
O35   O     O_R   0.937980 0.072840 0.992830 -0.614727
O36   O     O_R   0.062020 0.927160 0.007170 -0.616423
O37   O     O_R   0.562020 0.572840 0.007170 -0.619969
O38   O     O_R   0.437980 0.427160 0.992830 -0.615218
O39   O     O_R   0.437980 0.572840 0.992830 -0.613877
O40   O     O_R   0.562020 0.427160 0.007170 -0.618687
O41   O     O_R   0.947860 0.073950 0.109290 -0.616038
O42   O     O_R   0.052140 0.926050 0.890710 -0.615077
O43   O     O_R   0.052140 0.073950 0.890710 -0.609485
O44   O     O_R   0.947860 0.926050 0.109290 -0.613010
O45   O     O_R   0.447860 0.573950 0.109290 -0.617055
O46   O     O_R   0.552140 0.426050 0.890710 -0.608839
O47   O     O_R   0.552140 0.573950 0.890710 -0.608421
O48   O     O_R   0.447860 0.426050 0.109290 -0.617046
Zn1   Zn    Zn3+2 0.792340 0.208750 0.507670 1.099470
Zn2   Zn    Zn3+2 0.207660 0.791250 0.492330 1.098631
Zn3   Zn    Zn3+2 0.207660 0.208750 0.492330 1.077625
Zn4   Zn    Zn3+2 0.792340 0.791250 0.507670 1.101177
Zn5   Zn    Zn3+2 0.292340 0.708750 0.507670 1.090755
Zn6   Zn    Zn3+2 0.707660 0.291250 0.492330 1.090592
Zn7   Zn    Zn3+2 0.707660 0.708750 0.492330 1.091571
Zn8   Zn    Zn3+2 0.292340 0.291250 0.507670 1.092046
Zn9   Zn    Zn3+2 0.505960 0.500000 0.080520 1.001720
Zn10  Zn    Zn3+2 0.494040 0.500000 0.919480 1.042852
Zn11  Zn    Zn3+2 0.005960 0.000000 0.080520 1.011694
Zn12  Zn    Zn3+2 0.994040 0.000000 0.919480 1.025458
Cl1   Cl    Cl    0.002606 0.230183 0.646844 -0.555996
Cl2   Cl    Cl    0.969629 0.779239 0.441012 -0.521206
Cl3   Cl    Cl    0.895868 0.236809 0.631602 -0.533911
Cl4   Cl    Cl    0.054019 0.782264 0.512070 -0.509106
Cl5   Cl    Cl    0.514685 0.719614 0.628994 -0.541829
Cl6   Cl    Cl    0.406478 0.278896 0.612513 -0.514262
Cl7   Cl    Cl    0.408777 0.720407 0.611615 -0.513594
Cl8   Cl    Cl    0.513212 0.280366 0.627441 -0.540572
Cl9   Cl    Cl    0.790730 0.496831 0.370321 -0.553766
Cl10  Cl    Cl    0.221792 0.499838 0.622413 -0.539372
Cl11  Cl    Cl    0.302817 0.000177 0.372254 -0.558234
Cl12  Cl    Cl    0.724656 0.999752 0.619129 -0.538385
Cl13  Cl    Cl    0.814909 0.098824 0.800077 -0.457208
Cl14  Cl    Cl    0.184553 0.900903 0.201757 -0.489183
Cl15  Cl    Cl    0.187779 0.096815 0.199668 -0.509765
Cl16  Cl    Cl    0.813520 0.901505 0.799336 -0.493891
Cl17  Cl    Cl    0.315694 0.599699 0.798996 -0.453686
Cl18  Cl    Cl    0.685296 0.401738 0.200793 -0.506973
Cl19  Cl    Cl    0.687081 0.597777 0.200109 -0.507461
Cl20  Cl    Cl    0.313850 0.400875 0.799756 -0.454373

loop_
_geom_bond_atom_site_label_1
_geom_bond_atom_site_label_2
_ccdc_geom_bond_type
C85   C182  S    
O45   Zn9   S    
C7    O31   A    
C34   C42   A    
C181  C187  A    
C90   O22   A    
C27   C99   A    
C170  C178  A    
C4    O4    A    
C12   C174  A    
C186  Cl10  S    
C42   C109  A    
C111  H27   S    
C24   C96   A    
C133  O43   A    
C123  H39   S    
C106  H22   S    
C121  H37   S    
C62   C70   A    
C15   H3    S    
C9    C169  A    
O39   Zn10  S    
O12   Zn7   S    
C147  C155  A    
C143  C151  A    
C90   C177  S    
C11   C167  A    
C82   C98   A    
C76   C84   A    
C2    O26   A    
C73   C81   A    
C161  C163  A    
C162  C164  A    
O48   Zn9   S    
C84   C100  A    
C61   H9    S    
C37   C114  A    
C130  Cl18  S    
C27   C35   A    
C10   C171  A    
C21   C29   A    
C137  O47   A    
O7    Zn7   S    
C81   C121  A    
C23   C31   A    
C24   C32   A    
C146  C154  A    
O30   Zn1   S    
C119  H35   S    
C89   O21   A    
C63   C71   A    
C64   H12   S    
C36   C44   A    
C175  C183  A    
C176  C184  A    
C139  O39   A    
C164  C165  A    
C48   C96   A    
C87   O19   A    
O3    Zn3   S    
C148  C162  A    
O4    Zn4   S    
C183  C188  A    
C108  C116  A    
C21   C93   A    
C78   C94   A    
C9    C165  A    
C86   O10   A    
C23   C95   A    
C67   H15   S    
C49   C97   A    
C21   C42   A    
C40   C115  A    
C51   C107  A    
C24   C43   A    
C82   C122  A    
C161  C165  A    
C17   C175  A    
O33   Zn11  S    
C88   O12   A    
O34   Zn12  S    
C29   C125  A    
C118  H34   S    
C69   C77   A    
C31   C127  A    
C45   C93   A    
C174  C182  A    
C71   C79   A    
C177  C185  A    
O43   Zn12  S    
C179  C186  A    
C133  O33   A    
C30   C38   A    
C11   C176  A    
C149  Cl8   S    
O2    Zn2   S    
C17   C144  A    
C105  C113  A    
C18   C143  A    
C78   C118  A    
C103  H19   S    
C149  C151  A    
C153  Cl4   S    
C134  O44   A    
C66   C74   A    
C154  Cl3   S    
C135  O41   A    
C49   C57   A    
C124  C132  A    
O1    Zn1   S    
C52   C60   A    
C59   C67   A    
C53   C61   A    
C141  C159  A    
C20   C174  A    
C18   C176  A    
C55   C63   A    
C86   C181  S    
C56   C64   A    
O46   Zn10  S    
C116  H32   S    
C35   C43   A    
C185  Cl9   S    
O37   Zn9   S    
C125  Cl13  S    
C6    O6    A    
C45   C53   A    
C120  H36   S    
C85   O17   A    
C22   C94   A    
C171  C179  A    
C129  Cl17  S    
C114  H30   S    
C187  Cl11  S    
C169  C177  A    
C108  H24   S    
C92   O24   A    
C50   C98   A    
C87   O11   A    
C20   H8    S    
C3    O3    A    
C104  C112  A    
O32   Zn3   S    
O23   Zn7   S    
C145  C163  A    
C146  C164  A    
C14   C147  A    
C52   C100  A    
O16   Zn3   S    
C16   C145  A    
C178  C186  A    
C8    O32   A    
C25   C38   A    
C88   O20   A    
C54   C139  S    
C46   C94   A    
C27   C40   A    
C10   C166  A    
C57   C65   A    
C91   C180  S    
C5    O29   A    
C182  C188  A    
C89   C178  S    
O9    Zn6   S    
C102  H18   S    
C28   C36   A    
C25   C97   A    
C90   O14   A    
C67   C75   A    
C4    O28   A    
C131  Cl19  S    
C22   C30   A    
O28   Zn7   S    
O13   Zn2   S    
C15   C146  A    
C58   C135  S    
C68   C76   A    
O11   Zn8   S    
C59   C134  S    
C184  C187  A    
C32   C128  A    
C152  Cl5   S    
C72   C80   A    
C56   C137  S    
C150  C152  A    
C112  H28   S    
O19   Zn3   S    
O20   Zn4   S    
C2    O2    A    
C188  Cl12  S    
C13   C171  A    
C151  Cl6   S    
C139  O45   A    
O17   Zn1   S    
C117  C125  A    
C25   C33   A    
C119  C127  A    
O40   Zn9   S    
O5    Zn5   S    
O8    Zn8   S    
C157  C167  A    
C80   C120  A    
C158  C168  A    
C91   O23   A    
O44   Zn11  S    
C135  O35   A    
O21   Zn5   S    
C150  Cl7   S    
C70   C78   A    
C132  Cl20  S    
C22   C41   A    
C107  H23   S    
C101  C109  A    
C122  H38   S    
C105  H21   S    
C103  C111  A    
C162  C166  A    
C117  H33   S    
O6    Zn6   S    
C79   C119  A    
C140  O40   A    
C153  C155  A    
C154  C156  A    
C68   H16   S    
C172  C180  A    
C173  C181  A    
C157  C159  A    
C83   C99   A    
C158  C160  A    
C74   C82   A    
C20   C141  A    
C1    O25   A    
C6    C74   S    
C7    O7    A    
C47   C103  A    
C141  C149  A    
C50   C58   A    
C163  C166  A    
C147  C161  A    
O42   Zn12  S    
C38   C113  A    
C49   C105  A    
C54   C62   A    
C28   C39   A    
C1    C69   S    
C23   C44   A    
C3    C71   S    
C19   C173  A    
C79   C95   A    
C92   C179  S    
O38   Zn10  S    
C126  Cl14  S    
C46   C54   A    
C45   C101  A    
C8    O8    A    
C19   C142  A    
C155  Cl2   S    
C102  C110  A    
C35   C131  A    
C4    C72   S    
O25   Zn6   S    
C33   C129  A    
O35   Zn12  S    
C123  C131  A    
C121  C129  A    
O15   Zn4   S    
C120  C128  A    
C26   C37   A    
C10   C170  A    
C109  H25   S    
C6    O30   A    
C33   C41   A    
C142  C150  A    
C36   C132  A    
O10   Zn5   S    
C75   C83   A    
C77   C93   A    
C85   O9    A    
C104  H20   S    
C44   C111  A    
C16   C170  A    
C60   C68   A    
C144  C152  A    
C39   C116  A    
C29   C37   A    
C50   C106  A    
C9    C172  A    
C148  C156  A    
O14   Zn1   S    
C83   C123  A    
C2    C70   S    
O47   Zn10  S    
C60   C133  S    
C110  H26   S    
C30   C126  A    
C19   H7    S    
C136  O36   A    
C53   C140  S    
C17   H5    S    
C8    C76   S    
C65   C73   A    
C46   C102  A    
C55   C138  S    
C106  C114  A    
C77   C117  A    
O24   Zn8   S    
C127  Cl15  S    
C128  Cl16  S    
C48   C104  A    
C13   H1    S    
C159  C168  A    
C15   C169  A    
C160  C167  A    
C140  O46   A    
O18   Zn2   S    
C16   H4    S    
C137  O37   A    
C58   C66   A    
C63   H11   S    
O27   Zn8   S    
C57   C136  S    
C80   C96   A    
C145  C153  A    
C28   C100  A    
C32   C40   A    
C52   C108  A    
O29   Zn2   S    
C86   O18   A    
C5    O5    A    
C5    C73   S    
O22   Zn6   S    
C115  H31   S    
O31   Zn4   S    
C113  H29   S    
C124  H40   S    
C26   C34   A    
C143  C157  A    
C51   C99   A    
C11   C173  A    
C18   H6    S    
C62   H10   S    
C14   C172  A    
C87   C184  S    
C88   C183  S    
C7    C75   S    
C138  O38   A    
C138  O48   A    
C14   H2    S    
C107  C115  A    
C101  H17   S    
C26   C98   A    
C12   C175  A    
C91   O15   A    
C41   C110  A    
C89   O13   A    
C51   C59   A    
C43   C112  A    
C144  C158  A    
C47   C55   A    
C61   C69   A    
C48   C56   A    
O36   Zn11  S    
O41   Zn11  S    
C142  C160  A    
C12   C168  A    
C84   C124  A    
C66   H14   S    
C92   O16   A    
C81   C97   A    
C31   C39   A    
C156  Cl1   S    
C64   C72   A    
C3    O27   A    
C180  C185  A    
O26   Zn5   S    
C1    O1    A    
C65   H13   S    
C34   C130  A    
C134  O34   A    
C47   C95   A    
C136  O42   A    
C118  C126  A    
C13   C148  A    
C122  C130  A    
