data_mof_unit_15822.cif
_audit_creation_date              2012-12-10T19:46:24-0500
_audit_creation_method            fapswitch 2.2
_symmetry_space_group_name_H-M    P1
_symmetry_Int_Tables_number       1
_space_group_crystal_system       triclinic
_cell_length_a                    10.856447
_cell_length_b                    10.863926
_cell_length_c                    10.427357
_cell_angle_alpha                 90.442335
_cell_angle_beta                  90.278659
_cell_angle_gamma                 90.141152
_cell_volume                      1229.78536555

loop_
_atom_site_label
_atom_site_type_symbol
_atom_type_description
_atom_site_fract_x
_atom_site_fract_y
_atom_site_fract_z
_atom_type_partial_charge
C1    C     C_R   0.495719 0.261511 0.499176 0.793685
C2    C     C_R   0.504280 0.738489 0.500824 0.793711
C3    C     C_R   0.872006 0.493945 0.501613 -0.084480
C4    C     C_R   0.127993 0.506046 0.498385 -0.084506
C5    C     C_R   0.939770 0.455139 0.610058 -0.004091
C6    C     C_R   0.060228 0.544851 0.389939 -0.004073
C7    C     C_R   0.269093 0.220157 0.138593 -0.118133
C8    C     C_R   0.731024 0.780157 0.861513 -0.118246
C9    C     C_R   0.309722 0.170581 0.254642 -0.112380
C10   C     C_R   0.690384 0.829682 0.745441 -0.112738
C11   C     C_R   0.426377 0.115512 0.262915 0.127451
C12   C     C_R   0.573609 0.884491 0.737081 0.127554
C13   C     C_R   0.501361 0.110147 0.153615 -0.157603
C14   C     C_R   0.498502 0.889630 0.846308 -0.157364
C15   C     C_R   0.460562 0.160539 0.037974 -0.149204
C16   C     C_R   0.539311 0.839283 0.961970 -0.149234
C17   C     C_R   0.344484 0.215369 0.030414 -0.120382
C18   C     C_R   0.655517 0.784723 0.969622 -0.120321
C19   C     C_R   0.476876 0.932418 0.388272 -0.253879
C20   C     C_R   0.523119 0.067582 0.611725 -0.253853
C21   C     C_R   0.506643 0.872108 0.502308 -0.083378
C22   C     C_R   0.493348 0.127892 0.497690 -0.083390
C23   C     C_R   0.261556 0.503923 0.499440 0.793853
C24   C     C_R   0.738443 0.496074 0.500559 0.793941
C25   C     C_R   0.531980 0.940509 0.615338 -0.000521
C26   C     C_R   0.468008 0.059492 0.384658 -0.000463
C27   C     C_1   0.500019 0.500010 0.071944 0.091587
C28   C     C_1   0.499980 0.499990 0.928056 0.091676
C29   C     C_R   0.230878 0.761156 0.168987 -0.135733
C30   C     C_R   0.769179 0.238883 0.831104 -0.135736
C31   C     C_R   0.179090 0.711265 0.279724 -0.106345
C32   C     C_R   0.821017 0.288699 0.720356 -0.106595
C33   C     C_R   0.117860 0.597241 0.273846 0.133856
C34   C     C_R   0.882125 0.402789 0.726162 0.133847
C35   C     C_R   0.108672 0.534475 0.155931 -0.150081
C36   C     C_R   0.891136 0.465700 0.844013 -0.149767
C37   C     C_R   0.162462 0.583632 0.045995 -0.144967
C38   C     C_R   0.837288 0.416616 0.953954 -0.144968
C39   C     C_R   0.223302 0.697024 0.052454 -0.118925
C40   C     C_R   0.776571 0.303160 0.947570 -0.118889
C41   C     C_R   0.932794 0.537072 0.392710 -0.248372
C42   C     C_R   0.067204 0.462915 0.607288 -0.248393
Cu1   Cu    Cu3+1 0.500000 0.500000 0.625300 0.978281
Cu2   Cu    Cu3+1 0.500000 0.500000 0.374700 0.978229
H1    H     H_    0.264053 0.735416 0.967048 0.129115
H2    H     H_    0.735768 0.264831 0.032978 0.129195
H3    H     H_    0.591201 0.067207 0.158133 0.126837
H4    H     H_    0.408566 0.932370 0.841719 0.126727
H5    H     H_    0.456970 0.880224 0.301659 0.153464
H6    H     H_    0.543033 0.119774 0.698339 0.153486
H7    H     H_    0.276267 0.849841 0.173210 0.120253
H8    H     H_    0.723890 0.150147 0.826943 0.120294
H9    H     H_    0.185873 0.761585 0.369579 0.104287
H10   H     H_    0.814364 0.238275 0.630548 0.104347
H11   H     H_    0.060346 0.447389 0.149549 0.114873
H12   H     H_    0.939363 0.552847 0.850336 0.114802
H13   H     H_    0.156547 0.534094 0.955701 0.126188
H14   H     H_    0.843063 0.466270 0.044195 0.126161
H15   H     H_    0.880702 0.568631 0.310248 0.154035
H16   H     H_    0.119292 0.431365 0.689755 0.154037
H17   H     H_    0.312913 0.253979 0.940722 0.126500
H18   H     H_    0.687096 0.746152 0.059332 0.126474
H19   H     H_    0.178842 0.261503 0.132306 0.120763
H20   H     H_    0.821376 0.739031 0.867878 0.120718
H21   H     H_    0.250315 0.174435 0.337733 0.106241
H22   H     H_    0.749883 0.826012 0.662406 0.106316
N1    N     N_1   0.500010 0.499990 0.186410 -0.139418
N2    N     N_1   0.499990 0.500010 0.813590 -0.139396
O1    O     O_R   0.499990 0.319650 0.605810 -0.585756
O2    O     O_R   0.500010 0.680350 0.394190 -0.585777
O3    O     O_R   0.499990 0.319640 0.394190 -0.565792
O4    O     O_R   0.500010 0.680360 0.605810 -0.565778
O5    O     O_R   0.319640 0.500010 0.605810 -0.589577
O6    O     O_R   0.680360 0.499990 0.394190 -0.589590
O7    O     O_R   0.319650 0.500010 0.394190 -0.562608
O8    O     O_R   0.680350 0.499990 0.605810 -0.562559
H23   H     H_    0.518611 0.156584 0.954031 0.130261
H24   H     H_    0.481178 0.843080 0.045863 0.130219

loop_
_geom_bond_atom_site_label_1
_geom_bond_atom_site_label_2
_ccdc_geom_bond_type
Cu1   O5    S    
C30   C32   A    
C5    C42   A    
Cu1   O4    S    
C40   H2    S    
C1    O3    A    
C19   C21   A    
C20   C25   A    
Cu2   O3    S    
C15   C17   A    
C19   C26   A    
C20   H6    S    
C17   H17   S    
C38   H14   S    
Cu1   N2    S    
C7    C17   A    
C6    C41   A    
C31   C33   A    
Cu2   O2    S    
C16   H24   S    
C39   H1    S    
C1    C22   S    
Cu1   O1    S    
C3    C24   S    
C23   O5    A    
C2    O4    A    
C32   H10   S    
C10   H22   S    
C37   C39   A    
C35   H11   S    
C41   H15   S    
C4    C6    A    
C42   H16   S    
C13   H3    S    
C4    C23   S    
C18   H18   S    
C14   H4    S    
C11   C26   S    
C1    O1    A    
C32   C34   A    
Cu2   O7    S    
Cu1   Cu2   S    
C36   H12   S    
C19   H5    S    
C5    C34   S    
C29   C39   A    
C2    C21   S    
C8    C18   A    
C30   C40   A    
C31   H9    S    
Cu2   O6    S    
C9    C11   A    
C7    H19   S    
C10   C12   A    
C8    H20   S    
C8    C10   A    
C20   C22   A    
C13   C15   A    
C14   C16   A    
C35   C37   A    
C29   H7    S    
Cu1   O8    S    
C7    C9    A    
C21   C25   A    
C3    C41   A    
C28   N2    T    
C24   O8    A    
C23   O7    A    
C3    C5    A    
C6    C33   S    
C12   C25   S    
C36   C38   A    
C12   C14   A    
C29   C31   A    
C38   C40   A    
C11   C13   A    
C24   O6    A    
C15   H23   S    
C4    C42   A    
C33   C35   A    
C34   C36   A    
C9    H21   S    
C27   N1    T    
C16   C18   A    
C22   C26   A    
C27   C28   S    
Cu2   N1    S    
C2    O2    A    
C37   H13   S    
C30   H8    S    
