data_mof_unit_25731.cif
_audit_creation_date              2012-12-11T15:09:43-0500
_audit_creation_method            fapswitch 2.2
_symmetry_space_group_name_H-M    P1
_symmetry_Int_Tables_number       1
_space_group_crystal_system       triclinic
_cell_length_a                    20.84739
_cell_length_b                    7.125527
_cell_length_c                    14.005384
_cell_angle_alpha                 90.106056
_cell_angle_beta                  97.837641
_cell_angle_gamma                 89.901531
_cell_volume                      2061.04008277

loop_
_atom_site_label
_atom_site_type_symbol
_atom_type_description
_atom_site_fract_x
_atom_site_fract_y
_atom_site_fract_z
_atom_type_partial_charge
O1    O     O_R   0.447130 0.507140 0.597350 -0.532136
O2    O     O_R   0.552870 0.007140 0.402650 -0.532761
O3    O     O_R   0.578910 0.181280 0.586990 -0.535168
O4    O     O_R   0.421090 0.681280 0.413010 -0.536604
C1    C     C_R   0.604510 0.344464 0.607341 0.717636
C2    C     C_R   0.395498 0.844511 0.392627 0.721611
O5    O     O_R   0.449230 0.177860 0.608640 -0.541370
O6    O     O_R   0.550770 0.677860 0.391360 -0.541605
O7    O     O_R   0.422260 0.000770 0.424450 -0.532114
O8    O     O_R   0.577740 0.500770 0.575550 -0.536013
C3    C     C_R   0.432761 0.346743 0.634892 0.695879
C4    C     C_R   0.567095 0.846219 0.364990 0.692701
O9    O     O_3   0.491310 0.336980 0.439550 -0.373160
O10   O     O_3   0.508690 0.836980 0.560450 -0.375029
V1    V     V_3+5 0.501610 0.064760 0.511210 1.467859
V2    V     V_3+5 0.498390 0.564760 0.488790 1.464671
C5    C     C_R   0.618972 0.904006 0.120684 -0.114859
C6    C     C_R   0.380365 0.425091 0.877538 -0.119300
H1    H     H_    0.527748 0.904891 0.175607 0.115242
H2    H     H_    0.471898 0.408003 0.824104 0.116953
H3    H     H_    0.595363 0.928309 0.048196 0.152124
H4    H     H_    0.404160 0.443099 0.950418 0.154012
C7    C     C_R   0.607469 0.856397 0.287889 -0.034405
C8    C     C_R   0.392215 0.359762 0.711854 -0.037430
C9    C     C_R   0.920958 0.865018 0.310259 -0.038054
C10   C     C_R   0.079148 0.343705 0.689839 -0.037512
C11   C     C_R   0.882524 0.902943 0.382118 -0.237471
C12   C     C_R   0.116802 0.376361 0.616459 -0.236208
C13   C     C_R   0.815616 0.930346 0.360457 -0.004432
C14   C     C_R   0.182996 0.416349 0.636593 -0.007040
C15   C     C_R   0.784273 0.894208 0.264984 0.024835
C16   C     C_R   0.214926 0.399228 0.733072 0.025510
C17   C     C_R   0.823583 0.876769 0.190140 0.005642
C18   C     C_R   0.175985 0.388653 0.808627 0.005316
C19   C     C_R   0.715624 0.879536 0.240475 0.086942
C20   C     C_R   0.283761 0.394079 0.757711 0.088744
C21   C     C_R   0.687029 0.889954 0.142188 0.060712
C22   C     C_R   0.312165 0.423126 0.855165 0.066069
C23   C     C_R   0.727049 0.887082 0.068510 -0.025316
C24   C     C_R   0.271847 0.440136 0.928100 -0.025117
C25   C     C_R   0.794129 0.875977 0.093377 -0.226386
C26   C     C_R   0.205293 0.411177 0.904754 -0.228974
C27   C     C_R   0.674538 0.844704 0.310623 -0.143100
C28   C     C_R   0.325133 0.348815 0.689061 -0.145206
C29   C     C_R   0.579776 0.891073 0.193359 -0.173622
C30   C     C_R   0.419767 0.399803 0.805864 -0.174356
C31   C     C_R   0.891927 0.863128 0.212914 -0.083152
C32   C     C_R   0.108061 0.361106 0.786913 -0.083641
H5    H     H_    0.693786 0.807116 0.383629 0.104530
H6    H     H_    0.306213 0.302926 0.617216 0.106390
H7    H     H_    0.905747 0.922583 0.455610 0.151264
H8    H     H_    0.093294 0.381531 0.542465 0.152186
H9    H     H_    0.823325 0.864815 0.035289 0.130840
H10   H     H_    0.176075 0.413517 0.963023 0.135194
C33   C     C_1   0.166706 0.856912 0.168032 -0.118791
C34   C     C_1   0.833351 0.357222 0.831827 -0.117541
C35   C     C_1   0.219082 0.854576 0.219216 0.083571
C36   C     C_1   0.780984 0.354951 0.780614 0.089700
C37   C     C_1   0.280776 0.853246 0.279355 0.056156
C38   C     C_1   0.719268 0.353422 0.720519 0.068425
C39   C     C_1   0.333118 0.851086 0.330637 -0.187341
C40   C     C_1   0.666909 0.351053 0.669284 -0.182154
O11   O     O_R   0.922300 0.202240 0.924350 -0.521069
O12   O     O_R   0.077700 0.702240 0.075650 -0.527119
O13   O     O_R   0.050780 0.535130 0.891350 -0.549922
O14   O     O_R   0.949220 0.035130 0.108650 -0.547696
C41   C     C_R   0.067289 0.367894 0.864806 0.762756
C42   C     C_R   0.932757 0.868348 0.135193 0.763990
O15   O     O_R   0.921100 0.531560 0.912990 -0.545505
O16   O     O_R   0.078900 0.031560 0.087010 -0.539987
O17   O     O_R   0.947120 0.708470 0.097370 -0.532308
O18   O     O_R   0.052880 0.208470 0.902630 -0.528072
C43   C     C_R   0.895781 0.363618 0.893680 0.760694
C44   C     C_R   0.104245 0.863529 0.106263 0.761570
O19   O     O_3   0.008710 0.375800 0.060400 -0.375855
O20   O     O_3   0.991290 0.875800 0.939600 -0.374857
V3    V     V_3+5 0.998380 0.648080 0.988790 1.511948
V4    V     V_3+5 0.001620 0.148080 0.011210 1.527478
C45   C     C_2   0.701029 0.880934 0.964358 0.739731
O21   O     O_2   0.726391 0.975345 0.907010 -0.558907
O22   O     O_R   0.649816 0.760799 0.931074 -0.669634
H11   H     H_    0.637390 0.767338 0.858594 0.295400
C46   C     C_2   0.297078 0.485349 0.029956 0.738932
O23   O     O_2   0.276015 0.402377 0.095455 -0.554159
O24   O     O_R   0.342560 0.628682 0.051171 -0.669399
H12   H     H_    0.355224 0.647526 0.123041 0.292841
C47   C     C_2   0.991680 0.840379 0.340868 0.353096
H13   H     H_    0.012165 0.872449 0.414569 0.060840
O25   O     O_2   0.027631 0.779703 0.286220 -0.533573
C48   C     C_2   0.009095 0.304647 0.660296 0.350725
H14   H     H_    0.988583 0.317994 0.585067 0.060250
O26   O     O_2   0.973731 0.253197 0.717705 -0.532415
C49   C     C_2   0.783313 0.026825 0.435255 0.741630
O27   O     O_2   0.798374 0.988289 0.520466 -0.549396
O28   O     O_R   0.737221 0.166694 0.408423 -0.659874
H15   H     H_    0.718875 0.222384 0.465653 0.291464
C50   C     C_2   0.213431 0.505723 0.558052 0.746124
O29   O     O_2   0.198472 0.455204 0.474452 -0.546979
O30   O     O_R   0.257680 0.652256 0.579407 -0.659912
H16   H     H_    0.274874 0.702005 0.520051 0.293821

loop_
_geom_bond_atom_site_label_1
_geom_bond_atom_site_label_2
_ccdc_geom_bond_type
O14   C42   A    
C47   H13   S    
C49   O27   D    
C7    C29   A    
C11   C13   A    
O12   V3    S    
O15   V3    S    
O28   H15   S    
O1    C3    A    
O2    C4    A    
C2    O7    A    
O22   H11   S    
C23   C25   A    
O24   H12   S    
O5    C3    A    
C14   C50   S    
C16   C20   A    
C2    C39   S    
C19   C21   A    
C5    C29   A    
C35   C37   S    
O16   V4    S    
C36   C38   S    
C3    C8    S    
C9    C47   S    
C7    C27   A    
C38   C40   T    
C41   O18   A    
O18   V4    S    
C33   C44   S    
C46   O23   D    
O13   C41   A    
C18   C26   A    
O16   C44   A    
C15   C17   A    
O15   C43   A    
C14   C16   A    
C19   C27   A    
C9    C31   A    
C10   C32   A    
C24   C26   A    
C49   O28   S    
C13   C15   A    
C24   C46   S    
C6    C30   A    
C50   O30   S    
C11   H7    S    
C50   O29   D    
O14   V4    S    
C37   C39   T    
O13   V3    S    
O20   V3    S    
O4    C2    A    
C45   O22   S    
C13   C49   S    
C27   H5    S    
O5    V1    S    
O11   C43   A    
C5    H3    S    
C23   C45   S    
O4    V2    S    
C48   O26   D    
O30   H16   S    
C4    C7    S    
C10   C48   S    
O6    C4    A    
O1    V2    S    
C5    C21   A    
O2    V1    S    
O19   V3    S    
C25   H9    S    
C46   O24   S    
C33   C35   T    
C17   C31   A    
C15   C19   A    
C20   C28   A    
C18   C32   A    
C31   C42   S    
O17   V3    S    
O3    V1    S    
C28   H6    S    
C34   C43   S    
C6    H4    S    
O20   V4    S    
O3    C1    A    
H1    C29   S    
C9    C11   A    
C10   C12   A    
C8    C30   A    
C12   C14   A    
C6    C22   A    
C17   C25   A    
C1    O8    A    
C21   C23   A    
O8    V2    S    
C26   H10   S    
C22   C24   A    
C12   H8    S    
C48   H14   S    
C42   O17   A    
C8    C28   A    
C20   C22   A    
C34   C36   T    
C1    C40   S    
C32   C41   S    
O7    V1    S    
O19   V4    S    
C45   O21   D    
O6    V2    S    
O9    V2    S    
C47   O25   D    
O12   C44   A    
O10   V1    S    
H2    C30   S    
C16   C18   A    
O11   V4    S    
