data_mof_unit_9122.cif
_audit_creation_date              2012-12-10T17:45:31-0500
_audit_creation_method            fapswitch 2.2
_symmetry_space_group_name_H-M    P1
_symmetry_Int_Tables_number       1
_space_group_crystal_system       triclinic
_cell_length_a                    11.507487
_cell_length_b                    10.707811
_cell_length_c                    10.029957
_cell_angle_alpha                 89.056986
_cell_angle_beta                  91.483849
_cell_angle_gamma                 93.018267
_cell_volume                      1233.62192069

loop_
_atom_site_label
_atom_site_type_symbol
_atom_type_description
_atom_site_fract_x
_atom_site_fract_y
_atom_site_fract_z
_atom_type_partial_charge
C1    C     C_R   0.509169 0.260967 0.501865 0.856975
C2    C     C_R   0.525584 0.046953 0.873340 0.229706
C3    C     C_R   0.457874 0.934925 0.866844 -0.245214
C4    C     C_R   0.432577 0.879201 0.744289 -0.192172
C5    C     C_R   0.474279 0.935306 0.624794 0.096277
C6    C     C_R   0.516455 0.059568 0.628438 0.036164
C7    C     C_R   0.519333 0.127527 0.506145 -0.106143
C8    C     C_R   0.511089 0.065628 0.384449 -0.220136
C9    C     C_R   0.495521 0.938188 0.382490 -0.233314
C10   C     C_R   0.478890 0.871934 0.501884 -0.102869
C11   C     C_R   0.341995 0.340179 0.136621 -0.199032
C12   C     C_R   0.282343 0.499156 0.498634 0.888467
C13   C     C_R   0.266319 0.257767 0.066747 -0.213121
C14   C     C_R   0.267654 0.254216 0.927404 0.189949
C15   C     C_R   0.344082 0.337529 0.859860 -0.196636
C16   C     C_R   0.421002 0.422759 0.927361 0.085285
C17   C     C_R   0.421271 0.422570 0.070776 0.124630
C18   C     C_R   0.581237 0.570936 0.073000 0.165622
C19   C     C_R   0.584161 0.565978 0.929747 0.142973
C20   C     C_R   0.490173 0.738809 0.499708 0.867144
C21   C     C_R   0.717603 0.499961 0.501312 0.908022
C22   C     C_1   0.161610 0.498225 0.496442 -0.196951
C23   C     C_1   0.059236 0.497701 0.497998 -0.004928
C24   C     C_1   0.940500 0.497775 0.501482 -0.017342
C25   C     C_1   0.838204 0.498524 0.503222 -0.215398
C26   C     C_R   0.553250 0.110151 0.753257 -0.164859
H1    H     H_    0.606320 0.196077 0.756892 0.176220
H2    H     H_    0.338311 0.334750 0.242716 0.214474
H3    H     H_    0.208631 0.195656 0.123553 0.162584
N1    N     N_R   0.498930 0.498800 0.142780 -0.150221
N2    N     N_R   0.498900 0.498720 0.857170 -0.152309
O1    O     O_R   0.500000 0.316780 0.614690 -0.647774
O2    O     O_R   0.499990 0.316750 0.385360 -0.632628
O3    O     O_R   0.334450 0.500030 0.614670 -0.628957
O4    O     O_R   0.334440 0.500000 0.385330 -0.622277
O5    O     O_R   0.500010 0.683250 0.614640 -0.640766
O6    O     O_R   0.500000 0.683220 0.385310 -0.648198
O7    O     O_R   0.665560 0.500000 0.614670 -0.619962
O8    O     O_R   0.665550 0.499970 0.385330 -0.604734
Zn1   Zn    Zn3+2 0.500010 0.500020 0.653130 0.901808
Zn2   Zn    Zn3+2 0.499990 0.499980 0.346870 0.916899
H4    H     H_    0.516683 0.115680 0.290249 0.176491
C27   C     C_3   0.191743 0.162753 0.844978 -0.404081
C28   C     C_3   0.116229 0.067947 0.924470 -0.880322
H5    H     H_    0.171543 0.010377 0.990857 0.258032
H6    H     H_    0.052771 0.116443 0.984131 0.257429
H7    H     H_    0.066709 0.004500 0.854490 0.252641
H8    H     H_    0.133937 0.216681 0.777695 0.205663
H9    H     H_    0.248967 0.109680 0.781337 0.214763
H10   H     H_    0.344414 0.329997 0.754050 0.205525
C29   C     C_3   0.688721 0.625000 0.858964 -0.302703
C30   C     C_3   0.785754 0.531915 0.849477 -0.803378
H11   H     H_    0.750562 0.437809 0.819431 0.267020
H12   H     H_    0.850932 0.568068 0.776878 0.243888
H13   H     H_    0.832476 0.516744 0.944849 0.238092
H14   H     H_    0.662591 0.661310 0.760453 0.245956
H15   H     H_    0.725179 0.711340 0.906093 0.170311
C31   C     C_3   0.560632 0.096714 0.009861 -0.427376
C32   C     C_3   0.655965 0.201759 0.012008 -0.880925
H16   H     H_    0.734710 0.171965 0.962003 0.255011
H17   H     H_    0.624709 0.287407 0.962592 0.259930
H18   H     H_    0.680002 0.224929 0.117004 0.260349
H19   H     H_    0.482029 0.129839 0.057032 0.218953
H20   H     H_    0.592766 0.018317 0.072288 0.195909
H21   H     H_    0.428420 0.887929 0.957307 0.138567
H22   H     H_    0.379781 0.792609 0.744436 0.179317
H23   H     H_    0.497113 0.891908 0.287323 0.159023
C33   C     C_3   0.664286 0.664549 0.146035 -0.357764
C34   C     C_3   0.790082 0.626309 0.165135 -0.828687
H24   H     H_    0.794774 0.522960 0.167592 0.272759
H25   H     H_    0.846270 0.669826 0.087355 0.242701
H26   H     H_    0.827051 0.662594 0.261236 0.242261
H27   H     H_    0.661319 0.758857 0.098757 0.148596
H28   H     H_    0.636047 0.680750 0.244639 0.268788

loop_
_geom_bond_atom_site_label_1
_geom_bond_atom_site_label_2
_ccdc_geom_bond_type
C34   H26   S    
O7    Zn1   S    
C23   C24   S    
C9    H23   S    
N1    Zn2   S    
C6    C7    A    
C17   N1    A    
C19   C29   S    
C27   H8    S    
C21   O8    A    
C28   H7    S    
C27   C28   S    
C19   N2    A    
C2    C31   S    
C2    C3    A    
C31   C32   S    
O2    Zn2   S    
C32   H16   S    
C2    C26   A    
C3    H21   S    
C13   C14   A    
N2    Zn1   S    
C12   O4    A    
C4    H22   S    
C20   O6    A    
C11   C13   A    
C26   H1    S    
C6    C26   A    
C30   H11   S    
C11   H2    S    
C12   O3    A    
O3    Zn1   S    
C5    C6    A    
C13   H3    S    
C30   H13   S    
C8    H4    S    
C18   C19   A    
O1    Zn1   S    
O6    Zn2   S    
C34   H24   S    
O4    Zn2   S    
C27   H9    S    
C32   H17   S    
C28   H5    S    
C16   C17   A    
C15   C16   A    
C1    O2    A    
C18   N1    A    
C18   C33   S    
C29   C30   S    
C20   O5    A    
C12   C22   S    
C29   H15   S    
O5    Zn1   S    
C24   C25   T    
O8    Zn2   S    
C29   H14   S    
C9    C10   A    
C15   H10   S    
C10   C20   S    
C31   H19   S    
C34   H25   S    
C7    C8    A    
C21   C25   S    
C22   C23   T    
C8    C9    A    
C32   H18   S    
C14   C15   A    
C28   H6    S    
C31   H20   S    
C5    C10   A    
C33   H27   S    
C1    C7    S    
C4    C5    A    
C33   H28   S    
C33   C34   S    
C1    O1    A    
C11   C17   A    
C21   O7    A    
C3    C4    A    
C30   H12   S    
C14   C27   S    
C16   N2    A    
