data_mof_unit_56798.cif
_audit_creation_date              2012-12-11T14:34:14-0500
_audit_creation_method            fapswitch 2.2
_symmetry_space_group_name_H-M    P1
_symmetry_Int_Tables_number       1
_space_group_crystal_system       triclinic
_cell_length_a                    13.860617
_cell_length_b                    13.977144
_cell_length_c                    27.316182
_cell_angle_alpha                 90.018975
_cell_angle_beta                  90.054342
_cell_angle_gamma                 119.633198
_cell_volume                      4599.86015922

loop_
_atom_site_label
_atom_site_type_symbol
_atom_type_description
_atom_site_fract_x
_atom_site_fract_y
_atom_site_fract_z
_atom_type_partial_charge
C1    C     C_R   0.233567 0.787465 0.568579 0.538649
C2    C     C_1   0.710539 0.862484 0.859603 -0.079933
C3    C     C_1   0.111948 0.881636 0.852239 -0.078887
C4    C     C_1   0.114517 0.232941 0.852551 -0.079114
C5    C     C_1   0.632924 0.816652 0.658201 -0.073572
C6    C     C_1   0.173345 0.819473 0.655445 -0.073345
C7    C     C_1   0.179738 0.360529 0.656664 -0.073767
C8    C     C_1   0.603921 0.797582 0.616090 -0.022520
C9    C     C_1   0.197263 0.807132 0.614520 -0.022992
C10   C     C_1   0.193355 0.394201 0.615356 -0.021966
C11   C     C_R   0.064824 0.150327 0.095942 0.579453
C12   C     C_R   0.212604 0.446623 0.568786 0.541817
C13   C     C_R   0.777479 0.884058 0.088358 0.547621
C14   C     C_R   0.116409 0.893665 0.088156 0.560558
C15   C     C_R   0.069465 0.160656 0.943226 0.539851
C16   C     C_R   0.779877 0.887081 0.950703 0.542134
C17   C     C_R   0.090544 0.929926 0.943410 0.537828
C18   C     C_R   0.618783 0.895767 0.361580 -0.133047
C19   C     C_R   0.097211 0.732744 0.362898 -0.134667
C20   C     C_R   0.264114 0.357253 0.363830 -0.135473
C21   C     C_R   0.645006 0.911331 0.311932 0.014252
C22   C     C_R   0.080567 0.744272 0.313243 0.014301
C23   C     C_R   0.553451 0.765644 0.568814 0.538482
C24   C     C_R   0.241078 0.306262 0.317743 0.013965
C25   C     C_R   0.681205 0.929231 0.210406 0.017175
C26   C     C_R   0.060405 0.760240 0.211601 0.016930
C27   C     C_R   0.200424 0.225394 0.221005 0.016903
C28   C     C_R   0.232547 0.788332 0.431816 0.547712
C29   C     C_R   0.211696 0.444481 0.431389 0.549748
C30   C     C_R   0.555587 0.767195 0.431907 0.548642
C31   C     C_R   0.654074 0.001175 0.234621 -0.137928
C32   C     C_R   0.977112 0.671413 0.237707 -0.127606
C33   C     C_R   0.302635 0.256038 0.243608 -0.123940
C34   C     C_3   0.694518 0.749925 0.786853 -0.220154
C35   C     C_R   0.635783 0.992132 0.285126 -0.130904
C36   C     C_R   0.987765 0.662752 0.288189 -0.128800
C37   C     C_R   0.322963 0.296516 0.291593 -0.128741
C38   C     C_R   0.704247 0.939720 0.160145 -0.150247
C39   C     C_R   0.050451 0.771348 0.161230 -0.135377
C40   C     C_R   0.182638 0.194708 0.171514 -0.128806
C41   C     C_R   0.728587 0.864717 0.137035 -0.003198
C42   C     C_R   0.135224 0.861311 0.136256 -0.005072
C43   C     C_R   0.082700 0.172399 0.148620 -0.008898
C44   C     C_R   0.658390 0.744538 0.364019 -0.131436
C45   C     C_3   0.232366 0.961562 0.780191 -0.222011
C46   C     C_R   0.266350 0.910733 0.361900 -0.128427
C47   C     C_R   0.076193 0.327863 0.368077 -0.130340
C48   C     C_R   0.682357 0.757281 0.314453 0.013465
C49   C     C_R   0.254550 0.920364 0.312195 0.013823
C50   C     C_R   0.052675 0.278850 0.322009 0.011715
C51   C     C_R   0.673203 0.839306 0.287983 0.063952
C52   C     C_R   0.162417 0.836002 0.287443 0.063323
C53   C     C_R   0.136012 0.270052 0.296185 0.062616
C54   C     C_R   0.707016 0.683711 0.290349 -0.126925
C55   C     C_R   0.337917 0.009324 0.286410 -0.127139
C56   C     C_3   0.025954 0.258164 0.778623 -0.223155
C57   C     C_R   0.949344 0.245192 0.300101 -0.129191
C58   C     C_R   0.718792 0.688776 0.239855 -0.127251
C59   C     C_R   0.331962 0.013032 0.235813 -0.129509
C60   C     C_R   0.930408 0.208043 0.251891 -0.122494
C61   C     C_R   0.709244 0.769468 0.213387 0.011029
C62   C     C_R   0.240693 0.929875 0.210912 0.014304
C63   C     C_R   0.013394 0.201582 0.225407 0.016581
C64   C     C_3   0.550256 0.821085 0.738970 -0.079840
C65   C     C_3   0.159457 0.742712 0.739833 -0.081073
C66   C     C_3   0.245913 0.426508 0.742143 -0.080265
C67   C     C_3   0.676471 0.739636 0.730669 -0.231163
C68   C     C_R   0.688337 0.846427 0.237277 0.065259
C69   C     C_R   0.154279 0.842012 0.236651 0.063822
C70   C     C_R   0.116005 0.230503 0.247787 0.062022
C71   C     C_R   0.723746 0.776095 0.163380 -0.123064
C72   C     C_R   0.232681 0.935862 0.160743 -0.132688
C73   C     C_R   0.997241 0.171839 0.176187 -0.129397
C74   C     C_R   0.618646 0.807841 0.386723 -0.003383
C75   C     C_R   0.193624 0.813156 0.386410 -0.003646
C76   C     C_R   0.183189 0.372340 0.388172 -0.004926
C77   C     C_3   0.758084 0.943173 0.723421 -0.209487
C78   C     C_3   0.244624 0.947389 0.724842 -0.230473
C79   C     C_3   0.040199 0.827490 0.714953 -0.208277
C80   C     C_3   0.182059 0.227991 0.716598 -0.208121
C81   C     C_3   0.776199 0.955405 0.779645 -0.215548
C82   C     C_3   0.024084 0.843753 0.769953 -0.215444
C83   C     C_3   0.168451 0.196883 0.771509 -0.218179
C84   C     C_1   0.736485 0.873205 0.902134 -0.027736
C85   C     C_1   0.101940 0.902215 0.894110 -0.023921
C86   C     C_1   0.096117 0.200839 0.894177 -0.026125
C87   C     C_3   0.654215 0.831292 0.711244 0.088649
C88   C     C_3   0.153295 0.832325 0.707257 0.088212
C89   C     C_3   0.044500 0.293654 0.724174 -0.229748
C90   C     C_3   0.164916 0.328208 0.708443 0.088748
C91   C     C_3   0.572159 0.834192 0.795228 -0.193705
C92   C     C_3   0.139059 0.758503 0.794716 -0.191223
C93   C     C_3   0.226300 0.390363 0.796959 -0.189586
C94   C     C_3   0.688467 0.850674 0.806691 0.063199
C95   C     C_3   0.126223 0.861685 0.800595 0.061474
C96   C     C_3   0.133378 0.268941 0.801242 0.061670
C97   C     C_3   0.512576 0.901608 0.720754 -0.428691
C98   C     C_3   0.080521 0.623495 0.723225 -0.429713
C99   C     C_3   0.369243 0.475622 0.728652 -0.431818
Cr1   Cr    Cr6+3 0.164410 0.584450 0.499910 1.015910
Cr2   Cr    Cr6+3 0.415550 0.579960 0.499910 1.016668
Cr3   Cr    Cr6+3 0.420040 0.835590 0.499910 1.013246
Cr4   Cr    Cr6+3 0.155170 0.075460 0.019960 1.015083
Cr5   Cr    Cr6+3 0.924540 0.079710 0.019960 1.005396
Cr6   Cr    Cr6+3 0.920290 0.844830 0.019960 1.007513
H1    H     H_    0.566002 0.905236 0.810044 0.121377
H2    H     H_    0.776570 0.758401 0.795747 0.111818
H3    H     H_    0.229670 0.038259 0.786554 0.108723
H4    H     H_    0.957983 0.171688 0.781303 0.109256
H5    H     H_    0.706896 0.007306 0.139587 0.104461
H6    H     H_    0.975270 0.713783 0.142107 0.114144
H7    H     H_    0.247787 0.192478 0.150478 0.122083
H8    H     H_    0.589414 0.945964 0.379330 0.127228
H9    H     H_    0.039684 0.658207 0.382078 0.122897
H10   H     H_    0.346535 0.390410 0.379356 0.124430
H11   H     H_    0.647016 0.064285 0.214535 0.098057
H12   H     H_    0.063417 0.685374 0.809132 0.124193
H13   H     H_    0.904767 0.607942 0.218987 0.098406
H14   H     H_    0.368144 0.252258 0.223628 0.100627
H15   H     H_    0.613244 0.047398 0.303107 0.099413
H16   H     H_    0.924091 0.592010 0.307526 0.100599
H17   H     H_    0.403797 0.323205 0.307714 0.101762
H18   H     H_    0.740576 0.716399 0.145649 0.129289
H19   H     H_    0.298774 0.004913 0.141370 0.123297
H20   H     H_    0.919194 0.151889 0.158717 0.117858
H21   H     H_    0.735582 0.629846 0.221491 0.098196
H22   H     H_    0.398100 0.081342 0.216205 0.094452
H23   H     H_    0.303425 0.400198 0.814334 0.123490
H24   H     H_    0.852507 0.188458 0.234694 0.110404
H25   H     H_    0.713681 0.620214 0.310315 0.100932
H26   H     H_    0.409361 0.074052 0.305187 0.096911
H27   H     H_    0.884840 0.251982 0.319525 0.102901
H28   H     H_    0.660381 0.678119 0.383686 0.127774
H29   H     H_    0.339415 0.974724 0.380126 0.130994
H30   H     H_    0.012596 0.337369 0.386906 0.129950
H31   H     H_    0.832636 0.947968 0.705677 0.104130
H32   H     H_    0.037185 0.893265 0.693163 0.104622
H33   H     H_    0.119904 0.156462 0.694901 0.105986
H34   H     H_    0.479314 0.736935 0.732205 0.123445
H35   H     H_    0.749825 0.012827 0.708668 0.112143
H36   H     H_    0.970700 0.747972 0.701732 0.112954
H37   H     H_    0.265145 0.245551 0.703560 0.112774
H38   H     H_    0.770454 0.027996 0.792463 0.108984
H39   H     H_    0.948667 0.769626 0.783606 0.107348
H40   H     H_    0.248723 0.208952 0.786006 0.109126
H41   H     H_    0.861077 0.970635 0.788433 0.102941
H42   H     H_    0.010015 0.914941 0.774282 0.100648
H43   H     H_    0.105017 0.108679 0.775631 0.103533
H44   H     H_    0.605707 0.657096 0.721562 0.109968
H45   H     H_    0.244935 0.755012 0.736744 0.123461
H46   H     H_    0.328446 0.959021 0.717327 0.108527
H47   H     H_    0.028130 0.363294 0.718807 0.109165
H48   H     H_    0.751264 0.745678 0.712589 0.113045
H49   H     H_    0.238476 0.012963 0.704267 0.115105
H50   H     H_    0.983885 0.224267 0.700993 0.113659
H51   H     H_    0.630264 0.673361 0.804862 0.114180
H52   H     H_    0.306683 0.970372 0.799904 0.115184
H53   H     H_    0.999540 0.309916 0.799311 0.115823
H54   H     H_    0.488546 0.887232 0.681534 0.149957
H55   H     H_    0.438927 0.888190 0.742053 0.108184
H56   H     H_    0.226230 0.494214 0.737571 0.121897
H57   H     H_    0.578176 0.988477 0.726021 0.136992
H58   H     H_    0.098479 0.610375 0.684992 0.148181
H59   H     H_    0.092434 0.565618 0.746936 0.110136
H60   H     H_    0.992404 0.602605 0.725984 0.136864
H61   H     H_    0.384771 0.507134 0.690522 0.145313
H62   H     H_    0.420229 0.545777 0.753418 0.109686
H63   H     H_    0.397237 0.414204 0.732863 0.137578
H64   H     H_    0.507666 0.759381 0.814262 0.098646
H65   H     H_    0.210165 0.767433 0.817150 0.102210
H66   H     H_    0.202572 0.444190 0.817682 0.103462
O1    O     O_R   0.137150 0.468200 0.553200 -0.512498
O2    O     O_R   0.140110 0.470540 0.446010 -0.521528
O3    O     O_R   0.529460 0.669570 0.446010 -0.521556
O4    O     O_R   0.330430 0.859890 0.446010 -0.524040
O5    O     O_R   0.176710 0.690910 0.450560 -0.501913
O6    O     O_R   0.309090 0.485800 0.450560 -0.501073
O7    O     O_R   0.514200 0.823290 0.450560 -0.503909
O8    O     O_3   0.333333 0.666667 0.499990 -0.262457
O9    O     O_R   0.176750 0.985260 0.074180 -0.529914
O10   O     O_R   0.014740 0.191490 0.074180 -0.494702
O11   O     O_R   0.808510 0.823250 0.074180 -0.517429
O12   O     O_R   0.531800 0.668950 0.553200 -0.512126
O13   O     O_R   0.146100 0.172630 0.068980 -0.479341
O14   O     O_R   0.827370 0.973470 0.068980 -0.517599
O15   O     O_R   0.026530 0.853900 0.068980 -0.488991
O16   O     O_3   0.000000 1.000000 0.020040 -0.286426
O17   O     O_R   0.148270 0.170520 0.969620 -0.490967
O18   O     O_R   0.829480 0.977750 0.969620 -0.519702
O19   O     O_R   0.022250 0.851730 0.969620 -0.482264
O20   O     O_R   0.331050 0.862850 0.553200 -0.510970
O21   O     O_R   0.179100 0.982980 0.967000 -0.504736
O22   O     O_R   0.017020 0.196120 0.967000 -0.484035
O23   O     O_R   0.803880 0.820900 0.967000 -0.511630
O24   O     O_R   0.173970 0.688730 0.549930 -0.501375
O25   O     O_R   0.311270 0.485240 0.549930 -0.500507
O26   O     O_R   0.514760 0.826030 0.549930 -0.499726

loop_
_geom_bond_atom_site_label_1
_geom_bond_atom_site_label_2
_ccdc_geom_bond_type
C25   C31   A    
C65   C92   S    
C26   C32   A    
C55   C59   A    
C67   H44   S    
C18   C21   A    
C56   H4    S    
C57   H27   S    
C2    C84   T    
C11   O10   A    
C77   H35   S    
C6    C9    T    
C13   C41   S    
C98   H58   S    
C35   H15   S    
C40   H7    S    
C29   C76   S    
C27   C33   A    
C48   C54   A    
Cr5   O14   S    
C46   C49   A    
C60   C63   A    
C17   C85   S    
C34   H2    S    
C97   H54   S    
C71   H18   S    
C1    O24   A    
C47   C76   A    
C30   C74   S    
C73   H20   S    
C26   C39   A    
C89   H50   S    
Cr1   O1    S    
C83   C96   S    
C59   H22   S    
C16   C84   S    
C8    C23   S    
C6    C88   S    
C20   C76   A    
Cr4   O9    S    
C7    C10   T    
C65   H45   S    
C79   C88   S    
C56   H53   S    
C52   C69   A    
C83   H40   S    
C43   C73   A    
C89   H47   S    
C1    C9    S    
C20   C24   A    
C92   H65   S    
Cr1   O5    S    
Cr5   O22   S    
C45   H52   S    
C11   C43   S    
C45   C78   S    
C77   H31   S    
Cr6   O11   S    
C39   C42   A    
C64   C87   S    
Cr2   O12   S    
Cr2   O25   S    
C14   C42   S    
C99   H61   S    
C61   C71   A    
C58   C61   A    
C39   H6    S    
Cr5   O10   S    
C18   C74   A    
C29   O6    A    
C72   H19   S    
Cr3   O8    S    
C12   O25   A    
C91   H1    S    
Cr2   O3    S    
C11   O13   A    
C25   C68   A    
C80   C83   S    
C53   C70   A    
C18   H8    S    
C46   C75   A    
C58   H21   S    
C78   H46   S    
C82   H42   S    
C47   C50   A    
C99   H62   S    
C40   C43   A    
C17   O21   A    
C4    C96   S    
Cr6   O23   S    
C54   H25   S    
C48   C51   A    
C50   C53   A    
C13   O14   A    
C91   H64   S    
Cr4   O13   S    
C97   H55   S    
C2    C94   S    
C19   C22   A    
Cr4   O16   S    
C38   C41   A    
C12   O1    A    
Cr3   O26   S    
C29   O2    A    
C78   H49   S    
C57   C60   A    
C63   C73   A    
C19   H9    S    
C24   C53   A    
C49   C55   A    
C7    C90   S    
C92   C95   S    
C33   C37   A    
C37   H17   S    
C62   C69   A    
C15   O22   A    
Cr6   O15   S    
C34   C67   S    
C92   H12   S    
C13   O11   A    
C14   O15   A    
C23   O12   A    
Cr2   O8    S    
C25   C38   A    
C46   H29   S    
C63   C70   A    
C77   C81   S    
C27   C40   A    
C49   C52   A    
C42   C72   A    
Cr3   O20   S    
C30   O7    A    
C62   C72   A    
C44   C74   A    
C77   C87   S    
C27   C70   A    
C10   C12   S    
C15   C86   S    
C1    O20   A    
C82   H39   S    
C56   C89   S    
C79   H32   S    
C81   H41   S    
C93   C96   S    
C55   H26   S    
C66   C93   S    
Cr3   O7    S    
C31   C35   A    
C3    C85   T    
C5    C8    T    
C38   H5    S    
C45   C95   S    
C32   C36   A    
C31   H11   S    
C21   C51   A    
C65   C88   S    
C22   C52   A    
C99   H63   S    
C54   C58   A    
Cr1   O24   S    
C78   C88   S    
C44   H28   S    
C56   C96   S    
Cr5   O16   S    
C93   H66   S    
C59   C62   A    
C82   C95   S    
C47   H30   S    
C79   C82   S    
C50   C57   A    
C67   C87   S    
Cr6   O19   S    
C28   O5    A    
Cr4   O17   S    
C34   C94   S    
C32   H13   S    
C66   C99   S    
C60   H24   S    
C65   C98   S    
C20   H10   S    
C98   H59   S    
C45   H3    S    
C28   O4    A    
C33   H14   S    
C21   C35   A    
C34   H51   S    
C17   O19   A    
C24   C37   A    
C22   C36   A    
C15   O17   A    
C23   O26   A    
C80   H37   S    
C41   C71   A    
C67   H48   S    
Cr6   O16   S    
C19   C75   A    
C36   H16   S    
Cr3   O4    S    
C93   H23   S    
C91   C94   S    
C81   C94   S    
Cr1   O8    S    
C61   C68   A    
C79   H36   S    
C64   C97   S    
C80   H33   S    
Cr5   O18   S    
C66   C90   S    
C51   C68   A    
C80   C90   S    
C98   H60   S    
C16   O23   A    
C16   O18   A    
C83   H43   S    
C5    C87   S    
C81   H38   S    
C4    C86   T    
C66   H56   S    
C97   H57   S    
Cr1   O2    S    
C26   C69   A    
C3    C95   S    
Cr4   O21   S    
C64   C91   S    
C89   C90   S    
C28   C75   S    
C30   O3    A    
Cr2   O6    S    
C14   O9    A    
C44   C48   A    
C64   H34   S    
