data_mof_unit_61065.cif
_audit_creation_date              2012-12-10T19:51:36-0500
_audit_creation_method            fapswitch 2.2
_symmetry_space_group_name_H-M    P1
_symmetry_Int_Tables_number       1
_space_group_crystal_system       triclinic
_cell_length_a                    14.17798
_cell_length_b                    13.639975
_cell_length_c                    14.992591
_cell_angle_alpha                 90.071257
_cell_angle_beta                  89.2846
_cell_angle_gamma                 82.909552
_cell_volume                      2876.96808085

loop_
_atom_site_label
_atom_site_type_symbol
_atom_type_description
_atom_site_fract_x
_atom_site_fract_y
_atom_site_fract_z
_atom_type_partial_charge
C1    C     C_R   0.500809 0.498929 0.327652 0.919188
C2    C     C_R   0.785915 0.576536 0.538075 -0.041506
C3    C     C_R   0.197828 0.547454 0.566203 0.759803
C4    C     C_R   0.805291 0.423637 0.461728 0.749994
C5    C     C_R   0.098613 0.547844 0.567547 -0.331802
C6    C     C_R   0.904628 0.422220 0.461292 -0.332323
C7    C     C_R   0.053362 0.500418 0.499519 0.087263
C8    C     C_R   0.946625 0.500468 0.499567 0.079692
C9    C     C_R   0.517037 0.314178 0.499997 0.873547
C10   C     C_R   0.482970 0.685826 0.500041 0.930623
C11   C     C_1   0.469873 0.789496 0.500218 -0.122127
C12   C     C_R   0.499424 0.498892 0.672274 0.930490
C13   C     C_1   0.530166 0.210520 0.500043 -0.129578
C14   C     C_2   0.459076 0.980977 0.500512 0.475680
C15   C     C_2   0.541024 0.019042 0.500166 0.478709
C16   C     C_1   0.538534 0.122819 0.500099 0.037210
C17   C     C_1   0.461549 0.877200 0.500378 0.046858
C18   C     C_R   0.575870 0.450215 0.089799 -0.148626
C19   C     C_R   0.436528 0.448234 0.909418 -0.146142
C20   C     C_R   0.577889 0.445990 0.182312 0.058239
C21   C     C_R   0.436162 0.443835 0.816868 0.104000
C22   C     C_R   0.502240 0.499431 0.231368 -0.194084
C23   C     C_R   0.425056 0.556342 0.095441 -0.231488
C24   C     C_R   0.497649 0.499275 0.768438 -0.180823
C25   C     C_R   0.426200 0.554272 0.187398 0.592617
C26   C     C_R   0.558630 0.556251 0.812856 0.595965
C27   C     C_3   0.658829 0.382097 0.226013 -0.717251
C28   C     C_3   0.373035 0.377414 0.772360 -0.778456
C29   C     C_R   0.558725 0.558499 0.904824 -0.232268
C30   C     C_R   0.499919 0.504851 0.047526 0.003131
C31   C     C_R   0.497534 0.504995 0.952232 -0.002830
C32   C     C_R   0.111901 0.452953 0.431552 -0.249684
C33   C     C_R   0.884852 0.578538 0.538089 -0.249596
C34   C     C_R   0.211034 0.453203 0.433326 -0.039632
F1    F     F_    0.626333 0.960943 0.499775 -0.650419
F2    F     F_    0.373770 0.039082 0.500886 -0.653609
F3    F     F_    0.353939 0.607317 0.233354 -0.642813
F4    F     F_    0.616803 0.611095 0.767288 -0.649158
F5    F     F_    0.239247 0.595206 0.631516 -0.648517
F6    F     F_    0.766949 0.347816 0.423756 -0.659585
H1    H     H_    0.632461 0.409932 0.050195 0.162643
H2    H     H_    0.947993 0.359208 0.432112 0.178655
H3    H     H_    0.630583 0.330761 0.274093 0.251450
H4    H     H_    0.703781 0.336623 0.176374 0.222671
H5    H     H_    0.705239 0.429174 0.260906 0.269908
H6    H     H_    0.314702 0.422463 0.736870 0.279480
H7    H     H_    0.415391 0.326979 0.724554 0.226030
H8    H     H_    0.339834 0.330966 0.821606 0.228667
H9    H     H_    0.390717 0.406335 0.948604 0.162134
H10   H     H_    0.366342 0.598352 0.061431 0.187362
H11   H     H_    0.605988 0.602078 0.939244 0.184988
H12   H     H_    0.081676 0.416864 0.376390 0.165048
H13   H     H_    0.912189 0.641773 0.567147 0.176956
H14   H     H_    0.254904 0.416247 0.380825 0.171527
H15   H     H_    0.739751 0.636822 0.568353 0.200956
H16   H     H_    0.058080 0.584251 0.622401 0.177141
N1    N     N_R   0.252470 0.500000 0.499980 -0.145469
N2    N     N_R   0.747530 0.500000 0.500020 -0.150406
O1    O     O_R   0.579480 0.500010 0.369070 -0.611837
O2    O     O_R   0.420520 0.499990 0.630930 -0.577557
O3    O     O_R   0.420520 0.500010 0.369060 -0.581510
O4    O     O_R   0.579480 0.499990 0.630940 -0.579197
O5    O     O_R   0.590920 0.359650 0.500030 -0.556844
O6    O     O_R   0.409080 0.640350 0.499970 -0.565734
O7    O     O_R   0.431960 0.359650 0.500020 -0.626234
O8    O     O_R   0.568040 0.640350 0.499980 -0.617815
Zn1   Zn    Zn3+2 0.606140 0.500000 0.500010 1.034234
Zn2   Zn    Zn3+2 0.393860 0.500000 0.499990 1.042062

loop_
_geom_bond_atom_site_label_1
_geom_bond_atom_site_label_2
_ccdc_geom_bond_type
C34   N1    A    
C2    N2    A    
C28   H7    S    
C18   C30   A    
C20   C27   S    
C12   O4    A    
C12   C24   S    
C5    H16   S    
C10   O6    A    
C14   C17   S    
O5    Zn1   S    
C2    H15   S    
O7    Zn2   S    
C19   C31   A    
C27   H5    S    
O6    Zn2   S    
C1    O1    A    
O8    Zn1   S    
C13   C16   T    
C28   H8    S    
C3    F5    S    
C7    C8    S    
C29   C31   A    
C14   F2    S    
O3    Zn2   S    
C28   H6    S    
C10   O8    A    
O4    Zn1   S    
C3    N1    A    
C2    C33   A    
C15   F1    S    
C19   C21   A    
C21   C28   S    
C24   C26   A    
C34   H14   S    
C18   C20   A    
C8    C33   A    
C23   C25   A    
C33   H13   S    
C30   C31   S    
C9    O7    A    
C19   H9    S    
C21   C24   A    
C10   C11   S    
N1    Zn2   S    
C1    O3    A    
C15   C16   S    
C12   O2    A    
C23   C30   A    
C27   H3    S    
N2    Zn1   S    
C1    C22   S    
O1    Zn1   S    
O2    Zn2   S    
C26   C29   A    
C4    C6    A    
C29   H11   S    
C18   H1    S    
C4    N2    A    
C5    C7    A    
C9    C13   S    
C14   C15   D    
C26   F4    S    
C23   H10   S    
C6    C8    A    
C7    C32   A    
C25   F3    S    
C32   C34   A    
C9    O5    A    
C6    H2    S    
C27   H4    S    
C32   H12   S    
C4    F6    S    
C20   C22   A    
C3    C5    A    
C22   C25   A    
C11   C17   T    
