data_mof_unit_58121.cif
_audit_creation_date              2012-12-10T16:49:24-0500
_audit_creation_method            fapswitch 2.2
_symmetry_space_group_name_H-M    P1
_symmetry_Int_Tables_number       1
_space_group_crystal_system       triclinic
_cell_length_a                    19.352229
_cell_length_b                    8.684606
_cell_length_c                    7.436196
_cell_angle_alpha                 102.840833
_cell_angle_beta                  95.126561
_cell_angle_gamma                 92.374084
_cell_volume                      1211.22650097

loop_
_atom_site_label
_atom_site_type_symbol
_atom_type_description
_atom_site_fract_x
_atom_site_fract_y
_atom_site_fract_z
_atom_type_partial_charge
C1    C     C_R   0.497907 0.199648 0.453270 0.889003
C2    C     C_R   0.502093 0.800352 0.546730 0.889002
C3    C     C_2   0.496893 0.031884 0.426787 -0.359500
C4    C     C_2   0.503107 0.968116 0.573212 -0.359500
C5    C     C_R   0.367274 0.494617 0.499769 0.796449
C6    C     C_R   0.632726 0.505383 0.500231 0.796449
C7    C     C_R   0.261690 0.548194 0.662751 -0.212349
C8    C     C_R   0.738310 0.451806 0.337249 -0.212349
C9    C     C_R   0.189858 0.549775 0.666628 -0.012829
C10   C     C_R   0.810142 0.450225 0.333372 -0.012829
C11   C     C_R   0.145471 0.488279 0.503022 -0.030919
C12   C     C_R   0.854529 0.511721 0.496978 -0.030919
C13   C     C_R   0.173851 0.419716 0.337501 -0.062579
C14   C     C_R   0.826149 0.580283 0.662499 -0.062579
C15   C     C_R   0.246384 0.417402 0.334694 -0.064954
C16   C     C_R   0.753616 0.582598 0.665306 -0.064955
C17   C     C_R   0.290788 0.485749 0.498074 -0.098423
C18   C     C_R   0.709212 0.514251 0.501925 -0.098423
C19   C     C_R   0.930225 0.503833 0.496631 0.398189
C20   C     C_R   0.069775 0.496167 0.503369 0.398189
Cu1   Cu    Cu3+1 0.507710 0.517380 0.684380 0.973827
Cu2   Cu    Cu3+1 0.492290 0.482620 0.315620 0.973827
H1    H     H_    0.295165 0.599433 0.788663 0.166252
H2    H     H_    0.704834 0.400567 0.211337 0.166252
H3    H     H_    0.491028 0.960479 0.285566 0.181820
H4    H     H_    0.508971 0.039521 0.714434 0.181820
H5    H     H_    0.445124 0.378709 0.947981 0.238026
H6    H     H_    0.554876 0.621291 0.052019 0.238026
N1    N     N_R   0.032905 0.557546 0.374878 -0.190711
N2    N     N_R   0.967095 0.442454 0.625122 -0.190711
N3    N     N_R   0.964230 0.561499 0.371630 -0.191388
N4    N     N_R   0.035770 0.438501 0.628370 -0.191388
N5    N     N_2   0.480680 0.456420 0.038530 -0.215166
N6    N     N_2   0.519320 0.543580 0.961470 -0.215167
O1    O     O_R   0.505010 0.286130 0.619770 -0.583792
O2    O     O_R   0.494990 0.713870 0.380230 -0.583792
O3    O     O_R   0.491990 0.256780 0.308370 -0.581839
O4    O     O_R   0.508010 0.743220 0.691630 -0.581839
O5    O     O_R   0.406650 0.514660 0.655750 -0.587650
O6    O     O_R   0.593350 0.485340 0.344250 -0.587650
O7    O     O_R   0.393640 0.485310 0.344340 -0.572219
O8    O     O_R   0.606360 0.514690 0.655660 -0.572219
C21   C     C_1   0.163119 0.621307 0.839148 0.275382
N7    N     N_1   0.141771 0.678617 0.977323 -0.233698
C22   C     C_1   0.836881 0.378693 0.160852 0.275382
N8    N     N_1   0.858229 0.321383 0.022677 -0.233698
C23   C     C_1   0.128477 0.347169 0.171065 0.294657
N9    N     N_1   0.092388 0.289412 0.038459 -0.206755
C24   C     C_1   0.871523 0.652831 0.828935 0.294657
N10   N     N_1   0.907612 0.710588 0.961541 -0.206755
C25   C     C_1   0.274058 0.340260 0.164568 0.275563
N11   N     N_1   0.295853 0.278631 0.028679 -0.284395
C26   C     C_1   0.725942 0.659740 0.835432 0.275563
N12   N     N_1   0.704147 0.721369 0.971321 -0.284395

loop_
_geom_bond_atom_site_label_1
_geom_bond_atom_site_label_2
_ccdc_geom_bond_type
C22   N8    T    
C2    C4    S    
C21   N7    T    
C26   N12   T    
Cu1   O1    S    
C15   C25   S    
C11   C13   A    
C2    O4    A    
C4    H4    S    
C23   N9    T    
Cu1   O5    S    
C1    O3    A    
C19   N3    A    
C10   C22   S    
C5    O5    A    
N5    N6    D    
C3    C4    D    
H6    N6    S    
N1    N3    A    
Cu1   Cu2   S    
H5    N5    S    
N2    N4    A    
C9    C11   A    
C10   C12   A    
C7    H1    S    
C12   C19   S    
C8    C10   A    
C8    H2    S    
C12   C14   A    
C14   C16   A    
C20   N1    A    
C13   C15   A    
C6    O8    A    
C6    C18   S    
C6    O6    A    
C11   C20   S    
C9    C21   S    
Cu2   O7    S    
C5    C17   S    
C25   N11   T    
C14   C24   S    
C7    C9    A    
C3    H3    S    
Cu2   O2    S    
C1    O1    A    
C16   C18   A    
C24   N10   T    
C20   N4    A    
C2    O2    A    
C15   C17   A    
Cu2   N5    S    
C5    O7    A    
Cu2   O6    S    
Cu1   N6    S    
C1    C3    S    
C16   C26   S    
C19   N2    A    
C13   C23   S    
Cu2   O3    S    
C8    C18   A    
Cu1   O4    S    
Cu1   O8    S    
C7    C17   A    
