data_mof_unit_48843.cif
_audit_creation_date              2012-12-11T14:42:10-0500
_audit_creation_method            fapswitch 2.2
_symmetry_space_group_name_H-M    P1
_symmetry_Int_Tables_number       1
_space_group_crystal_system       triclinic
_cell_length_a                    18.993849
_cell_length_b                    10.917346
_cell_length_c                    18.82138
_cell_angle_alpha                 89.961055
_cell_angle_beta                  90.293495
_cell_angle_gamma                 90.226361
_cell_volume                      3902.7644198

loop_
_atom_site_label
_atom_site_type_symbol
_atom_type_description
_atom_site_fract_x
_atom_site_fract_y
_atom_site_fract_z
_atom_type_partial_charge
C1    C     C_R   0.726559 0.957478 0.854578 0.533162
C2    C     C_R   0.273397 0.957550 0.145464 0.537686
C3    C     C_R   0.226559 0.457478 0.854578 0.533162
C4    C     C_R   0.773397 0.457550 0.145464 0.537686
C5    C     C_R   0.692674 0.457102 0.037733 -0.025239
C6    C     C_R   0.307538 0.456419 0.962016 -0.024642
C7    C     C_R   0.192674 0.957102 0.037733 -0.025239
C8    C     C_R   0.807538 0.956420 0.962016 -0.024642
C9    C     C_R   0.757300 0.426071 0.071837 0.022830
C10   C     C_R   0.242471 0.426404 0.928274 0.023947
C11   C     C_R   0.257300 0.926072 0.071837 0.022830
C12   C     C_R   0.742471 0.926404 0.928274 0.023947
C13   C     C_R   0.815111 0.389044 0.030992 -0.144094
C14   C     C_R   0.184376 0.391034 0.969439 -0.144299
C15   C     C_R   0.315111 0.889044 0.030992 -0.144094
C16   C     C_R   0.684376 0.891034 0.969439 -0.144299
C17   C     C_R   0.811028 0.386278 0.958388 -0.137638
C18   C     C_R   0.188747 0.388430 0.042049 -0.137295
C19   C     C_R   0.311028 0.886278 0.958388 -0.137638
C20   C     C_R   0.688747 0.888430 0.042049 -0.137295
C21   C     C_R   0.747181 0.409449 0.924427 0.015753
C22   C     C_R   0.253018 0.410212 0.075660 0.015772
C23   C     C_R   0.247181 0.909449 0.924427 0.015753
C24   C     C_R   0.753018 0.910212 0.075660 0.015772
C25   C     C_R   0.473168 0.280807 0.545482 -0.115181
C26   C     C_R   0.452364 0.282381 0.475852 -0.128918
C27   C     C_R   0.973169 0.780808 0.545482 -0.115180
C28   C     C_R   0.952365 0.782381 0.475852 -0.128919
C29   C     C_R   0.447217 0.173063 0.438068 0.018823
C30   C     C_R   0.489224 0.169799 0.579148 0.021688
C31   C     C_R   0.947217 0.673063 0.438068 0.018823
C32   C     C_R   0.989224 0.669800 0.579148 0.021690
C33   C     C_R   0.456507 0.060303 0.472917 -0.121515
C34   C     C_R   0.477951 0.058605 0.543738 -0.127086
C35   C     C_R   0.956506 0.560303 0.472917 -0.121515
C36   C     C_R   0.977950 0.558605 0.543738 -0.127087
C37   C     C_R   0.802479 0.340085 0.532831 -0.114102
C38   C     C_R   0.205917 0.317262 0.470621 -0.095679
C39   C     C_R   0.302480 0.840087 0.532832 -0.114103
C40   C     C_R   0.705916 0.817264 0.470620 -0.095680
C41   C     C_R   0.802176 0.333821 0.459487 -0.017500
C42   C     C_R   0.206259 0.319140 0.544206 -0.011198
C43   C     C_R   0.302177 0.833823 0.459487 -0.017500
C44   C     C_R   0.706259 0.819141 0.544205 -0.011198
C45   C     C_R   0.529808 0.177461 0.850855 0.549266
C46   C     C_R   0.470097 0.177732 0.149084 0.562514
C47   C     C_R   0.029808 0.677461 0.850855 0.549266
C48   C     C_R   0.970097 0.677733 0.149084 0.562514
C49   C     C_R   0.750196 0.399410 0.420673 0.009864
C50   C     C_R   0.252332 0.400819 0.580135 0.007537
C51   C     C_R   0.250196 0.899409 0.420673 0.009864
C52   C     C_R   0.752332 0.900819 0.580135 0.007538
C53   C     C_R   0.689698 0.442253 0.456692 -0.009092
C54   C     C_R   0.307166 0.459159 0.541543 -0.006020
C55   C     C_R   0.189697 0.942251 0.456691 -0.009092
C56   C     C_R   0.807167 0.959158 0.541543 -0.006019
C57   C     C_R   0.688461 0.437828 0.530980 -0.162508
C58   C     C_R   0.305960 0.454571 0.467275 -0.182558
C59   C     C_R   0.188461 0.937825 0.530980 -0.162504
C60   C     C_R   0.805960 0.954570 0.467275 -0.182557
C61   C     C_R   0.745671 0.390450 0.569378 -0.021460
C62   C     C_R   0.254731 0.385859 0.431511 -0.013506
C63   C     C_R   0.245671 0.890450 0.569378 -0.021460
C64   C     C_R   0.754731 0.885859 0.431510 -0.013507
C65   C     C_R   0.738172 0.364201 0.852655 0.544047
C66   C     C_R   0.261884 0.364542 0.147372 0.550611
C67   C     C_R   0.238172 0.864201 0.852655 0.544046
C68   C     C_R   0.761884 0.864542 0.147372 0.550611
C69   C     C_R   0.729463 0.950947 0.648983 0.551864
C70   C     C_R   0.270869 0.950672 0.351161 0.548616
C71   C     C_R   0.229463 0.450947 0.648983 0.551863
C72   C     C_R   0.770869 0.450672 0.351161 0.548614
C73   C     C_R   0.528357 0.176261 0.645364 0.552722
C74   C     C_R   0.435159 0.180488 0.362165 0.568479
C75   C     C_R   0.028357 0.676261 0.645364 0.552722
C76   C     C_R   0.935159 0.680489 0.362165 0.568480
C77   C     C_R   0.738383 0.358757 0.644480 0.540138
C78   C     C_R   0.261801 0.357596 0.355935 0.537241
C79   C     C_R   0.238383 0.858757 0.644480 0.540138
C80   C     C_R   0.761801 0.857596 0.355935 0.537240
C81   C     C_2   0.497662 0.168548 0.921116 -0.111188
C82   C     C_2   0.502071 0.169100 0.078742 -0.111708
C83   C     C_2   0.997662 0.668548 0.921116 -0.111188
C84   C     C_2   0.002071 0.669100 0.078742 -0.111708
C85   C     C_2   0.492413 0.068862 0.038343 -0.165291
C86   C     C_2   0.507242 0.068681 0.961759 -0.164590
C87   C     C_2   0.992413 0.568862 0.038343 -0.165291
C88   C     C_2   0.007242 0.568681 0.961759 -0.164590
C89   C     C_R   0.688527 0.446535 0.963753 -0.136427
C90   C     C_R   0.311903 0.446140 0.036009 -0.137195
C91   C     C_R   0.188527 0.946535 0.963753 -0.136428
C92   C     C_R   0.811903 0.946140 0.036009 -0.137195
Cr1   Cr    Cr6+3 0.769270 0.163730 0.750710 1.072737
Cr2   Cr    Cr6+3 0.230730 0.163730 0.249290 1.062040
Cr3   Cr    Cr6+3 0.269270 0.663730 0.750710 1.072739
Cr4   Cr    Cr6+3 0.730730 0.663730 0.249290 1.062040
Cr5   Cr    Cr6+3 0.612620 0.009790 0.748780 1.024290
Cr6   Cr    Cr6+3 0.387380 0.009790 0.251220 1.022070
Cr7   Cr    Cr6+3 0.112620 0.509790 0.748780 1.024289
Cr8   Cr    Cr6+3 0.887380 0.509790 0.251220 1.022071
Cr9   Cr    Cr6+3 0.614160 0.322500 0.747710 1.012414
Cr10  Cr    Cr6+3 0.385840 0.322500 0.252290 1.005715
Cr11  Cr    Cr6+3 0.114160 0.822500 0.747710 1.012414
Cr12  Cr    Cr6+3 0.885840 0.822500 0.252290 1.005715
H1    H     H_    0.472455 0.984591 0.061416 0.137749
H2    H     H_    0.527115 0.984523 0.938892 0.137426
H3    H     H_    0.972455 0.484591 0.061416 0.137749
H4    H     H_    0.027115 0.484523 0.938892 0.137425
H5    H     H_    0.641287 0.465528 0.558690 0.162721
H6    H     H_    0.347156 0.499409 0.437320 0.127964
H7    H     H_    0.141286 0.965523 0.558689 0.162725
H8    H     H_    0.847157 0.999407 0.437320 0.127966
H9    H     H_    0.524729 0.251815 0.056095 0.112358
H10   H     H_    0.475006 0.251067 0.943563 0.113293
H11   H     H_    0.024729 0.751815 0.056095 0.112358
H12   H     H_    0.975006 0.751067 0.943563 0.113293
H13   H     H_    0.638529 0.462091 0.937246 0.135728
H14   H     H_    0.362186 0.460841 0.062248 0.135259
H15   H     H_    0.138529 0.962091 0.937246 0.135728
H16   H     H_    0.862186 0.960841 0.062248 0.135259
H17   H     H_    0.865508 0.366740 0.054678 0.125448
H18   H     H_    0.133656 0.369772 0.945957 0.125096
H19   H     H_    0.365507 0.866740 0.054678 0.125448
H20   H     H_    0.633656 0.869772 0.945957 0.125096
H21   H     H_    0.857232 0.358642 0.929025 0.138825
H22   H     H_    0.142391 0.361881 0.071717 0.139754
H23   H     H_    0.357232 0.858642 0.929025 0.138825
H24   H     H_    0.642391 0.861881 0.071717 0.139754
H25   H     H_    0.482780 0.368248 0.570650 0.180445
H26   H     H_    0.445207 0.370352 0.450404 0.142314
H27   H     H_    0.982782 0.868248 0.570650 0.180444
H28   H     H_    0.945209 0.870353 0.450403 0.142314
H29   H     H_    0.451274 0.974641 0.444563 0.194814
H30   H     H_    0.489865 0.971901 0.569004 0.167160
H31   H     H_    0.951272 0.474641 0.444564 0.194813
H32   H     H_    0.989864 0.471901 0.569005 0.167157
H33   H     H_    0.844805 0.295407 0.561493 0.177381
H34   H     H_    0.169517 0.255691 0.443989 0.181208
H35   H     H_    0.344806 0.795411 0.561493 0.177382
H36   H     H_    0.669516 0.755694 0.443988 0.181206
O1    O     O_R   0.784320 0.290430 0.830510 -0.510817
O2    O     O_R   0.215680 0.290430 0.169490 -0.506802
O3    O     O_R   0.284320 0.790430 0.830510 -0.510817
O4    O     O_R   0.715680 0.790430 0.169490 -0.506802
O5    O     O_R   0.554640 0.080370 0.673500 -0.496803
O6    O     O_R   0.445360 0.080370 0.326500 -0.493331
O7    O     O_R   0.054640 0.580370 0.673500 -0.496804
O8    O     O_R   0.945360 0.580370 0.326500 -0.493330
O9    O     O_R   0.543920 0.282180 0.666790 -0.521424
O10   O     O_R   0.456080 0.282180 0.333210 -0.496915
O11   O     O_R   0.043920 0.782180 0.666790 -0.521424
O12   O     O_R   0.956080 0.782180 0.333210 -0.496915
O13   O     O_R   0.679040 0.374160 0.674430 -0.504443
O14   O     O_R   0.320960 0.374160 0.325570 -0.526705
O15   O     O_R   0.179040 0.874160 0.674430 -0.504443
O16   O     O_R   0.820960 0.874160 0.325570 -0.526705
O17   O     O_3   0.665350 0.165340 0.749070 -0.252496
O18   O     O_3   0.334650 0.165340 0.250930 -0.278646
O19   O     O_3   0.165350 0.665340 0.749070 -0.252496
O20   O     O_3   0.834650 0.665340 0.250930 -0.278646
O21   O     O_R   0.762640 0.040960 0.825200 -0.486335
O22   O     O_R   0.237360 0.040960 0.174800 -0.483843
O23   O     O_R   0.262640 0.540960 0.825200 -0.486335
O24   O     O_R   0.737360 0.540960 0.174800 -0.483843
O25   O     O_R   0.667400 0.923970 0.829950 -0.537134
O26   O     O_R   0.332600 0.923970 0.170050 -0.533830
O27   O     O_R   0.167400 0.423970 0.829950 -0.537134
O28   O     O_R   0.832600 0.423970 0.170050 -0.533830
O29   O     O_R   0.553960 0.081340 0.821780 -0.498090
O30   O     O_R   0.446040 0.081340 0.178220 -0.489904
O31   O     O_R   0.053960 0.581340 0.821780 -0.498090
O32   O     O_R   0.946040 0.581340 0.178220 -0.489904
O33   O     O_R   0.543180 0.283240 0.826740 -0.530136
O34   O     O_R   0.456820 0.283240 0.173260 -0.526618
O35   O     O_R   0.043180 0.783240 0.826740 -0.530136
O36   O     O_R   0.956820 0.783240 0.173260 -0.526618
O37   O     O_R   0.678360 0.375140 0.822710 -0.510313
O38   O     O_R   0.321640 0.375140 0.177290 -0.509295
O39   O     O_R   0.178360 0.875140 0.822710 -0.510313
O40   O     O_R   0.821640 0.875140 0.177290 -0.509295
O41   O     O_R   0.785050 0.289380 0.670560 -0.513900
O42   O     O_R   0.214950 0.289380 0.329440 -0.512828
O43   O     O_R   0.285050 0.789380 0.670560 -0.513899
O44   O     O_R   0.714950 0.789380 0.329440 -0.512828
O45   O     O_R   0.763320 0.039990 0.676930 -0.444154
O46   O     O_R   0.236680 0.039990 0.323070 -0.458130
O47   O     O_R   0.263320 0.539990 0.676930 -0.444153
O48   O     O_R   0.736680 0.539990 0.323070 -0.458130
O49   O     O_R   0.668130 0.922920 0.670000 -0.527993
O50   O     O_R   0.331870 0.922920 0.330000 -0.543783
O51   O     O_R   0.168130 0.422920 0.670000 -0.527995
O52   O     O_R   0.831870 0.422920 0.330000 -0.543783
C93   C     C_2   0.855571 0.254891 0.424722 0.212848
H37   H     H_    0.843315 0.210703 0.374478 0.130341
O53   O     O_2   0.913777 0.239877 0.451056 -0.550363
C94   C     C_2   0.158560 0.233589 0.582400 0.232759
H38   H     H_    0.172317 0.201517 0.635264 0.119828
O54   O     O_2   0.103149 0.199486 0.555658 -0.536951
C95   C     C_2   0.355573 0.754894 0.424723 0.212848
H39   H     H_    0.343317 0.710705 0.374479 0.130341
O55   O     O_2   0.413778 0.739881 0.451057 -0.550362
C96   C     C_2   0.658559 0.733591 0.582399 0.232757
H40   H     H_    0.672317 0.701515 0.635262 0.119826
O56   O     O_2   0.603146 0.699493 0.555659 -0.536946
C97   C     C_2   0.624997 0.483293 0.419359 0.243331
H41   H     H_    0.586849 0.539297 0.446991 0.150906
O57   O     O_2   0.611491 0.449382 0.358997 -0.503923
C98   C     C_2   0.368476 0.519841 0.576058 0.216590
H42   H     H_    0.399802 0.585245 0.546744 0.160647
O58   O     O_2   0.387987 0.490997 0.635662 -0.522500
C99   C     C_2   0.124996 0.983288 0.419358 0.243332
H43   H     H_    0.086847 0.039289 0.446991 0.150905
O59   O     O_2   0.111492 0.949378 0.358996 -0.503924
C100  C     C_2   0.868476 0.019839 0.576059 0.216590
H44   H     H_    0.899802 0.085244 0.546745 0.160646
O60   O     O_2   0.887988 0.990993 0.635662 -0.522501
C101  C     C_R   0.629648 0.502952 0.076333 0.039541
C102  C     C_R   0.605985 0.445945 0.138946 -0.061193
C103  C     C_R   0.550791 0.496970 0.177779 -0.056896
C104  C     C_R   0.515911 0.600703 0.152510 -0.104213
C105  C     C_R   0.536956 0.655046 0.088900 -0.121806
C106  C     C_R   0.593592 0.606836 0.051074 -0.089836
H45   H     H_    0.631673 0.364360 0.158855 0.109044
H46   H     H_    0.534851 0.455773 0.227485 0.177609
H47   H     H_    0.472671 0.639060 0.182280 0.108739
H48   H     H_    0.510032 0.735643 0.069378 0.087634
H49   H     H_    0.610160 0.652130 0.002765 0.098934
C107  C     C_R   0.370759 0.500973 0.922886 0.041079
C108  C     C_R   0.393317 0.443282 0.860202 -0.064900
C109  C     C_R   0.448372 0.493614 0.820524 -0.054062
C110  C     C_R   0.484268 0.597265 0.845051 -0.099168
C111  C     C_R   0.464355 0.652227 0.908748 -0.123308
C112  C     C_R   0.407817 0.604750 0.947402 -0.090116
H50   H     H_    0.366793 0.361808 0.840832 0.098955
H51   H     H_    0.463397 0.451911 0.770742 0.168846
H52   H     H_    0.527407 0.635098 0.814631 0.109057
H53   H     H_    0.492048 0.732792 0.927667 0.087708
H54   H     H_    0.392042 0.650635 0.995697 0.098662
C113  C     C_R   0.129648 0.002952 0.076333 0.039541
C114  C     C_R   0.105985 0.945945 0.138946 -0.061192
C115  C     C_R   0.050791 0.996970 0.177779 -0.056896
C116  C     C_R   0.015911 0.100703 0.152510 -0.104213
C117  C     C_R   0.036956 0.155046 0.088900 -0.121805
C118  C     C_R   0.093592 0.106836 0.051074 -0.089837
H55   H     H_    0.131673 0.864361 0.158855 0.109045
H56   H     H_    0.034851 0.955773 0.227485 0.177609
H57   H     H_    0.972671 0.139061 0.182280 0.108739
H58   H     H_    0.010032 0.235643 0.069378 0.087634
H59   H     H_    0.110160 0.152130 0.002765 0.098934
C119  C     C_R   0.870759 0.000973 0.922887 0.041079
C120  C     C_R   0.893317 0.943282 0.860202 -0.064899
C121  C     C_R   0.948372 0.993614 0.820524 -0.054062
C122  C     C_R   0.984268 0.097265 0.845051 -0.099168
C123  C     C_R   0.964355 0.152227 0.908748 -0.123307
C124  C     C_R   0.907817 0.104750 0.947402 -0.090116
H60   H     H_    0.866793 0.861808 0.840832 0.098955
H61   H     H_    0.963397 0.951911 0.770742 0.168846
H62   H     H_    0.027407 0.135098 0.814631 0.109056
H63   H     H_    0.992048 0.232792 0.927667 0.087708
H64   H     H_    0.892042 0.150635 0.995697 0.098663

loop_
_geom_bond_atom_site_label_1
_geom_bond_atom_site_label_2
_ccdc_geom_bond_type
C58   C62   A    
C87   C88   S    
C49   C53   A    
Cr3   O3    S    
C14   H18   S    
C23   C91   A    
Cr7   O19   S    
Cr8   O32   S    
C27   H27   S    
C14   C18   A    
Cr9   O33   S    
C35   C36   A    
C84   C87   D    
C112  H54   S    
C25   H25   S    
Cr10  O18   S    
C32   C75   S    
C71   O47   A    
C102  C103  A    
Cr3   O47   S    
C120  C121  A    
Cr12  O36   S    
C63   C79   S    
C97   H41   S    
C15   C19   A    
C93   H37   S    
C66   O38   A    
C8    C119  S    
C123  C124  A    
C57   C61   A    
C15   H19   S    
C13   C17   A    
C37   C41   A    
Cr3   O19   S    
C32   C36   A    
C16   C20   A    
C56   C60   A    
C113  C114  A    
Cr12  O20   S    
C33   H29   S    
C38   C42   A    
C55   C59   A    
C122  C123  A    
C88   H4    S    
C100  O60   D    
Cr7   O31   S    
C34   H30   S    
C117  C118  A    
C90   H14   S    
C29   C33   A    
C25   C30   A    
C13   H17   S    
C115  C116  A    
C23   C67   S    
C108  H50   S    
C9    C13   A    
C104  C105  A    
C41   C93   S    
C52   C69   S    
C77   O13   A    
C103  H46   S    
C46   C82   S    
C11   C15   A    
C122  H62   S    
C5    C101  S    
Cr6   O18   S    
C75   O11   A    
C98   H42   S    
C93   O53   D    
C49   C72   S    
C6    C107  S    
C81   H10   S    
C104  H47   S    
C53   C97   S    
C46   O34   A    
C68   O4    A    
C113  C118  A    
C8    C92   A    
C51   C70   S    
C47   C83   S    
Cr2   O22   S    
C56   C100  S    
C81   C86   D    
C26   H26   S    
Cr11  O11   S    
C73   O9    A    
C44   C52   A    
Cr8   O8    S    
Cr5   O49   S    
C83   C88   D    
C67   O3    A    
C95   H39   S    
Cr2   O18   S    
C37   H33   S    
C44   C96   S    
C47   O31   A    
C64   C80   S    
Cr10  O38   S    
C2    O22   A    
Cr8   O52   S    
C1    C12   S    
Cr1   O41   S    
Cr4   O44   S    
C85   H1    S    
C2    C11   S    
C36   H32   S    
C41   C49   A    
C107  C108  A    
C62   C78   S    
C121  H61   S    
C80   O16   A    
Cr7   O27   S    
C28   C31   A    
C38   H34   S    
C39   H35   S    
C96   H40   S    
C30   C34   A    
C3    O27   A    
C115  H56   S    
Cr2   O2    S    
C12   C16   A    
C102  H45   S    
Cr9   O37   S    
Cr6   O26   S    
C94   O54   D    
C118  H59   S    
C69   O49   A    
C103  C104  A    
C30   C73   S    
C53   C57   A    
C100  H44   S    
C78   O14   A    
C21   C89   A    
C29   C74   S    
Cr6   O6    S    
C51   C55   A    
C75   O7    A    
C25   C26   A    
C85   C86   S    
C24   C68   S    
C79   O15   A    
C105  H48   S    
C68   O40   A    
C17   C21   A    
Cr4   O24   S    
C73   O5    A    
C28   H28   S    
Cr5   O17   S    
C7    C11   A    
C50   C71   S    
C17   H21   S    
C5    C9    A    
C108  C109  A    
C60   H8    S    
Cr11  O35   S    
C45   O33   A    
Cr4   O4    S    
C105  C106  A    
C65   O1    A    
C57   H5    S    
Cr8   O20   S    
C77   O41   A    
C99   H43   S    
Cr3   O43   S    
Cr1   O21   S    
C8    C12   A    
C7    C91   A    
C4    O24   A    
C33   C34   A    
C22   C90   A    
C109  H51   S    
C38   C62   A    
C50   C54   A    
Cr12  O16   S    
Cr1   O17   S    
C107  C112  A    
C110  H52   S    
C46   O30   A    
C96   O56   D    
Cr6   O50   S    
C42   C50   A    
C42   C94   S    
Cr11  O15   S    
Cr4   O20   S    
Cr10  O10   S    
C89   H13   S    
C84   H11   S    
C54   C98   S    
C1    O21   A    
C10   C14   A    
C114  H55   S    
C24   C92   A    
C91   H15   S    
C72   O48   A    
C22   C66   S    
Cr9   O13   S    
C35   H31   S    
C43   C95   S    
C69   O45   A    
C27   C28   A    
C110  C111  A    
Cr1   O1    S    
C48   O32   A    
C54   C58   A    
C119  C124  A    
C99   O59   D    
C61   C77   S    
C2    O26   A    
C124  H64   S    
C101  C106  A    
C21   C65   S    
C27   C32   A    
C58   H6    S    
C4    O28   A    
Cr5   O5    S    
C83   H12   S    
C74   O6    A    
C70   O50   A    
C45   C81   S    
Cr2   O46   S    
C82   H9    S    
C7    C113  S    
C94   H38   S    
C45   O29   A    
C6    C10   A    
C37   C61   A    
C20   H24   S    
C66   O2    A    
C3    O23   A    
Cr10  O34   S    
C82   C85   D    
C39   C63   A    
C19   H23   S    
C59   C63   A    
C116  H57   S    
C40   C64   A    
Cr8   O28   S    
Cr3   O23   S    
C60   C64   A    
C71   O51   A    
Cr12  O12   S    
C18   C22   A    
C86   H2    S    
C119  C120  A    
Cr5   O29   S    
Cr7   O7    S    
Cr9   O17   S    
C3    C10   S    
C6    C90   A    
Cr10  O14   S    
C18   H22   S    
C72   O52   A    
Cr7   O51   S    
Cr11  O19   S    
C31   C76   S    
Cr12  O40   S    
C65   O37   A    
C123  H63   S    
C43   C51   A    
Cr5   O25   S    
C116  C117  A    
C31   C35   A    
Cr9   O9    S    
C114  C115  A    
C79   O43   A    
C120  H60   S    
C40   H36   S    
Cr11  O39   S    
C80   O44   A    
C92   H16   S    
C109  C110  A    
C47   O35   A    
C101  C102  A    
C111  H53   S    
C70   O46   A    
C55   C99   S    
C106  H49   S    
Cr6   O30   S    
C48   C84   S    
C19   C23   A    
C40   C44   A    
C87   H3    S    
C1    O25   A    
C76   O8    A    
C26   C29   A    
C98   O58   D    
C117  H58   S    
C39   C43   A    
C59   H7    S    
C95   O55   D    
C76   O12   A    
C74   O10   A    
C67   O39   A    
Cr2   O42   S    
C78   O42   A    
C4    C9    S    
C16   H20   S    
C97   O57   D    
Cr4   O48   S    
C20   C24   A    
C5    C89   A    
C52   C56   A    
C111  C112  A    
C121  C122  A    
C48   O36   A    
Cr1   O45   S    
