data_mof_unit_64516.cif
_audit_creation_date              2012-12-10T22:09:14-0500
_audit_creation_method            fapswitch 2.2
_symmetry_space_group_name_H-M    P1
_symmetry_Int_Tables_number       1
_space_group_crystal_system       triclinic
_cell_length_a                    16.420345
_cell_length_b                    16.568367
_cell_length_c                    28.776967
_cell_angle_alpha                 90.236203
_cell_angle_beta                  90.523274
_cell_angle_gamma                 90.416196
_cell_volume                      7828.41105011

loop_
_atom_site_label
_atom_site_type_symbol
_atom_type_description
_atom_site_fract_x
_atom_site_fract_y
_atom_site_fract_z
_atom_type_partial_charge
C1    C     C_R   0.616903 0.998117 0.560710 0.887362
C2    C     C_R   0.065100 0.316985 0.134592 0.604515
C3    C     C_R   0.927460 0.814840 0.130457 0.613911
C4    C     C_R   0.927180 0.750342 0.099451 -0.266486
C5    C     C_R   0.042433 0.756514 0.171854 0.588735
C6    C     C_R   0.042633 0.691670 0.140887 -0.179028
C7    C     C_R   0.919426 0.233382 0.152695 0.012188
C8    C     C_R   0.920331 0.295244 0.120253 -0.298396
C9    C     C_R   0.254241 0.948279 0.334033 0.604551
C10   C     C_R   0.317889 0.946246 0.366499 -0.250496
C11   C     C_R   0.743240 0.063430 0.337367 0.579391
C12   C     C_R   0.612406 0.001791 0.438415 0.914499
C13   C     C_R   0.679736 0.063892 0.369210 -0.165337
C14   C     C_3   0.995145 0.009627 0.253767 -0.100378
C15   C     C_R   0.193539 0.006362 0.338205 -0.289554
C16   C     C_R   0.319726 0.002927 0.403422 -0.415898
C17   C     C_R   0.801163 0.002213 0.339136 -0.179144
C18   C     C_R   0.675370 0.002376 0.403056 -0.254588
C19   C     C_R   0.992097 0.212261 0.175545 -0.038923
C20   C     C_R   0.993116 0.336186 0.110245 -0.202136
C21   C     C_R   0.985688 0.818066 0.166130 -0.184939
C22   C     C_R   0.985495 0.689473 0.103820 -0.249669
C23   C     C_R   0.385975 0.998288 0.560774 0.915879
C24   C     C_1   0.068010 0.006912 0.281979 0.059091
C25   C     C_1   0.994259 0.083216 0.227451 0.034405
C26   C     C_1   0.925234 0.006964 0.283451 0.065908
C27   C     C_1   0.991962 0.941601 0.222513 0.056597
C28   C     C_1   0.126501 0.006059 0.306829 0.240491
C29   C     C_1   0.988576 0.885258 0.196679 0.188101
C30   C     C_1   0.993300 0.143040 0.204659 0.031012
C31   C     C_1   0.868006 0.004565 0.308525 0.189695
C32   C     C_R   0.029669 0.081879 0.790135 -0.093512
C33   C     C_R   0.064548 0.149788 0.812276 0.625816
C34   C     C_R   0.384216 0.001859 0.438689 0.990373
C35   C     C_R   0.094749 0.873579 0.800185 -0.148595
C36   C     C_R   0.084694 0.818436 0.836632 0.650432
C37   C     C_R   0.922379 0.050651 0.693947 0.559313
C38   C     C_R   0.851327 0.056931 0.666644 -0.119054
C39   C     C_R   0.114903 0.839572 0.691162 0.515675
C40   C     C_R   0.164003 0.807657 0.656363 0.548570
C41   C     C_R   0.121288 0.970778 0.653704 -0.247308
C42   C     C_R   0.170195 0.937169 0.618920 0.519596
C43   C     C_R   0.921255 0.905997 0.681255 -0.168438
C44   C     C_R   0.850998 0.912024 0.653988 -0.002071
C45   C     C_R   0.195877 0.063260 0.374090 0.525824
C46   C     C_R   0.154396 0.065137 0.746689 -0.174697
C47   C     C_R   0.188002 0.132599 0.768916 -0.236516
C48   C     C_R   0.947692 0.872352 0.787860 0.624034
C49   C     C_R   0.939647 0.817179 0.824021 -0.294515
C50   C     C_3   0.038155 0.960088 0.731299 0.052893
C51   C     C_R   0.073415 0.038645 0.755077 0.045716
C52   C     C_R   0.143217 0.175333 0.801432 0.000178
C53   C     C_R   0.026046 0.900386 0.773223 -0.096328
C54   C     C_R   0.007578 0.789419 0.847929 -0.094719
C55   C     C_R   0.957719 0.974086 0.703188 0.037120
C56   C     C_R   0.258782 0.061757 0.406596 0.581211
C57   C     C_R   0.815218 0.987602 0.646743 -0.024475
C58   C     C_R   0.096012 0.923741 0.692976 -0.263330
C59   C     C_R   0.192383 0.856228 0.620590 -0.270041
C60   C     C_1   0.998458 0.729733 0.883716 0.113200
C61   C     C_1   0.993638 0.678835 0.913343 -0.136255
C62   C     C_1   0.178791 0.244865 0.824250 0.050786
C63   C     C_1   0.208509 0.303050 0.843360 0.083548
C64   C     C_1   0.743598 0.993798 0.617392 -0.001852
C65   C     C_1   0.685001 0.996811 0.592049 -0.146596
C66   C     C_1   0.240607 0.821624 0.584028 0.165311
C67   C     C_R   0.795813 0.940261 0.371678 0.620607
C68   C     C_1   0.280546 0.792298 0.553418 0.118148
C69   C     C_R   0.987395 0.625534 0.068987 0.917156
C70   C     C_R   0.993075 0.397899 0.074027 0.911303
C71   C     C_R   0.992490 0.617631 0.948332 0.884943
C72   C     C_R   0.998214 0.387037 0.953673 0.850895
C73   C     C_R   0.732860 0.940224 0.403447 -0.261858
C74   C     C_R   0.064754 0.254936 0.167179 -0.132685
H1    H     H_    0.730121 0.892620 0.429109 0.206683
H2    H     H_    0.249898 0.150766 0.761089 0.178801
H3    H     H_    0.879410 0.796233 0.833575 0.206827
H4    H     H_    0.947106 0.846734 0.686389 0.207191
H5    H     H_    0.194484 0.032895 0.723849 0.166423
H6    H     H_    0.882949 0.748994 0.071277 0.200985
H7    H     H_    0.864342 0.310103 0.102045 0.198413
O1    O     O_R   0.589050 0.066000 0.546390 -0.607582
O2    O     O_R   0.924600 0.421430 0.056650 -0.628270
O3    O     O_R   0.061270 0.426220 0.059090 -0.544452
O4    O     O_R   0.920260 0.595630 0.052680 -0.610168
O5    O     O_R   0.924170 0.588160 0.962540 -0.609902
O6    O     O_R   0.065180 0.418740 0.968950 -0.606880
O7    O     O_R   0.928510 0.413960 0.966510 -0.603903
O8    O     O_R   0.060840 0.592940 0.964990 -0.588027
O9    O     O_R   0.585350 0.934000 0.453610 -0.612615
O10   O     O_R   0.586750 0.068930 0.454890 -0.617726
O11   O     O_R   0.587650 0.931070 0.545110 -0.605781
O12   O     O_R   0.413250 0.931070 0.545110 -0.634512
O13   O     O_R   0.412350 0.068930 0.454890 -0.554701
O14   O     O_R   0.410950 0.934000 0.453610 -0.626836
O15   O     O_R   0.414650 0.066000 0.546390 -0.588021
O16   O     O_R   0.056930 0.600420 0.055130 -0.611153
Zn1   Zn    Zn3+2 0.500940 0.090730 0.500860 1.067795
Zn2   Zn    Zn3+2 0.499060 0.909270 0.499140 1.010335
Zn3   Zn    Zn3+2 0.084620 0.510410 0.012460 1.073401
Zn4   Zn    Zn3+2 0.900820 0.503970 0.009170 1.013496
F1    F     F_    0.258730 0.116215 0.442017 -0.570881
F2    F     F_    0.852303 0.880832 0.373189 -0.623196
C75   C     C_1   0.139800 0.234631 0.191005 0.314322
N1    N     N_1   0.199768 0.218325 0.210087 -0.140144
F3    F     F_    0.872065 0.874659 0.125243 -0.633281
F4    F     F_    0.097653 0.760079 0.207361 -0.605869
C76   C     C_1   0.843736 0.190950 0.161122 0.252114
N2    N     N_1   0.783216 0.156949 0.167905 -0.112919
F5    F     F_    0.251069 0.893702 0.298605 -0.598314
F6    F     F_    0.749112 0.122652 0.304929 -0.633108
F7    F     F_    0.021560 0.191219 0.844664 -0.667252
F8    F     F_    0.150814 0.791556 0.860694 -0.631481
C77   C     C_1   0.817137 0.135882 0.658446 0.325021
N3    N     N_1   0.789785 0.199039 0.651885 -0.146122
F9    F     F_    0.181225 0.727575 0.656656 -0.582456
F10   F     F_    0.194762 0.983287 0.582550 -0.654939
C78   C     C_1   0.816839 0.839325 0.633537 0.242214
N4    N     N_1   0.789496 0.781137 0.617161 -0.149096
C79   C     C_1   0.947666 0.060979 0.803581 0.334523
N5    N     N_1   0.881788 0.046076 0.814847 -0.104356
C80   C     C_1   0.177672 0.896733 0.789893 0.335804
N6    N     N_1   0.244567 0.914026 0.782063 -0.184248
F11   F     F_    0.957666 0.120506 0.708765 -0.673337
F12   F     F_    0.081464 0.784971 0.720448 -0.628202
C81   C     C_1   0.097599 0.053825 0.646969 0.380460
N7    N     N_1   0.079756 0.120445 0.640943 -0.092286
F13   F     F_    0.135710 0.357802 0.126589 -0.632916
F14   F     F_    0.876846 0.899296 0.769372 -0.668478
C82   C     C_1   0.100199 0.627299 0.148581 0.349925
N8    N     N_1   0.146190 0.575754 0.154766 -0.106546
C83   C     C_1   0.381560 0.887399 0.360428 0.381450
N9    N     N_1   0.432553 0.840342 0.355537 -0.155227
C84   C     C_1   0.618974 0.126343 0.365602 0.342148
N10   N     N_1   0.570320 0.176303 0.362663 -0.148692
F15   F     F_    0.136343 0.119331 0.378045 -0.585616

loop_
_geom_bond_atom_site_label_1
_geom_bond_atom_site_label_2
_ccdc_geom_bond_type
C66   C68   T    
C81   N7    T    
C39   F12   S    
C35   C53   A    
C73   H1    S    
C41   C42   A    
C12   O10   A    
C35   C36   A    
C6    C82   S    
C40   F9    S    
O16   Zn3   S    
C77   N3    T    
C67   F2    S    
C7    C8    A    
C54   C60   S    
C76   N2    T    
C33   C52   A    
C8    C20   A    
C13   C18   A    
C12   O9    A    
C37   C38   A    
C47   H2    S    
C4    H6    S    
C59   C66   S    
C5    C6    A    
C38   C77   S    
O14   Zn2   S    
C27   C29   T    
O13   Zn1   S    
C49   C54   A    
C71   O5    A    
C9    F5    S    
C23   O15   A    
C13   C84   S    
C14   C24   S    
C78   N4    T    
C16   C34   S    
C45   C56   A    
C83   N9    T    
O15   Zn1   S    
C1    C65   S    
C67   C73   A    
C14   C27   S    
C70   O3    A    
C9    C10   A    
O12   Zn2   S    
C22   C69   S    
C2    C74   A    
C61   C71   S    
C26   C31   T    
C14   C25   S    
C40   C59   A    
O1    Zn1   S    
C20   C70   S    
C32   C79   S    
C36   F8    S    
C75   N1    T    
C72   O7    A    
O7    Zn4   S    
C19   C74   A    
C3    F3    S    
C48   C53   A    
C17   C67   A    
C50   C53   S    
O8    Zn3   S    
C2    C20   A    
C8    H7    S    
O3    Zn3   S    
C34   O13   A    
C34   O14   A    
C39   C40   A    
C1    O1    A    
C39   C58   A    
C11   F6    S    
C46   C51   A    
C23   O12   A    
C60   C61   T    
C43   H4    S    
C50   C58   S    
C43   C44   A    
C16   C56   A    
C32   C51   A    
C62   C63   T    
C69   O4    A    
C37   F11   S    
C4    C22   A    
C71   O8    A    
C44   C78   S    
C44   C57   A    
C50   C51   S    
C19   C30   S    
C33   F7    S    
C14   C26   S    
C70   O2    A    
C47   C52   A    
C43   C55   A    
C48   C49   A    
C18   C73   A    
C7    C19   A    
C17   C31   S    
C48   F14   S    
C3    C21   A    
C15   C45   A    
C3    C4    A    
O9    Zn2   S    
C72   O6    A    
O4    Zn4   S    
C79   N5    T    
C57   C64   S    
C74   C75   S    
O6    Zn3   S    
C5    F4    S    
C25   C30   T    
C46   C47   A    
C11   C17   A    
C45   F15   S    
O2    Zn4   S    
C41   C81   S    
C35   C80   S    
C24   C28   T    
C42   C59   A    
C41   C58   A    
C42   F10   S    
C84   N10   T    
C1    O11   A    
C50   C55   S    
C2    F13   S    
C64   C65   T    
C82   N8    T    
C9    C15   A    
C56   F1    S    
C52   C62   S    
C32   C33   A    
C11   C13   A    
C15   C28   S    
C46   H5    S    
C38   C57   A    
C21   C29   S    
C49   H3    S    
O10   Zn1   S    
C10   C83   S    
C36   C54   A    
C37   C55   A    
C5    C21   A    
C12   C18   S    
C7    C76   S    
C10   C16   A    
C80   N6    T    
O5    Zn4   S    
O11   Zn2   S    
C69   O16   A    
C6    C22   A    
