data_mof_unit_42759.cif
_audit_creation_date              2012-12-10T20:28:45-0500
_audit_creation_method            fapswitch 2.2
_symmetry_space_group_name_H-M    P1
_symmetry_Int_Tables_number       1
_space_group_crystal_system       triclinic
_cell_length_a                    10.717035
_cell_length_b                    10.6568
_cell_length_c                    9.904
_cell_angle_alpha                 90.462962
_cell_angle_beta                  90.007885
_cell_angle_gamma                 90.638265
_cell_volume                      1131.0217574

loop_
_atom_site_label
_atom_site_type_symbol
_atom_type_description
_atom_site_fract_x
_atom_site_fract_y
_atom_site_fract_z
_atom_type_partial_charge
C1    C     C_R   0.498184 0.260487 0.499814 0.911935
C2    C     C_R   0.412793 0.933499 0.407861 0.450610
C3    C     C_R   0.487790 0.871670 0.502787 -0.163826
C4    C     C_R   0.260917 0.513343 0.500448 0.889955
C5    C     C_R   0.547210 0.937960 0.606333 0.114706
C6    C     C_3   0.680849 0.934082 0.650366 -0.460052
C7    C     C_3   0.679990 0.076160 0.650727 -0.499928
C8    C     C_R   0.481067 0.391275 0.069843 -0.011065
C9    C     C_R   0.539815 0.602648 0.073124 0.539968
C10   C     C_R   0.541180 0.602000 0.929321 0.352871
C11   C     C_R   0.481511 0.391209 0.928137 -0.099299
C12   C     C_R   0.062654 0.541370 0.625089 0.122208
C13   C     C_3   0.374317 0.299951 0.921403 0.254028
C14   C     C_3   0.374205 0.300420 0.076374 0.197502
C15   C     C_R   0.498451 0.739715 0.500421 0.910377
C16   C     C_R   0.740140 0.491501 0.501019 0.848307
C17   C     C_R   0.115062 0.594163 0.743793 -0.241247
C18   C     C_R   0.056202 0.578124 0.868255 -0.220406
C19   C     C_R   0.949349 0.502921 0.877886 0.615040
C20   C     C_R   0.890139 0.463632 0.757193 -0.294438
C21   C     C_R   0.940366 0.495962 0.629490 0.048351
C22   C     C_3   0.708302 0.715006 0.147198 -0.206266
C23   C     C_R   0.127929 0.529674 0.501839 -0.117289
C24   C     C_3   0.849523 0.357014 0.015267 -0.377667
C25   C     C_R   0.063958 0.510180 0.380590 -0.174271
C26   C     C_R   0.937293 0.493480 0.382264 -0.241477
C27   C     C_R   0.874302 0.486037 0.505317 -0.104290
C28   C     C_R   0.547279 0.065851 0.605974 0.121646
C29   C     C_R   0.488930 0.128781 0.502043 -0.140607
C30   C     C_R   0.414104 0.064477 0.408355 -0.346321
H1    H     H_    0.111529 0.506204 0.284192 0.224716
H2    H     H_    0.889095 0.485267 0.286834 0.200754
H3    H     H_    0.360095 0.115509 0.334978 0.158795
H4    H     H_    0.692326 0.895411 0.753196 0.245217
H5    H     H_    0.736710 0.782696 0.227468 0.163473
H6    H     H_    0.747127 0.749622 0.050289 0.182083
H7    H     H_    0.750322 0.623165 0.172222 0.172007
H8    H     H_    0.644229 0.671236 0.792963 0.357156
H9    H     H_    0.255617 0.435746 0.897904 0.372944
H10   H     H_    0.203151 0.287639 0.134361 0.337609
H11   H     H_    0.906632 0.285196 0.962075 0.182356
H12   H     H_    0.743215 0.893106 0.572213 0.187252
H13   H     H_    0.752072 0.356089 0.977289 0.159391
H14   H     H_    0.845596 0.329852 0.122954 0.193777
H15   H     H_    0.296966 0.924006 0.256605 0.327557
H16   H     H_    0.688622 0.118307 0.753433 0.202176
H17   H     H_    0.742063 0.118460 0.572984 0.196421
H18   H     H_    0.400787 0.208295 0.876062 0.107868
H19   H     H_    0.400541 0.209385 0.121811 0.065333
H20   H     H_    0.201325 0.647855 0.741386 0.182068
H21   H     H_    0.098974 0.616780 0.958765 0.166984
H22   H     H_    0.807735 0.405242 0.763899 0.169053
N1    N     N_R   0.499160 0.499140 0.142800 -0.141053
N2    N     N_R   0.499160 0.499180 0.857150 -0.159788
O1    O     O_R   0.500020 0.316790 0.614690 -0.605117
O2    O     O_3   0.589602 0.704649 0.864987 -0.760432
O3    O     O_3   0.266048 0.349186 0.862805 -0.703141
O4    O     O_3   0.268020 0.354749 0.133909 -0.726704
O5    O     O_3   0.902090 0.478839 0.006083 -0.644379
O6    O     O_3   0.342619 0.865211 0.315404 -0.735003
O7    O     O_R   0.500000 0.316760 0.385350 -0.617009
O8    O     O_R   0.316770 0.500020 0.614690 -0.592940
O9    O     O_R   0.316760 0.499980 0.385350 -0.565345
O10   O     O_R   0.500000 0.683240 0.614650 -0.619808
O11   O     O_R   0.499980 0.683210 0.385310 -0.516544
O12   O     O_R   0.683240 0.500020 0.614650 -0.653896
O13   O     O_R   0.683230 0.499980 0.385310 -0.636529
O14   O     O_3   0.576742 0.709458 0.142578 -0.547695
Zn1   Zn    Zn3+2 0.500010 0.500020 0.653130 0.964603
Zn2   Zn    Zn3+2 0.499990 0.499980 0.346870 1.026735

loop_
_geom_bond_atom_site_label_1
_geom_bond_atom_site_label_2
_ccdc_geom_bond_type
C8    N1    A    
C25   H1    S    
C17   H20   S    
C15   O10   A    
H15   O6    S    
C26   H2    S    
C6    C7    S    
C22   H5    S    
C13   H18   S    
C14   H19   S    
C10   O2    S    
C9    C10   A    
C19   C20   A    
C12   C23   A    
O9    Zn2   S    
C2    C30   A    
O13   Zn2   S    
C19   O5    S    
C16   C27   S    
C1    C29   S    
C17   C18   A    
C1    O1    A    
C9    O14   S    
H8    O2    S    
C20   H22   S    
C16   O13   A    
O1    Zn1   S    
O10   Zn1   S    
C12   C17   A    
C24   H11   S    
C11   C13   S    
C4    O9    A    
C22   O14   S    
C26   C27   A    
C29   C30   A    
N2    Zn1   S    
C8    C11   A    
C24   H14   S    
N1    Zn2   S    
C11   N2    A    
C28   C29   A    
C18   H21   S    
C2    C3    A    
C24   O5    S    
C21   C27   A    
C5    C6    S    
C14   O4    S    
C2    O6    S    
O12   Zn1   S    
C9    N1    A    
C10   N2    A    
C1    O7    A    
O11   Zn2   S    
C15   O11   A    
C7    H16   S    
C4    O8    A    
C23   C25   A    
H10   O4    S    
C20   C21   A    
C6    H4    S    
C18   C19   A    
C6    H12   S    
C24   H13   S    
C4    C23   S    
C16   O12   A    
C8    C14   S    
C30   H3    S    
C13   O3    S    
C25   C26   A    
C13   C14   S    
C22   H7    S    
C12   C21   A    
C5    C28   A    
C22   H6    S    
C7    C28   S    
O7    Zn2   S    
O8    Zn1   S    
C7    H17   S    
C3    C15   S    
C3    C5    A    
H9    O3    S    
