data_mof_unit_66735.cif
_audit_creation_date              2013-03-05T15:40:46-0500
_audit_creation_method            fapswitch 2.2
_symmetry_space_group_name_H-M    P1
_symmetry_Int_Tables_number       1
_space_group_crystal_system       triclinic
_cell_length_a                    8.52554
_cell_length_b                    13.101302
_cell_length_c                    15.222727
_cell_angle_alpha                 95.030034
_cell_angle_beta                  99.340564
_cell_angle_gamma                 97.92906
_cell_volume                      1651.156097

loop_
_atom_site_label
_atom_site_type_symbol
_atom_site_description
_atom_site_fract_x
_atom_site_fract_y
_atom_site_fract_z
_atom_type_partial_charge
P1    P     P_3+3 0.998660 0.747790 0.570900 0.496878
O1    O     O_2   0.168170 0.764170 0.543850 -0.313594
O2    O     O_3   0.898670 0.629780 0.545890 -0.391696
O3    O     O_3   0.365980 0.695510 0.380810 -0.413857
O4    O     O_2   0.281954 0.873858 0.424771 -0.359807
O5    O     O_3   0.068400 0.760259 0.686531 -0.585097
O6    O     O_3   0.358295 0.845670 0.265195 -0.414295
H1    H     H_    0.204478 0.705959 0.239544 0.111585
C1    C     C_3   0.241461 0.756816 0.114107 -0.016059
P2    P     P_3+3 0.306970 0.411860 0.294270 0.607692
P3    P     P_3+3 0.875548 0.616597 0.219453 0.563635
O7    O     O_2   0.136040 0.444100 0.280280 -0.388083
O8    O     O_3   0.934510 0.640480 0.335500 -0.370625
O9    O     O_2   0.993521 0.551119 0.186047 -0.316710
O10   O     O_3   0.262740 0.278049 0.278653 -0.479318
O11   O     O_3   0.920249 0.730375 0.170312 -0.568393
C2    C     C_3   0.882311 0.818629 0.216238 0.550290
C3    C     C_3   0.904041 0.908772 0.158544 -0.053014
H2    H     H_    0.029569 0.924099 0.150924 0.146187
C4    C     C_3   0.740712 0.273029 0.248372 0.517162
H3    H     H_    0.788749 0.355482 0.273620 0.002759
C5    C     C_3   0.823792 0.231336 0.172698 -0.077389
H4    H     H_    0.781607 0.146628 0.155353 0.178000
Ba1   Ba    Ba6+2 0.153570 0.551840 0.456200 1.719716
C6    C     C_3   0.944593 0.772423 0.734850 0.711534
H5    H     H_    0.834715 0.718592 0.703584 0.082571
C7    C     C_3   0.909832 0.884015 0.738660 -0.871713
H6    H     H_    0.014452 0.936164 0.725203 0.295261
H7    H     H_    0.886020 0.911537 0.805403 0.247739
C8    C     C_3   0.157979 0.242400 0.335306 0.698665
H8    H     H_    0.051674 0.281267 0.328333 -0.045903
C9    C     C_3   0.106424 0.124069 0.311711 -0.328576
H9    H     H_    0.974494 0.104341 0.300885 0.074670
H10   H     H_    0.150499 0.080815 0.367977 0.158801
P4    P     P_3+3 0.811620 0.252200 0.429030 0.512741
O12   O     O_2   0.642110 0.235770 0.456130 -0.254337
O13   O     O_3   0.911620 0.370210 0.454030 -0.391185
O14   O     O_3   0.444310 0.304480 0.619110 -0.297647
O15   O     O_3   0.766473 0.206073 0.314379 -0.615019
P5    P     P_3+3 0.943421 0.378284 0.780441 0.548697
O16   O     O_3   0.400800 0.556680 0.607590 -0.340783
O17   O     O_3   0.875770 0.359510 0.664420 -0.420567
O18   O     O_2   0.835158 0.448643 0.819210 -0.215364
O19   O     O_3   0.908414 0.263916 0.831283 -0.557608
Ba2   Ba    Ba6+2 0.656590 0.448150 0.543720 1.773242
P6    P     P_3+3 0.410630 0.827590 0.379589 0.632480
C10   C     C_3   0.304873 0.748012 0.213274 0.279275
H11   H     H_    0.402427 0.700017 0.216369 0.093276
H12   H     H_    0.191360 0.678306 0.079255 0.140049
O20   O     O_3   0.409490 0.443300 0.392340 -0.340929
C11   C     C_3   0.458321 0.790053 0.760695 0.690508
C12   C     C_3   0.541898 0.836468 0.854691 -0.742349
H13   H     H_    0.647420 0.894287 0.851959 0.231140
H14   H     H_    0.457709 0.874612 0.889922 0.292466
P7    P     P_3+3 0.509032 0.601837 0.716663 0.511455
O21   O     O_2   0.674250 0.555830 0.719690 -0.305459
O22   O     O_3   0.563597 0.735989 0.719400 -0.618818
H15   H     H_    0.872095 0.978661 0.193217 0.106616
C13   C     C_3   0.786544 0.191067 0.777426 0.870448
C14   C     C_3   0.723819 0.111640 0.836065 -0.766448
H16   H     H_    0.642931 0.046083 0.793717 0.247504
H17   H     H_    0.825274 0.081187 0.875386 0.256727
P8    P     P_3+3 0.368775 0.172047 0.627133 0.571814
C15   C     C_3   0.344815 0.202176 0.797089 0.658563
H18   H     H_    0.244021 0.237214 0.762473 0.014047
O23   O     O_2   0.477965 0.110856 0.578265 -0.269985
O24   O     O_3   0.417086 0.142836 0.737596 -0.562861
C16   C     C_3   0.279969 0.131388 0.862881 -0.630070
H19   H     H_    0.379782 0.102657 0.905162 0.256113
H20   H     H_    0.197815 0.062418 0.827149 0.268045
C17   C     C_R   0.048510 0.180514 0.548581 -0.320465
C18   C     C_R   0.721273 0.819358 0.483079 -0.334036
C19   C     C_R   0.688457 0.986996 0.432324 0.210273
C20   C     C_R   0.623365 0.883552 0.438643 0.263674
C21   C     C_R   0.884676 0.853275 0.519912 0.130440
C22   C     C_R   0.946551 0.963122 0.520476 -0.036501
C23   C     C_R   0.845583 0.032816 0.478330 -0.126253
C24   C     C_R   0.904235 0.145347 0.489819 0.206779
C25   C     C_R   0.157641 0.114446 0.574356 0.253294
C26   C     C_R   0.105999 0.006174 0.561209 -0.121489
H21   H     H_    0.080280 0.261896 0.571881 0.168714
C27   C     C_R   0.234128 0.496899 0.764451 -0.365515
C28   C     C_R   0.151954 0.440189 0.819853 0.179256
C29   C     C_R   0.228125 0.431010 0.906872 -0.114794
C30   C     C_R   0.368684 0.499436 0.949017 0.188958
C31   C     C_R   0.444435 0.562104 0.890946 -0.115594
C32   C     C_R   0.387014 0.551514 0.798168 0.169274
C33   C     C_R   0.605082 0.539586 0.082492 0.265650
C34   C     C_R   0.666295 0.554869 0.175483 0.223554
C35   C     C_R   0.411406 0.476448 0.208541 0.162292
C36   C     C_R   0.341762 0.471769 0.115969 0.188110
C37   C     C_R   0.437884 0.503702 0.050110 -0.152809
C38   C     C_R   0.570296 0.523181 0.236748 -0.492919
H22   H     H_    0.175327 0.368926 0.939377 0.203988
H23   H     H_    0.180330 0.496274 0.694894 0.161759
N1    N     N_R   0.795854 0.282401 0.092813 0.314915
O25   O     O_R   0.815081 0.382333 0.102359 -0.305144
O26   O     O_R   0.814740 0.235153 0.017643 -0.268323
H24   H     H_    0.953480 0.243150 0.193834 0.136474
N2    N     N_R   0.996039 0.747540 0.825691 0.236775
O27   O     O_R   0.125987 0.799424 0.875463 -0.354847
O28   O     O_R   0.915844 0.671017 0.856403 -0.321362
H25   H     H_    0.803358 0.889142 0.687768 0.254540
N3    N     N_R   0.237819 0.265550 0.426975 0.162509
O29   O     O_R   0.216908 0.346854 0.476195 -0.393959
O30   O     O_R   0.361599 0.222630 0.450398 -0.323267
H26   H     H_    0.142834 0.802087 0.107515 0.171513
N4    N     N_R   0.164647 0.086599 0.231486 0.291730
O31   O     O_R   0.117053 0.117854 0.154143 -0.316350
O32   O     O_R   0.262865 0.019309 0.236304 -0.238511
N5    N     N_R   0.417478 0.873986 0.708885 0.245756
O33   O     O_R   0.322203 0.934407 0.735881 -0.429677
O34   O     O_R   0.476631 0.890217 0.636823 -0.364274
H27   H     H_    0.343946 0.740753 0.765741 0.039847
H28   H     H_    0.585883 0.776283 0.893696 0.262243
N6    N     N_R   0.364367 0.804086 0.068196 0.314989
O35   O     O_R   0.461805 0.747963 0.037222 -0.414589
O36   O     O_R   0.362128 0.897959 0.046849 -0.234204
H29   H     H_    0.687473 0.229318 0.746185 0.092396
N7    N     N_R   0.849668 0.135645 0.707682 0.193965
O37   O     O_R   0.998965 0.123600 0.722554 -0.518305
O38   O     O_R   0.751059 0.070734 0.647771 -0.405007
H30   H     H_    0.653699 0.146182 0.882207 0.276812
N8    N     N_R   0.464539 0.286991 0.845961 0.188359
O39   O     O_R   0.525180 0.359111 0.802555 -0.383782
O40   O     O_R   0.506071 0.294357 0.932705 -0.342864
H31   H     H_    0.213419 0.174465 0.906871 0.231896
H32   H     H_    0.968018 0.839931 0.280769 0.009404
N9    N     N_R   0.595745 0.040085 0.371526 0.274882
O41   O     O_R   0.459623 0.060700 0.389987 -0.276360
O42   O     O_R   0.610470 0.025778 0.288069 -0.275024
H33   H     H_    0.189721 0.956342 0.584942 0.222267
H34   H     H_    0.670327 0.739495 0.485480 0.166113
N10   N     N_R   0.717436 0.545988 0.021643 0.265089
O43   O     O_R   0.809223 0.632271 0.017358 -0.276456
O44   O     O_R   0.715620 0.467945 0.962791 -0.207634
N11   N     N_R   0.176591 0.428573 0.089612 0.247097
O45   O     O_R   0.077330 0.480396 0.044878 -0.316916
O46   O     O_R   0.134029 0.330174 0.093367 -0.301103
H35   H     H_    0.550804 0.616544 0.915033 0.169978
H36   H     H_    0.623009 0.530467 0.307092 0.185930
N12   N     N_R   0.718673 0.802541 0.234073 0.195334
O47   O     O_R   0.614172 0.855357 0.196826 -0.310768
O48   O     O_R   0.684726 0.750100 0.298687 -0.517712
N13   N     N_R   0.808213 0.887760 0.068512 0.308083
O49   O     O_R   0.863604 0.837079 0.006066 -0.306391
O50   O     O_R   0.700741 0.946280 0.044928 -0.296311
N14   N     N_R   0.568702 0.259164 0.212458 0.231306
O51   O     O_R   0.516660 0.300372 0.140977 -0.392121
O52   O     O_R   0.477121 0.180649 0.232382 -0.189378

loop_
_geom_bond_atom_site_label_1
_geom_bond_atom_site_label_2
_geom_bond_distance
_ccdc_geom_bond_type
P7    O21   1.602358 D    
C13   N7    1.449874 S    
C26   H33   1.073520 S    
C7    H7    1.107428 S    
C19   C20   1.409467 A    
N5    O33   1.297693 A    
C3    N13   1.459424 S    
C17   C25   1.389993 A    
N13   O49   1.299642 A    
C35   C36   1.430159 A    
O3    P6    1.722147 S    
C23   C24   1.475533 A    
N6    O35   1.299196 A    
N11   O46   1.299022 A    
C35   C38   1.389434 A    
C28   C29   1.400421 A    
Ba1   Ba2   4.704738 S    
C15   C16   1.539472 S    
P4    O13   1.640090 S    
N14   O52   1.292166 A    
C3    H2    1.088202 S    
P2    O10   1.728432 S    
C30   C31   1.427907 A    
C8    H8    1.094318 S    
O3    Ba1   2.872697 S    
P3    O9    1.527641 D    
O5    C6    1.399439 S    
O19   C13   1.405451 S    
C27   C32   1.391219 A    
C5    H24   1.085609 S    
N4    O31   1.301469 A    
C14   H17   1.111149 S    
P1    O1    1.557951 D    
O16   P7    1.771482 S    
O14   Ba2   2.872029 S    
C36   N11   1.421662 S    
C29   C30   1.415801 A    
C3    H15   1.105382 S    
P5    O18   1.538210 D    
C33   C37   1.429097 A    
Ba2   O21   2.887275 S    
C12   H14   1.108807 S    
O11   C2    1.401821 S    
N1    O26   1.296769 A    
C13   H29   1.104037 S    
C4    N14   1.459895 S    
C11   O22   1.408147 S    
C31   H35   1.064561 S    
P5    O17   1.751143 S    
P8    O23   1.545565 D    
C13   C14   1.526421 S    
P7    C32   1.851868 S    
Ba1   O16   2.849296 S    
P5    C28   1.830056 S    
O2    Ba1   2.993376 S    
C18   C21   1.408737 A    
N3    O30   1.278164 A    
N3    O29   1.297544 A    
N13   O50   1.300595 A    
C30   C37   1.549370 S    
N7    O38   1.295995 A    
C2    C3    1.541023 S    
C19   N9    1.411460 S    
Ba1   O20   3.004952 S    
P8    O24   1.753626 S    
C11   H27   1.110473 S    
C11   C12   1.523760 S    
P1    C21   1.941773 S    
O6    P6    1.771137 S    
C1    H12   1.109706 S    
C22   C23   1.458298 A    
C18   C20   1.404216 A    
C36   C37   1.448225 A    
C4    O15   1.401223 S    
C31   C32   1.405726 A    
C16   H19   1.110470 S    
P8    C25   1.872046 S    
P2    Ba1   3.473531 S    
C6    H5    1.102541 S    
C15   N8    1.457972 S    
O2    Ba2   2.920993 S    
P1    O5    1.749748 S    
O8    Ba1   2.840984 S    
C14   H16   1.106358 S    
P1    O2    1.640071 S    
P4    O12   1.558297 D    
C9    H10   1.111455 S    
C14   H30   1.100334 S    
P4    O15   1.758482 S    
C21   C22   1.461638 A    
C15   O24   1.412113 S    
P3    O11   1.748772 S    
P3    C34   1.845015 S    
C6    N2    1.460317 S    
C10   H11   1.107280 S    
N1    O25   1.289105 A    
C4    H3    1.111951 S    
N2    O28   1.299219 A    
Ba1   O13   2.920337 S    
O12   Ba2   2.955735 S    
N5    O34   1.301467 A    
C29   H22   1.072809 S    
C12   H13   1.102056 S    
N14   O51   1.297982 A    
C16   H31   1.110966 S    
P2    O7    1.559571 D    
C4    C5    1.545429 S    
C1    C10   1.538595 S    
P7    O22   1.750001 S    
O1    Ba1   2.955312 S    
N12   O48   1.295891 A    
C6    C7    1.529345 S    
O13   Ba2   2.994313 S    
P4    Ba2   3.504969 S    
P6    C20   1.903529 S    
C38   H36   1.082479 S    
N7    O37   1.290121 A    
O10   C8    1.401836 S    
N8    O40   1.301851 A    
O14   P8    1.787301 S    
O4    P6    1.548956 D    
C12   H28   1.098315 S    
C11   N5    1.456384 S    
C27   H23   1.082319 S    
N12   O47   1.291870 A    
C1    N6    1.450705 S    
C5    N1    1.440747 S    
C22   C26   1.415639 A    
N10   O44   1.295673 A    
N4    O32   1.295697 A    
C2    H32   1.113316 S    
N10   O43   1.296116 A    
C1    H26   1.090647 S    
N11   O45   1.301293 A    
O7    Ba1   2.887105 S    
P4    C24   1.932479 S    
C15   H18   1.109544 S    
N9    O41   1.295269 A    
H1    C10   1.102584 S    
C33   N10   1.435997 S    
O16   Ba2   3.004006 S    
C9    H9    1.100561 S    
C8    C9    1.545552 S    
P3    O8    1.744342 S    
C18   H34   1.082232 S    
Ba2   O20   2.848499 S    
C7    H25   1.107423 S    
N2    O27   1.301133 A    
N6    O36   1.301178 A    
C34   C38   1.390659 A    
C25   C26   1.412571 A    
P5    O19   1.757300 S    
C33   C34   1.413486 A    
P2    C35   1.890721 S    
P1    Ba1   3.504475 S    
C16   H20   1.103839 S    
C27   C28   1.382800 A    
C9    N4    1.462093 S    
C8    N3    1.436356 S    
C7    H6    1.104551 S    
C19   C23   1.430113 A    
C5    H4    1.112817 S    
C2    N12   1.454755 S    
N9    O42   1.296689 A    
O17   Ba2   2.841608 S    
C17   C24   1.392696 A    
O6    C10   1.419215 S    
N8    O39   1.297021 A    
C17   H21   1.076480 S    
P2    O20   1.591107 S    
