data_mof_unit_6819.cif
_audit_creation_date              2012-10-26T19:52:27-0400
_audit_creation_method            fapswitch 2.2
_symmetry_space_group_name_H-M    P1
_symmetry_Int_Tables_number       1
_space_group_crystal_system       triclinic
_cell_length_a                    9.656223
_cell_length_b                    10.816705
_cell_length_c                    13.534372
_cell_angle_alpha                 92.52766
_cell_angle_beta                  74.09983
_cell_angle_gamma                 89.500741
_cell_volume                      1357.91873705

loop_
_atom_site_label
_atom_site_type_symbol
_atom_type_description
_atom_site_fract_x
_atom_site_fract_y
_atom_site_fract_z
_atom_type_partial_charge
C1    C     C_R   0.497573 0.736827 0.505473 0.538063
C2    C     C_R   0.388070 0.493216 0.813344 -0.015246
C3    C     C_R   0.508135 0.925033 0.413913 -0.006712
C4    C     C_R   0.425086 0.495468 0.699380 0.529740
C5    C     C_R   0.498351 0.869394 0.505554 -0.006359
C6    C     C_R   0.502458 0.941653 0.593215 -0.153745
C7    C     C_R   0.502157 0.070877 0.590302 -0.112498
C8    C     C_R   0.502558 0.127719 0.498825 0.039924
C9    C     C_R   0.518346 0.053055 0.408391 0.017286
C10   C     C_3   0.427241 0.050366 0.334414 0.218962
C11   C     C_3   0.403752 0.913696 0.350885 0.142515
C12   C     C_R   0.446808 0.538373 0.977082 0.021810
C13   C     C_R   0.956138 0.430319 0.427987 0.119069
C14   C     C_R   0.899941 0.579218 0.564337 0.355222
C15   C     C_R   0.047836 0.573662 0.567592 -0.004167
C16   C     C_R   0.501060 0.262178 0.497892 0.586511
C17   C     C_R   0.103609 0.439011 0.422279 0.077215
C18   C     C_3   0.134060 0.307102 0.384035 0.134957
C19   C     C_3   0.969851 0.292002 0.401263 0.432476
C20   C     C_R   0.576239 0.513568 0.302676 0.622615
C21   C     C_R   0.797601 0.588626 0.036170 -0.125901
C22   C     C_R   0.618711 0.543228 0.193610 0.039344
C23   C     C_R   0.494036 0.511685 0.869344 -0.021298
C24   C     C_R   0.242057 0.481242 0.869111 0.230877
C25   C     C_R   0.199084 0.511010 0.974011 -0.088697
C26   C     C_R   0.298220 0.548349 0.025257 -0.122805
C27   C     C_3   0.877328 0.721765 0.214523 -0.012746
C28   C     C_3   0.954539 0.739627 0.297934 -0.352786
C29   C     C_3   0.640902 0.039669 0.188145 0.043905
C30   C     C_3   0.709600 0.119770 0.098708 -0.336473
C31   C     C_3   0.343447 0.826990 0.209665 0.014408
C32   C     C_3   0.404911 0.849815 0.095818 -0.367446
C33   C     C_3   0.845226 0.781447 0.628848 -0.009909
C34   C     C_R   0.550120 0.551799 0.033766 0.009452
C35   C     C_3   0.850752 0.828567 0.735322 -0.394236
C36   C     C_3   0.134240 0.317875 0.813391 -0.017481
C37   C     C_3   0.026914 0.279360 0.754694 -0.327559
C38   C     C_R   0.696719 0.564478 0.981467 -0.013144
C39   C     C_R   0.742769 0.541983 0.876068 -0.137340
C40   C     C_R   0.645338 0.503541 0.823413 -0.087474
C41   C     C_R   0.513600 0.542924 0.140545 -0.132157
C42   C     C_R   0.759792 0.577842 0.142661 0.266649
Cu1   Cu    Cu3+1 0.359330 0.500020 0.500010 0.995078
Cu2   Cu    Cu3+1 0.640670 0.499980 0.499990 1.114777
H1    H     H_    0.499099 0.126430 0.659501 0.096043
H2    H     H_    0.087673 0.505192 0.016809 0.182304
H3    H     H_    0.695941 0.461411 0.749109 0.207371
H4    H     H_    0.500262 0.898514 0.664343 0.107945
H5    H     H_    0.770946 0.771627 0.241994 0.142646
H6    H     H_    0.942496 0.763480 0.143359 0.111600
H7    H     H_    0.056441 0.684201 0.277209 0.146350
H8    H     H_    0.978570 0.838932 0.307429 0.145049
H9    H     H_    0.885410 0.708905 0.372084 0.180702
H10   H     H_    0.646597 0.943177 0.156369 0.153296
H11   H     H_    0.706335 0.044163 0.243389 0.196602
H12   H     H_    0.325185 0.102598 0.365693 0.149578
H13   H     H_    0.647803 0.113599 0.040534 0.138275
H14   H     H_    0.710021 0.217941 0.126308 0.228958
H15   H     H_    0.822010 0.087456 0.061581 0.070376
H16   H     H_    0.249538 0.892267 0.240092 0.163925
H17   H     H_    0.301309 0.732266 0.218104 0.120613
H18   H     H_    0.327819 0.818751 0.052722 0.093412
H19   H     H_    0.422733 0.949967 0.084759 0.179947
H20   H     H_    0.509073 0.799361 0.064026 0.155895
H21   H     H_    0.764255 0.838253 0.605855 0.188917
H22   H     H_    0.950391 0.798175 0.571827 0.118667
H23   H     H_    0.294312 0.891056 0.399707 0.096771
H24   H     H_    0.932204 0.774519 0.760461 0.139641
H25   H     H_    0.880249 0.927632 0.733465 0.128347
H26   H     H_    0.743747 0.819310 0.791533 0.156537
H27   H     H_    0.282089 0.163015 0.123236 0.357933
H28   H     H_    0.972733 0.091659 0.178549 0.338815
H29   H     H_    0.760402 0.213416 0.663375 0.339753
H30   H     H_    0.099598 0.279599 0.891279 0.138499
H31   H     H_    0.241597 0.277091 0.770739 0.123386
H32   H     H_    0.057087 0.318995 0.677549 0.220263
H33   H     H_    0.026806 0.176872 0.745206 0.126317
H34   H     H_    0.081424 0.629321 0.624889 0.135615
H35   H     H_    0.916944 0.312714 0.797521 0.144737
H36   H     H_    0.181672 0.257540 0.436242 0.141140
H37   H     H_    0.856568 0.541626 0.835818 0.159749
H38   H     H_    0.906438 0.611057 0.995501 0.115718
H39   H     H_    0.404703 0.528242 0.183153 0.196021
H40   H     H_    0.255776 0.583344 0.103539 0.144510
N1    N     N_R   0.852320 0.499070 0.499340 -0.218920
N2    N     N_R   0.148230 0.499110 0.499340 -0.293525
O1    O     O_R   0.381190 0.680360 0.500000 -0.522277
O2    O     O_3   0.495755 0.080564 0.230720 -0.472184
O3    O     O_3   0.453073 0.836749 0.261041 -0.573502
O4    O     O_3   0.800206 0.656872 0.632709 -0.547890
O5    O     O_2   0.208128 0.393632 0.193198 -0.312677
O6    O     O_2   0.401649 0.305726 0.252466 -0.264841
O7    O     O_3   0.230965 0.155174 0.196805 -0.486874
O8    O     O_2   0.745482 0.249207 0.317833 -0.278642
O9    O     O_2   0.957324 0.328001 0.202047 -0.246403
O10   O     O_3   0.960746 0.098344 0.253616 -0.508666
O11   O     O_2   0.808780 0.094931 0.478025 -0.249756
O12   O     O_R   0.618780 0.680320 0.499990 -0.497945
O13   O     O_2   0.020096 0.126910 0.538061 -0.386485
O14   O     O_3   0.802505 0.275472 0.612564 -0.568533
O15   O     O_3   0.137832 0.448336 0.821012 -0.563979
O16   O     O_R   0.323230 0.500000 0.650990 -0.470095
O17   O     O_R   0.560820 0.499960 0.650980 -0.490389
O18   O     O_R   0.381220 0.319680 0.500010 -0.533738
O19   O     O_R   0.618810 0.319640 0.500000 -0.397383
O20   O     O_R   0.439180 0.500040 0.349020 -0.472337
O21   O     O_R   0.676770 0.500000 0.349010 -0.427351
O22   O     O_3   0.862642 0.593793 0.195483 -0.512099
S1    S     S_3+6 0.247168 0.293303 0.253621 0.022773
S2    S     S_3+6 0.906116 0.245481 0.290441 0.092942
S3    S     S_3+6 0.900521 0.192614 0.508552 -0.006119

loop_
_geom_bond_atom_site_label_1
_geom_bond_atom_site_label_2
_ccdc_geom_bond_type
C1    O1    A    
C40   H3    S    
C4    O17   A    
H29   O14   S    
C31   H17   S    
C18   S1    S    
C33   H21   S    
C7    C8    A    
C22   C42   A    
Cu2   O19   S    
C37   H35   S    
C12   C23   A    
C10   O2    S    
C6    H4    S    
C1    C5    S    
C7    H1    S    
C36   C37   S    
C18   C19   S    
C38   C39   A    
O11   S3    D    
C28   H7    S    
O6    S1    D    
Cu2   O21   S    
C22   C41   A    
C29   H10   S    
C23   C40   A    
C41   H39   S    
C30   H13   S    
C35   H24   S    
C24   O15   S    
Cu1   O18   S    
C14   O4    S    
C29   O2    S    
Cu2   O12   S    
C16   O18   A    
C21   C38   A    
C35   H26   S    
C8    C9    A    
C31   O3    S    
C4    O16   A    
C10   H12   S    
C9    C10   S    
C27   H6    S    
C20   O21   A    
C8    C16   S    
C34   C41   A    
Cu2   O17   S    
C11   H23   S    
C33   H22   S    
C20   O20   A    
C13   C19   S    
C17   N2    A    
C24   C25   A    
C39   H37   S    
C39   C40   A    
C29   H11   S    
C25   C26   A    
O10   S2    S    
O8    S2    D    
C12   C26   A    
C36   O15   S    
Cu1   O20   S    
H28   O10   S    
C31   H16   S    
C2    C4    S    
Cu1   Cu2   S    
C29   C30   S    
C3    C9    A    
C36   H31   S    
C11   O3    S    
C31   C32   S    
O13   S3    D    
C30   H15   S    
C17   C18   S    
C32   H20   S    
C36   H30   S    
C16   O19   A    
C15   N2    A    
C37   H32   S    
C20   C22   S    
C2    C24   A    
C12   C34   A    
Cu2   N1    S    
C27   C28   S    
C19   S2    S    
C26   H40   S    
C34   C38   A    
Cu1   N2    S    
C14   N1    A    
C3    C5    A    
O9    S2    D    
C1    O12   A    
C28   H9    S    
C6    C7    A    
H27   O7    S    
C19   S3    S    
C32   H19   S    
C13   C17   A    
Cu1   O1    S    
O5    S1    D    
Cu1   O16   S    
C32   H18   S    
C33   O4    S    
C28   H8    S    
C5    C6    A    
C37   H33   S    
C27   O22   S    
C30   H14   S    
C33   C35   S    
C3    C11   S    
C10   C11   S    
C21   C42   A    
C15   H34   S    
C21   H38   S    
C35   H25   S    
O14   S3    S    
C18   H36   S    
C13   N1    A    
C2    C23   A    
C14   C15   A    
C42   O22   S    
C25   H2    S    
C27   H5    S    
O7    S1    S    
