data_mof_unit_51642.cif
_audit_creation_date              2013-03-05T16:04:00-0500
_audit_creation_method            fapswitch 2.2
_symmetry_space_group_name_H-M    P1
_symmetry_Int_Tables_number       1
_space_group_crystal_system       triclinic
_cell_length_a                    13.037006
_cell_length_b                    10.809624
_cell_length_c                    9.516018
_cell_angle_alpha                 89.973772
_cell_angle_beta                  95.664219
_cell_angle_gamma                 90.132693
_cell_volume                      1334.49469685

loop_
_atom_site_label
_atom_site_type_symbol
_atom_site_description
_atom_site_fract_x
_atom_site_fract_y
_atom_site_fract_z
_atom_type_partial_charge
O1    O     O_R   0.499990 0.319660 0.618740 -0.573188
O2    O     O_R   0.500010 0.680340 0.381260 -0.573195
O3    O     O_R   0.499990 0.319630 0.381170 -0.576866
O4    O     O_R   0.500010 0.680370 0.618830 -0.576878
C1    C     C_R   0.502966 0.262280 0.500345 0.907176
C2    C     C_R   0.497024 0.737720 0.499654 0.907222
O5    O     O_R   0.349000 0.499990 0.599490 -0.538163
O6    O     O_R   0.651000 0.500010 0.400510 -0.538177
O7    O     O_R   0.348990 0.499960 0.361920 -0.571491
O8    O     O_R   0.651010 0.500040 0.638080 -0.571479
C3    C     C_R   0.300906 0.502265 0.474291 0.918900
C4    C     C_R   0.699093 0.497736 0.525708 0.918881
Cu1   Cu    Cu3+1 0.500000 0.500020 0.640660 1.082198
Cu2   Cu    Cu3+1 0.500000 0.499980 0.359340 1.082203
C5    C     C_R   0.811158 0.488335 0.538940 -0.251517
C6    C     C_R   0.188843 0.511666 0.461058 -0.251498
C7    C     C_R   0.031588 0.606963 0.357514 -0.122469
C8    C     C_R   0.968411 0.393038 0.642484 -0.122466
C9    C     C_R   0.137951 0.593925 0.362401 0.272778
C10   C     C_R   0.862049 0.406071 0.637592 0.272762
C11   C     C_R   0.132734 0.443508 0.554218 0.310276
C12   C     C_R   0.867265 0.556496 0.445783 0.310291
C13   C     C_R   0.025536 0.459121 0.549916 -0.049966
C14   C     C_R   0.974464 0.540883 0.450084 -0.049968
H1    H     H_    0.994828 0.672936 0.283423 0.233019
H2    H     H_    0.005171 0.327063 0.716572 0.233021
C15   C     C_R   0.555480 0.061619 0.400342 0.340069
C16   C     C_R   0.444461 0.938384 0.599626 0.340021
C17   C     C_R   0.547722 0.933435 0.399141 -0.201271
C18   C     C_R   0.452242 0.066568 0.600842 -0.201281
H3    H     H_    0.587482 0.881390 0.323753 0.220503
H4    H     H_    0.412482 0.118622 0.676223 0.220555
C19   C     C_R   0.494315 0.871612 0.498809 -0.180672
C20   C     C_R   0.505655 0.128388 0.501181 -0.180691
C21   C     C_R   0.442865 0.415552 0.066697 0.057629
C22   C     C_R   0.557135 0.584448 0.933303 0.057552
H5    H     H_    0.397040 0.347936 0.116557 0.148609
H6    H     H_    0.602961 0.652063 0.883443 0.148597
C23   C     C_R   0.443075 0.415435 0.917904 0.074552
C24   C     C_R   0.556926 0.584564 0.082096 0.074516
H7    H     H_    0.397852 0.347360 0.855723 0.176125
H8    H     H_    0.602148 0.652640 0.144277 0.176123
N1    N     N_R   0.500030 0.500030 0.852080 -0.191593
N2    N     N_R   0.499970 0.499970 0.147920 -0.191595
N3    N     N_R   0.815234 0.642628 0.348278 0.117287
O9    O     O_R   0.809517 0.621547 0.213109 -0.337378
O10   O     O_R   0.766965 0.736959 0.395056 -0.369752
N4    N     N_R   0.184766 0.357378 0.651727 0.117292
O11   O     O_R   0.190483 0.378463 0.786895 -0.337361
O12   O     O_R   0.233034 0.263046 0.604952 -0.369749
N5    N     N_R   0.806721 0.329940 0.728475 0.150473
O13   O     O_R   0.843542 0.312441 0.859084 -0.275256
O14   O     O_R   0.730433 0.261315 0.675412 -0.319092
N6    N     N_R   0.193276 0.670046 0.271508 0.150469
O15   O     O_R   0.156454 0.687530 0.140897 -0.275259
O16   O     O_R   0.269566 0.738675 0.324557 -0.319068
N7    N     N_R   0.617894 0.121289 0.303692 0.146427
O17   O     O_R   0.683899 0.206414 0.348575 -0.301720
O18   O     O_R   0.620740 0.077488 0.176775 -0.295618
N8    N     N_R   0.381991 0.878721 0.696218 0.146450
O19   O     O_R   0.316101 0.793481 0.651316 -0.301796
O20   O     O_R   0.378923 0.922672 0.823029 -0.295507

loop_
_geom_bond_atom_site_label_1
_geom_bond_atom_site_label_2
_geom_bond_distance
_ccdc_geom_bond_type
O5    Cu1   1.968905 S    
C21   C23   1.416191 A    
C13   C14   1.415648 A    
C4    C5    1.457744 S    
C6    C11   1.410225 A    
C15   C17   1.389037 A    
C3    C6    1.457734 S    
Cu2   N2    2.011838 S    
C24   H8    1.081087 S    
C8    H2    1.081561 S    
C2    C19   1.447838 S    
C24   N2    1.366760 A    
O6    C4    1.290630 A    
C11   N4    1.437308 S    
C7    H1    1.081555 S    
C1    C20   1.447828 S    
Cu1   N1    2.011838 S    
C16   C18   1.389067 A    
C23   H7    1.081087 S    
N3    O9    1.301243 A    
N4    O12   1.300988 A    
C22   H6    1.081605 S    
C18   H4    1.083971 S    
C21   N2    1.366846 A    
O7    C3    1.292079 A    
N7    O17   1.301440 A    
O2    C2    1.290329 A    
O3    Cu2   1.960459 S    
O8    C4    1.292074 A    
C6    C9    1.411117 A    
O1    C1    1.290326 A    
C9    N6    1.437077 S    
N8    O20   1.301412 A    
N4    O11   1.301242 A    
C7    C9    1.390317 A    
C16   C19   1.410563 A    
O5    C3    1.290632 A    
C10   N5    1.437084 S    
C8    C10   1.390306 A    
C16   N8    1.438371 S    
C15   C20   1.410501 A    
C5    C10   1.411123 A    
O2    Cu2   1.960844 S    
N6    O16   1.300852 A    
N7    O18   1.301404 A    
O4    C2    1.289470 A    
O1    Cu1   1.960843 S    
C18   C20   1.399461 A    
N5    O14   1.300845 A    
N5    O13   1.301300 A    
C7    C14   1.402592 A    
C17   C19   1.399478 A    
C22   C24   1.416191 A    
C12   N3    1.437291 S    
N3    O10   1.300995 A    
C17   H3    1.083969 S    
C15   N7    1.438327 S    
C12   C14   1.404679 A    
O4    Cu1   1.960460 S    
O7    Cu2   1.971292 S    
N6    O15   1.301300 A    
C22   N1    1.366847 A    
C23   N1    1.366761 A    
O6    Cu2   1.968904 S    
C21   H5    1.081605 S    
Cu1   Cu2   2.677046 S    
C11   C13   1.404661 A    
C5    C12   1.410206 A    
C8    C13   1.402602 A    
N8    O19   1.301424 A    
O3    C1    1.289461 A    
O8    Cu1   1.971292 S    
