data_mof_unit_66852.cif
_audit_creation_date              2013-03-05T15:57:23-0500
_audit_creation_method            fapswitch 2.2
_symmetry_space_group_name_H-M    P1
_symmetry_Int_Tables_number       1
_space_group_crystal_system       triclinic
_cell_length_a                    17.107151
_cell_length_b                    18.265565
_cell_length_c                    8.375464
_cell_angle_alpha                 90.000027
_cell_angle_beta                  101.793811
_cell_angle_gamma                 89.904531
_cell_volume                      2561.8441412

loop_
_atom_site_label
_atom_site_type_symbol
_atom_site_description
_atom_site_fract_x
_atom_site_fract_y
_atom_site_fract_z
_atom_type_partial_charge
P1    P     P_3+3 0.834140 0.419320 0.003900 0.454629
P2    P     P_3+3 0.834140 0.580680 0.503900 0.450730
P3    P     P_3+3 0.334140 0.919320 0.003900 0.457037
P4    P     P_3+3 0.334140 0.080680 0.503900 0.452268
O1    O     O_2   0.841960 0.394640 0.833410 -0.364586
O2    O     O_2   0.841960 0.605360 0.333410 -0.372280
O3    O     O_2   0.341960 0.894640 0.833410 -0.373957
O4    O     O_2   0.341960 0.105360 0.333410 -0.362696
O5    O     O_3   0.907950 0.463080 0.102990 -0.401788
O6    O     O_3   0.907950 0.536920 0.602990 -0.397504
O7    O     O_3   0.407950 0.963080 0.102990 -0.394036
O8    O     O_3   0.407950 0.036920 0.602990 -0.399498
O9    O     O_3   0.972780 0.329600 0.629720 -0.380508
O10   O     O_3   0.972780 0.670400 0.129720 -0.347104
O11   O     O_3   0.472780 0.829600 0.629720 -0.382591
O12   O     O_3   0.472780 0.170400 0.129720 -0.380739
O13   O     O_2   0.837892 0.274428 0.687546 -0.363670
O14   O     O_2   0.843250 0.730945 0.198978 -0.383536
O15   O     O_2   0.339369 0.772657 0.692065 -0.370461
O16   O     O_2   0.340082 0.228742 0.193098 -0.380441
O17   O     O_3   0.750790 0.477138 0.968777 -0.582466
O18   O     O_3   0.751117 0.522723 0.469194 -0.579531
O19   O     O_3   0.251055 0.977466 0.970298 -0.577268
O20   O     O_3   0.250271 0.023945 0.466853 -0.581178
O21   O     O_3   0.941397 0.176895 0.642703 -0.513602
O22   O     O_3   0.952040 0.821117 0.139534 -0.497694
O23   O     O_3   0.443625 0.676902 0.640024 -0.526327
O24   O     O_3   0.444923 0.322636 0.135687 -0.524587
H1    H     H_    0.060531 0.199149 0.730089 0.154497
H2    H     H_    0.014114 0.798525 0.953867 0.063607
H3    H     H_    0.563406 0.698411 0.721703 0.147469
H4    H     H_    0.564673 0.295974 0.195591 0.134170
C1    C     C_3   0.044487 0.095139 0.605969 -1.059879
C2    C     C_3   0.053089 0.898738 0.072304 -0.929665
C3    C     C_3   0.545248 0.597179 0.586370 -1.039164
C4    C     C_3   0.546176 0.401795 0.080345 -1.025404
H5    H     H_    0.608344 0.594520 0.572150 0.249691
H6    H     H_    0.542842 0.432192 0.193166 0.274716
H7    H     H_    0.107944 0.091646 0.594609 0.246320
H8    H     H_    0.104650 0.868728 0.144823 0.259609
H9    H     H_    0.035755 0.063610 0.714157 0.281086
H10   H     H_    0.032291 0.941407 0.148472 0.260777
H11   H     H_    0.537524 0.562825 0.691232 0.276641
H12   H     H_    0.504934 0.428395 0.977349 0.266538
P5    P     P_3+3 0.165830 0.418670 0.685610 0.444479
P6    P     P_3+3 0.165830 0.581330 0.185610 0.460352
P7    P     P_3+3 0.665830 0.918670 0.685610 0.451186
P8    P     P_3+3 0.665830 0.081330 0.185610 0.454853
P9    P     P_3+3 0.098438 0.260513 0.108491 0.462532
P10   P     P_3+3 0.099813 0.738409 0.611031 0.458837
P11   P     P_3+3 0.600808 0.762340 0.109892 0.449346
P12   P     P_3+3 0.600005 0.238316 0.609341 0.446203
O25   O     O_2   0.157990 0.394030 0.856030 -0.359244
O26   O     O_2   0.157990 0.605970 0.356030 -0.383636
O27   O     O_2   0.657990 0.894030 0.856030 -0.360136
O28   O     O_2   0.657990 0.105970 0.356030 -0.374918
O29   O     O_3   0.027110 0.329490 0.059550 -0.344084
O30   O     O_3   0.027110 0.670510 0.559550 -0.382799
O31   O     O_3   0.527110 0.829490 0.059550 -0.370775
O32   O     O_3   0.527110 0.170510 0.559550 -0.381692
O33   O     O_2   0.156293 0.268367 0.989894 -0.387187
O34   O     O_2   0.162599 0.725680 0.505097 -0.364677
O35   O     O_2   0.662397 0.774434 0.001141 -0.379208
O36   O     O_2   0.660884 0.227268 0.498327 -0.375717
O37   O     O_3   0.248697 0.476603 0.729791 -0.578472
O38   O     O_3   0.249366 0.523732 0.218247 -0.573634
O39   O     O_3   0.749957 0.975108 0.723559 -0.581689
O40   O     O_3   0.749087 0.023368 0.219901 -0.576507
O41   O     O_3   0.047339 0.178779 0.050650 -0.498280
O42   O     O_3   0.057970 0.823211 0.544464 -0.510523
O43   O     O_3   0.558363 0.677958 0.044317 -0.522823
O44   O     O_3   0.556905 0.323339 0.548955 -0.525409
C5    C     C_3   0.012150 0.156095 0.180042 0.377932
C6    C     C_3   0.978827 0.826085 0.567040 0.516744
C7    C     C_3   0.489860 0.667270 0.109720 0.472790
C8    C     C_3   0.479813 0.325868 0.582902 0.472636
H13   H     H_    0.984800 0.202606 0.235041 0.063329
H14   H     H_    0.938453 0.802014 0.459258 0.152848
H15   H     H_    0.437003 0.691098 0.026107 0.121140
H16   H     H_    0.436983 0.298732 0.482774 0.137842
H17   H     H_    0.058070 0.128641 0.273904 0.069666
H18   H     H_    0.970019 0.796350 0.677577 -0.013837
H19   H     H_    0.494560 0.691949 0.232542 0.018187
H20   H     H_    0.476449 0.299160 0.700557 0.024265
C9    C     C_3   0.945483 0.102151 0.118082 -0.930372
C10   C     C_3   0.956112 0.905758 0.584267 -1.063301
C11   C     C_3   0.477980 0.585502 0.126253 -1.035677
C12   C     C_3   0.455740 0.405550 0.593789 -1.014670
H21   H     H_    0.467937 0.559199 0.004185 0.282349
H22   H     H_    0.393175 0.409172 0.611053 0.244511
H23   H     H_    0.894225 0.132145 0.044355 0.260008
H24   H     H_    0.892731 0.909788 0.595909 0.247191
H25   H     H_    0.966275 0.058961 0.043168 0.260618
H26   H     H_    0.965105 0.937446 0.476478 0.280952
H27   H     H_    0.532288 0.561366 0.203913 0.272071
H28   H     H_    0.461483 0.435173 0.481138 0.274429
C13   C     C_3   0.232038 0.457667 0.287973 0.376147
C14   C     C_3   0.223549 0.547122 0.760695 0.414931
C15   C     C_3   0.730510 0.956490 0.284399 0.383051
C16   C     C_3   0.730157 0.045083 0.770355 0.340560
H29   H     H_    0.238621 0.465737 0.420804 0.096296
H30   H     H_    0.188559 0.545721 0.858222 0.102422
H31   H     H_    0.734803 0.963156 0.416883 0.106697
H32   H     H_    0.728349 0.044197 0.901467 0.111916
H33   H     H_    0.171310 0.436964 0.234542 0.117506
H34   H     H_    0.187058 0.571394 0.648648 0.138552
H35   H     H_    0.670406 0.935882 0.226097 0.123039
H36   H     H_    0.672667 0.065848 0.697948 0.136190
C17   C     C_3   0.291855 0.400319 0.257859 -0.861497
C18   C     C_3   0.296848 0.594475 0.815929 -0.963577
C19   C     C_3   0.791368 0.899917 0.255874 -0.894254
C20   C     C_3   0.795054 0.097086 0.742986 -0.835314
H37   H     H_    0.352301 0.424518 0.273554 0.271892
H38   H     H_    0.325189 0.579450 0.942437 0.255864
H39   H     H_    0.851898 0.924155 0.277925 0.268296
H40   H     H_    0.854670 0.074135 0.796713 0.268706
H41   H     H_    0.293725 0.353976 0.343947 0.215964
H42   H     H_    0.280138 0.653019 0.812983 0.246496
H43   H     H_    0.791504 0.852442 0.338255 0.221753
H44   H     H_    0.787741 0.151058 0.798454 0.232636
H45   H     H_    0.274439 0.379404 0.131523 0.274749
H46   H     H_    0.339894 0.586178 0.734709 0.299249
H47   H     H_    0.776551 0.880874 0.127912 0.274389
H48   H     H_    0.791548 0.103961 0.610512 0.264901
Ba1   Ba    Ba6+2 0.000000 0.447380 0.844850 1.549462
Ba2   Ba    Ba6+2 0.000000 0.552620 0.344850 1.549550
Ba3   Ba    Ba6+2 0.500000 0.947380 0.844850 1.538381
Ba4   Ba    Ba6+2 0.500000 0.052620 0.344850 1.536207
C21   C     C_3   0.770324 0.544953 0.910211 0.367157
C22   C     C_3   0.770587 0.455278 0.408418 0.361897
C23   C     C_3   0.269717 0.044231 0.905592 0.383421
C24   C     C_3   0.270140 0.954352 0.418197 0.342208
H49   H     H_    0.770842 0.539430 0.779212 0.112318
H50   H     H_    0.769332 0.461309 0.276812 0.110893
H51   H     H_    0.265496 0.037393 0.773186 0.107521
H52   H     H_    0.271793 0.956003 0.287142 0.111780
H53   H     H_    0.828615 0.566257 0.977439 0.125499
H54   H     H_    0.829680 0.434171 0.472438 0.125392
H55   H     H_    0.329838 0.064747 0.964071 0.122626
H56   H     H_    0.327763 0.933506 0.489919 0.134749
C25   C     C_3   0.706430 0.599854 0.931177 -0.866247
C26   C     C_3   0.707870 0.399811 0.432003 -0.857448
C27   C     C_3   0.208871 0.100933 0.933615 -0.896334
C28   C     C_3   0.205359 0.901945 0.444351 -0.835767
H57   H     H_    0.646528 0.574483 0.898724 0.272828
H58   H     H_    0.647609 0.424879 0.402887 0.269736
H59   H     H_    0.148513 0.076429 0.914679 0.269968
H60   H     H_    0.145655 0.925403 0.393323 0.269547
H61   H     H_    0.708194 0.648343 0.852532 0.219622
H62   H     H_    0.709209 0.351593 0.352271 0.216971
H63   H     H_    0.207714 0.147621 0.848729 0.221109
H64   H     H_    0.212031 0.848631 0.385623 0.230247
H65   H     H_    0.716342 0.617625 0.060109 0.271418
H66   H     H_    0.719454 0.381666 0.560879 0.273515
H67   H     H_    0.224600 0.121262 0.060489 0.273249
H68   H     H_    0.209624 0.893504 0.576543 0.265500
O45   O     O_3   0.092100 0.536880 0.086720 -0.397553
O46   O     O_3   0.092100 0.463120 0.586720 -0.411996
O47   O     O_3   0.592100 0.036880 0.086720 -0.393541
O48   O     O_3   0.592100 0.963120 0.586720 -0.400499
P13   P     P_3+3 0.901344 0.739247 0.080981 0.462606
P14   P     P_3+3 0.899645 0.262094 0.579104 0.464773
P15   P     P_3+3 0.399966 0.238178 0.079328 0.448481
P16   P     P_3+3 0.399970 0.761805 0.580311 0.456264
C29   C     C_3   0.020834 0.174649 0.621941 0.514397
C30   C     C_3   0.986666 0.844610 0.009979 0.377085
C31   C     C_3   0.522112 0.675919 0.613065 0.477084
C32   C     C_3   0.521015 0.323005 0.096423 0.475493
H69   H     H_    0.029752 0.204359 0.511460 -0.014470
H70   H     H_    0.940411 0.872141 0.916921 0.070285
H71   H     H_    0.529204 0.708026 0.504342 0.025931
H72   H     H_    0.522096 0.295114 0.978932 0.023542
H73   H     H_    0.505985 0.575027 0.475131 0.268543
H74   H     H_    0.608026 0.403907 0.058349 0.247904
H75   H     H_    0.006465 0.070452 0.496148 0.261138
H76   H     H_    0.072994 0.925400 0.968403 0.226803
H77   H     H_    0.426024 0.575062 0.183696 0.241604
H78   H     H_    0.495823 0.432194 0.698202 0.262832
H79   H     H_    0.925145 0.076155 0.222255 0.227705
H80   H     H_    0.994494 0.929883 0.694306 0.261390
C33   C     C_R   0.134103 0.679636 0.925746 -0.492213
C34   C     C_R   0.136808 0.322264 0.421816 -0.494703
C35   C     C_R   0.636826 0.177638 0.922034 -0.529544
C36   C     C_R   0.635919 0.821758 0.423837 -0.518258
C37   C     C_R   0.864195 0.321978 0.265354 -0.499038
C38   C     C_R   0.863375 0.677267 0.767851 -0.500477
C39   C     C_R   0.363588 0.822316 0.266974 -0.524201
C40   C     C_R   0.363978 0.177642 0.765981 -0.522767
C41   C     C_R   0.792583 0.211175 0.298805 -0.180552
C42   C     C_R   0.791832 0.788383 0.800759 -0.212460
C43   C     C_R   0.291924 0.711435 0.300918 -0.199709
C44   C     C_R   0.292317 0.288631 0.799325 -0.195084
C45   C     C_R   0.849283 0.264021 0.362544 0.199798
C46   C     C_R   0.848342 0.735345 0.865193 0.169385
C47   C     C_R   0.348740 0.764276 0.364261 0.207082
C48   C     C_R   0.348691 0.235457 0.863395 0.217843
C49   C     C_R   0.817466 0.332823 0.109718 0.295350
C50   C     C_R   0.817145 0.666789 0.611355 0.277244
C51   C     C_R   0.317029 0.833082 0.111055 0.285138
C52   C     C_R   0.317660 0.167157 0.609817 0.276036
C53   C     C_R   0.756075 0.281328 0.046259 -0.072273
C54   C     C_R   0.755735 0.718324 0.547900 -0.079135
C55   C     C_R   0.255198 0.781887 0.048363 -0.069092
C56   C     C_R   0.256537 0.218887 0.545937 -0.061963
C57   C     C_R   0.243205 0.719498 0.143927 -0.070861
C58   C     C_R   0.244377 0.281135 0.641689 -0.081262
C59   C     C_R   0.744148 0.218957 0.141782 -0.074163
C60   C     C_R   0.743545 0.780596 0.643529 -0.063197
C61   C     C_R   0.181549 0.668241 0.080564 0.317335
C62   C     C_R   0.183185 0.332763 0.578138 0.268257
C63   C     C_R   0.682857 0.167380 0.078463 0.280355
C64   C     C_R   0.682286 0.832231 0.579813 0.274861
C65   C     C_R   0.149114 0.737471 0.828405 0.183873
C66   C     C_R   0.151831 0.264336 0.324157 0.171607
C67   C     C_R   0.651291 0.235915 0.825237 0.214515
C68   C     C_R   0.650993 0.763849 0.326601 0.211153
C69   C     C_R   0.206359 0.789999 0.891750 -0.183263
C70   C     C_R   0.208371 0.211257 0.388458 -0.210222
C71   C     C_R   0.707492 0.289191 0.889335 -0.198235
C72   C     C_R   0.707553 0.710727 0.390481 -0.198232
H81   H     H_    0.285479 0.665615 0.378275 0.192135
H82   H     H_    0.285941 0.334623 0.875835 0.186863
H83   H     H_    0.786141 0.165249 0.374986 0.177694
H84   H     H_    0.785863 0.834720 0.876453 0.177570
H85   H     H_    0.713401 0.335502 0.813540 0.181848
H86   H     H_    0.714013 0.664796 0.314006 0.180288
H87   H     H_    0.213164 0.835754 0.815360 0.177500
H88   H     H_    0.214333 0.164954 0.312692 0.175766
H89   H     H_    0.088602 0.640146 0.875489 0.164198
H90   H     H_    0.090950 0.361652 0.372201 0.169375
H91   H     H_    0.592031 0.137601 0.871350 0.174928
H92   H     H_    0.590617 0.861540 0.373511 0.172702
H93   H     H_    0.909504 0.361611 0.315669 0.166668
H94   H     H_    0.908863 0.637644 0.818040 0.169439
H95   H     H_    0.408840 0.862005 0.317281 0.174075
H96   H     H_    0.409451 0.138013 0.816229 0.174029

loop_
_geom_bond_atom_site_label_1
_geom_bond_atom_site_label_2
_geom_bond_distance
_ccdc_geom_bond_type
P11   C68   1.842623 S    
C24   C28   1.515004 S    
C15   H31   1.103714 S    
C12   H28   1.109368 S    
P1    O17   1.748856 S    
C14   C18   1.516890 S    
Ba3   O47   2.821788 S    
C26   H58   1.107934 S    
P3    O19   1.748968 S    
O3    Ba3   2.854732 S    
C2    H10   1.110329 S    
C16   H32   1.104979 S    
C28   H60   1.108847 S    
O24   P15   1.746336 S    
C7    H19   1.110927 S    
C3    H11   1.109174 S    
C18   H42   1.105414 S    
C9    H23   1.107901 S    
P16   C47   1.842849 S    
C25   H61   1.107896 S    
O9    P14   1.747487 S    
O8    Ba3   2.818767 S    
C22   H50   1.103579 S    
C4    H74   1.111208 S    
C55   C57   1.431519 A    
C1    H7    1.110646 S    
P1    O1    1.529049 D    
C44   C48   1.395241 A    
O38   C13   1.398940 S    
C33   C61   1.397393 A    
C3    H5    1.110866 S    
P1    Ba1   3.411444 S    
O37   C14   1.398168 S    
C20   H48   1.105979 S    
P3    O3    1.529049 D    
O29   Ba1   2.782308 S    
P4    O20   1.746910 S    
O14   P13   1.545755 D    
P3    Ba3   3.411444 S    
C24   H52   1.104189 S    
C36   C68   1.390512 A    
C21   C25   1.518544 S    
Ba1   O45   2.821788 S    
C40   C52   1.397181 A    
O2    Ba2   2.851690 S    
O31   Ba3   2.782308 S    
C4    C32   1.516684 S    
P9    O29   1.742043 S    
C19   H43   1.107877 S    
C43   C57   1.413090 A    
C54   C72   1.411781 A    
P4    O4    1.529182 D    
C59   C63   1.429746 A    
C58   C62   1.427366 A    
C40   C48   1.391234 A    
P12   O32   1.747982 S    
C33   C65   1.390335 A    
P5    O37   1.748388 S    
C9    H25   1.110328 S    
O4    Ba4   2.851690 S    
C24   H56   1.110968 S    
P5    Ba1   3.412236 S    
P6    Ba2   3.413689 S    
C11   H27   1.110041 S    
P2    O18   1.748890 S    
P3    C51   1.865818 S    
P7    Ba3   3.412236 S    
O41   C5    1.405712 S    
P4    O8    1.578062 S    
O6    Ba1   2.818767 S    
C10   H26   1.109397 S    
C43   H81   1.077904 S    
P4    C52   1.860691 S    
C40   H96   1.081902 S    
C9    H79   1.110138 S    
O9    Ba1   2.784224 S    
C27   H63   1.107815 S    
P5    O25   1.528502 D    
P9    O41   1.748968 S    
P7    C64   1.859493 S    
O18   C22   1.398423 S    
C51   C55   1.430110 A    
C8    H20   1.111583 S    
P2    O2    1.529182 D    
P11   O43   1.745045 S    
C6    H18   1.109991 S    
C1    H75   1.108536 S    
C5    H17   1.110318 S    
C60   C64   1.428502 A    
C34   H90   1.081943 S    
C36   C64   1.396168 A    
C42   C46   1.395667 A    
P7    O48   1.582921 S    
Ba2   O46   2.818746 S    
O12   P15   1.744236 S    
C29   H69   1.109940 S    
P8    O47   1.585075 S    
C1    C29   1.520197 S    
C16   H36   1.110777 S    
P9    O33   1.545693 D    
C55   C69   1.411443 A    
C19   H47   1.105946 S    
P10   O30   1.748388 S    
C8    H16   1.111677 S    
O11   P16   1.746584 S    
O32   Ba4   2.783502 S    
O5    Ba2   2.821810 S    
P11   O35   1.543239 D    
H2    C30   1.113011 S    
P12   O36   1.544349 D    
C36   H92   1.082063 S    
C33   H89   1.082261 S    
C20   H44   1.107552 S    
C23   H55   1.110621 S    
C65   C69   1.397075 A    
Ba1   O46   2.938210 S    
C31   H71   1.110511 S    
P10   C65   1.843499 S    
O21   C29   1.405366 S    
C14   H30   1.107292 S    
O16   P15   1.544937 D    
P9    C66   1.851400 S    
P12   C67   1.841940 S    
C26   H66   1.107502 S    
O19   C23   1.398156 S    
C39   C51   1.397398 A    
C3    H73   1.108142 S    
C28   H68   1.105375 S    
C27   H59   1.107377 S    
C2    H76   1.109990 S    
O42   C6    1.405698 S    
P12   O44   1.747856 S    
C67   C71   1.397012 A    
O23   P16   1.748220 S    
C11   H77   1.110499 S    
O26   Ba2   2.858072 S    
O20   C24   1.397360 S    
C13   H29   1.104964 S    
C3    C31   1.519682 S    
P8    C63   1.862509 S    
C57   C61   1.430089 A    
O21   P14   1.748288 S    
C52   C56   1.428438 A    
C15   C19   1.518836 S    
P6    O26   1.528371 D    
C35   C67   1.390858 A    
C10   H80   1.108292 S    
C53   C59   1.430764 A    
P1    O5    1.580191 S    
O44   C8    1.405469 S    
P7    O39   1.747263 S    
C71   H85   1.074831 S    
C49   C53   1.430133 A    
O12   Ba4   2.783026 S    
O17   C21   1.398205 S    
O25   Ba1   2.855001 S    
O39   C16   1.398143 S    
C70   H88   1.074503 S    
C21   H49   1.103638 S    
C50   C54   1.428517 A    
P2    Ba2   3.410023 S    
C42   C60   1.411548 A    
H3    C31   1.110820 S    
O30   Ba2   2.783502 S    
H4    C32   1.112044 S    
C66   C70   1.396258 A    
Ba1   Ba2   4.607843 S    
P10   O34   1.543916 D    
C2    H8    1.107599 S    
C4    H12   1.108166 S    
P11   O31   1.746209 S    
O1    Ba1   2.854732 S    
Ba3   Ba4   4.607843 S    
C22   H54   1.111395 S    
C35   H91   1.082190 S    
C18   H38   1.105716 S    
C20   H40   1.108752 S    
C23   C27   1.519047 S    
Ba4   O48   2.818746 S    
P7    O27   1.528502 D    
C5    C9    1.517446 S    
Ba2   O45   2.937696 S    
C7    C11   1.517768 S    
C69   H87   1.073376 S    
C8    C12   1.519727 S    
P15   C48   1.842383 S    
O22   C30   1.405708 S    
P4    Ba4   3.410023 S    
C12   H22   1.110800 S    
C39   C47   1.392059 A    
P2    C50   1.863790 S    
C53   C71   1.411333 A    
C44   C58   1.411464 A    
C38   C46   1.393200 A    
C37   H93   1.082023 S    
P1    C49   1.862208 S    
P5    O46   1.582921 S    
C68   C72   1.396138 A    
C37   C45   1.390735 A    
P8    O40   1.749204 S    
C14   H34   1.107481 S    
O27   Ba3   2.855001 S    
C19   H39   1.107111 S    
C17   H41   1.108104 S    
C41   H83   1.073305 S    
P6    O38   1.749019 S    
C16   C20   1.514887 S    
C17   H37   1.108091 S    
C6    C10   1.520095 S    
P6    C61   1.861347 S    
C15   H35   1.110572 S    
O22   P13   1.749104 S    
C23   H51   1.103583 S    
P5    C62   1.862330 S    
O10   Ba2   2.783026 S    
C27   H67   1.105854 S    
C1    H9    1.109347 S    
C26   H62   1.108313 S    
O10   P13   1.741388 S    
C4    H6    1.107396 S    
C13   C17   1.519863 S    
P10   O42   1.748043 S    
O40   C15   1.398757 S    
C13   H33   1.110764 S    
C28   H64   1.107176 S    
C10   H24   1.110635 S    
C18   H46   1.110126 S    
C56   C58   1.430586 A    
P6    O45   1.585075 S    
C25   H65   1.107051 S    
C7    H15   1.112349 S    
P8    Ba4   3.413689 S    
C41   C59   1.410848 A    
C34   C62   1.398674 A    
P14   C45   1.842402 S    
C25   H57   1.107457 S    
C30   H70   1.110437 S    
P13   C46   1.850396 S    
O7    Ba4   2.821810 S    
H1    C29   1.109708 S    
O15   P16   1.544713 D    
O28   Ba4   2.858072 S    
C22   C26   1.518828 S    
C43   C47   1.396451 A    
P3    O7    1.580191 S    
O13   P14   1.543747 D    
O24   C32   1.406300 S    
C44   H82   1.075409 S    
C41   C45   1.396087 A    
C42   H84   1.074648 S    
C32   H72   1.111581 S    
C72   H86   1.074676 S    
C21   H53   1.111142 S    
P8    O28   1.528371 D    
C6    H14   1.109690 S    
C56   C70   1.412140 A    
C34   C66   1.392694 A    
C11   H21   1.110887 S    
C5    H13   1.113379 S    
C38   H94   1.081871 S    
C38   C50   1.398877 A    
C54   C60   1.430469 A    
O11   Ba3   2.784224 S    
C17   H45   1.107173 S    
C37   C49   1.396773 A    
C2    C30   1.517384 S    
C35   C63   1.396243 A    
C12   H78   1.108052 S    
C39   H95   1.082084 S    
Ba4   O47   2.937696 S    
O23   C31   1.406407 S    
Ba3   O48   2.938210 S    
O43   C7    1.405239 S    
P2    O6    1.578062 S    
