data_mof_unit_39519.cif
_audit_creation_date              2012-12-10T17:59:44-0500
_audit_creation_method            fapswitch 2.2
_symmetry_space_group_name_H-M    P1
_symmetry_Int_Tables_number       1
_space_group_crystal_system       triclinic
_cell_length_a                    10.731258
_cell_length_b                    9.623898
_cell_length_c                    15.880198
_cell_angle_alpha                 89.919689
_cell_angle_beta                  91.612103
_cell_angle_gamma                 90.123141
_cell_volume                      1639.39738002

loop_
_atom_site_label
_atom_site_type_symbol
_atom_type_description
_atom_site_fract_x
_atom_site_fract_y
_atom_site_fract_z
_atom_type_partial_charge
C1    C     C_R   0.262894 0.499876 0.499808 0.895177
C2    C     C_3   0.616434 0.601395 0.952532 0.264879
C3    C     C_3   0.602087 0.616010 0.053104 0.262449
C4    C     C_1   0.504210 0.501279 0.824548 -0.017739
C5    C     C_1   0.502813 0.500474 0.175662 0.024097
C6    C     C_1   0.501237 0.500282 0.251072 -0.063869
C7    C     C_R   0.062023 0.503286 0.423002 0.075359
C8    C     C_R   0.068854 0.496393 0.577130 0.126095
C9    C     C_R   0.931929 0.503616 0.422971 0.099447
C10   C     C_R   0.938800 0.496879 0.577581 0.110640
C11   C     C_R   0.871140 0.500377 0.500368 -0.122544
C12   C     C_R   0.129028 0.499648 0.499971 -0.110198
C13   C     C_R   0.425404 0.074238 0.444144 0.045394
C14   C     C_R   0.426136 0.925676 0.443694 0.041509
C15   C     C_R   0.499907 0.500082 0.340512 0.824145
C16   C     C_R   0.575134 0.925889 0.555509 0.055933
C17   C     C_R   0.576666 0.074270 0.554523 0.066594
C18   C     C_R   0.737155 0.500126 0.500464 0.775219
C19   C     C_R   0.500468 0.499951 0.659529 0.819842
C20   C     C_3   0.371883 0.539579 0.045530 -0.177155
C21   C     C_3   0.543555 0.353986 0.047953 -0.240992
C22   C     C_3   0.523990 0.352650 0.950566 -0.418790
C23   C     C_3   0.378296 0.553290 0.948060 -0.513001
C24   C     C_1   0.502157 0.500124 0.749060 -0.134703
C25   C     C_3   0.504953 0.501045 0.083174 0.090331
C26   C     C_3   0.507339 0.503595 0.916876 0.183888
Cu1   Cu    Cu3+1 0.500020 0.640660 0.500000 0.971684
Cu2   Cu    Cu3+1 0.500020 0.359340 0.500000 0.968951
H1    H     H_    0.302752 0.491428 0.916242 0.183317
H2    H     H_    0.439645 0.290657 0.932346 0.198192
H3    H     H_    0.643421 0.335196 0.062040 0.155922
H4    H     H_    0.342230 0.641037 0.071451 0.205095
H5    H     H_    0.602817 0.298795 0.920567 0.178378
H6    H     H_    0.358978 0.662176 0.929042 0.179534
N1    N     N_R   0.500030 0.852070 0.500020 -0.237883
N2    N     N_R   0.500030 0.147930 0.500020 -0.235623
O1    O     O_R   0.319660 0.618740 0.500000 -0.604221
O2    O     O_R   0.319660 0.381260 0.500000 -0.602032
O3    O     O_R   0.500020 0.618840 0.379440 -0.552520
O4    O     O_R   0.500020 0.381160 0.379440 -0.562476
O5    O     O_R   0.680370 0.618830 0.500010 -0.615402
O6    O     O_R   0.680370 0.381170 0.500010 -0.552694
O7    O     O_R   0.500010 0.618730 0.620560 -0.552321
O8    O     O_R   0.500010 0.381270 0.620560 -0.614841
C27   C     C_2   0.655275 0.852380 0.617936 0.454408
H7    H     H_    0.736548 0.796226 0.598330 0.079137
O9    O     O_2   0.633814 0.860237 0.692869 -0.558705
C28   C     C_2   0.666689 0.147779 0.610490 0.449334
H8    H     H_    0.636162 0.198993 0.666890 0.073192
O10   O     O_2   0.777755 0.144331 0.596015 -0.568306
C29   C     C_2   0.269956 0.439076 0.069330 0.365639
H9    H     H_    0.259878 0.339879 0.037464 0.085251
O11   O     O_2   0.196491 0.469473 0.123656 -0.531919
C30   C     C_2   0.480610 0.230398 0.088188 0.382971
H10   H     H_    0.420637 0.243286 0.141414 0.138159
O12   O     O_2   0.500688 0.112943 0.063004 -0.534958
N3    N     N_3   0.555726 0.754783 0.077424 -0.520698
H11   H     H_    0.626316 0.829382 0.073427 0.253621
H12   H     H_    0.481555 0.789612 0.039428 0.219812
N4    N     N_3   0.723236 0.599338 0.098976 -0.554492
H13   H     H_    0.761476 0.500534 0.094537 0.217053
H14   H     H_    0.788173 0.669474 0.075288 0.247318
N5    N     N_3   0.612092 0.737190 0.909087 -0.538101
H15   H     H_    0.525126 0.784915 0.909068 0.219147
H16   H     H_    0.679209 0.804350 0.935405 0.241681
N6    N     N_3   0.739097 0.541663 0.932920 -0.584054
H17   H     H_    0.747176 0.532443 0.867671 0.249587
H18   H     H_    0.753345 0.443295 0.958721 0.202941
N7    N     N_3   0.127169 0.506402 0.345299 -0.571415
H19   H     H_    0.099682 0.419890 0.309557 0.272144
H20   H     H_    0.100436 0.595906 0.312118 0.266070
N8    N     N_3   0.140871 0.492914 0.654650 -0.593457
H21   H     H_    0.117240 0.579550 0.690459 0.242832
H22   H     H_    0.116263 0.403586 0.687900 0.247616
N9    N     N_3   0.863051 0.507050 0.344159 -0.576730
H23   H     H_    0.805626 0.419239 0.340519 0.228170
H24   H     H_    0.806458 0.595365 0.343041 0.233317
N10   N     N_3   0.877130 0.494165 0.656658 -0.594233
H25   H     H_    0.819473 0.406657 0.658128 0.240923
H26   H     H_    0.821156 0.582464 0.660630 0.212661
C31   C     C_2   0.341360 0.148448 0.384386 0.454198
H27   H     H_    0.256532 0.195643 0.405932 0.062437
O13   O     O_2   0.364228 0.152271 0.309556 -0.516729
C32   C     C_2   0.343508 0.851368 0.383028 0.462281
H28   H     H_    0.258813 0.802342 0.403753 0.055640
O14   O     O_2   0.367503 0.849348 0.308350 -0.486815

loop_
_geom_bond_atom_site_label_1
_geom_bond_atom_site_label_2
_ccdc_geom_bond_type
N6    H18   S    
N5    H16   S    
C11   C18   S    
C17   C28   S    
C14   C32   S    
C31   H27   S    
C10   N10   S    
C27   H7    S    
C19   O8    A    
C21   H3    S    
C23   H1    S    
C32   O14   D    
C20   C29   S    
C18   O6    A    
C16   N1    A    
C21   C30   S    
C4    C24   T    
N10   H26   S    
N3    H12   S    
C20   C25   S    
Cu2   O4    S    
C13   C31   S    
N4    H14   S    
C23   C26   S    
N7    H20   S    
C6    C15   S    
Cu1   O3    S    
C16   C17   A    
C17   N2    A    
C1    O1    A    
C3    N4    S    
C28   O10   D    
N6    H17   S    
C21   C22   S    
C1    C12   S    
C31   O13   D    
C19   O7    A    
C27   O9    D    
C7    C12   A    
C30   O12   D    
C8    N8    S    
C29   H9    S    
C3    C25   S    
C32   H28   S    
C13   N2    A    
N8    H22   S    
C18   O5    A    
C14   N1    A    
N10   H25   S    
Cu1   N1    S    
Cu2   O8    S    
N4    H13   S    
C29   O11   D    
N9    H23   S    
N9    H24   S    
Cu1   O5    S    
C20   C23   S    
Cu2   O2    S    
C8    C12   A    
C23   H6    S    
C2    C26   S    
C9    C11   A    
C15   O3    A    
C1    O2    A    
C5    C25   S    
C3    N3    S    
C28   H8    S    
C2    N5    S    
C20   H4    S    
C7    C9    A    
C22   H5    S    
C21   C25   S    
C30   H10   S    
C22   H2    S    
N8    H21   S    
C2    N6    S    
C16   C27   S    
C7    N7    S    
C4    C26   S    
C2    C3    S    
N3    H11   S    
C5    C6    T    
Cu1   O1    S    
Cu2   O6    S    
C19   C24   S    
N7    H19   S    
C15   O4    A    
C10   C11   A    
N5    H15   S    
Cu1   O7    S    
Cu2   N2    S    
C8    C10   A    
C22   C26   S    
Cu1   Cu2   S    
C9    N9    S    
C13   C14   A    
