data_mof_unit_17879.cif
_audit_creation_date              2012-10-26T19:57:54-0400
_audit_creation_method            fapswitch 2.2
_symmetry_space_group_name_H-M    P1
_symmetry_Int_Tables_number       1
_space_group_crystal_system       triclinic
_cell_length_a                    7.535337
_cell_length_b                    8.672308
_cell_length_c                    12.918808
_cell_angle_alpha                 87.009021
_cell_angle_beta                  79.046207
_cell_angle_gamma                 103.182731
_cell_volume                      802.966274414

loop_
_atom_site_label
_atom_site_type_symbol
_atom_type_description
_atom_site_fract_x
_atom_site_fract_y
_atom_site_fract_z
_atom_type_partial_charge
Br1   Br    Br    0.321446 0.200245 0.220209 -0.402895
Br2   Br    Br    0.678554 0.799754 0.779791 -0.402895
Br3   Br    Br    0.787752 0.840632 0.191240 -0.367541
Br4   Br    Br    0.212248 0.159368 0.808760 -0.367541
Br5   Br    Br    0.877871 0.300059 0.635020 -0.259566
Br6   Br    Br    0.122129 0.699941 0.364979 -0.259566
C1    C     C_R   0.452482 0.199769 0.503469 0.568486
C2    C     C_R   0.655012 0.667246 0.127275 0.126819
C3    C     C_R   0.548926 0.598669 0.862567 0.128060
C4    C     C_R   0.451074 0.401331 0.137433 0.128060
C5    C     C_R   0.551374 0.573343 0.970466 -0.001692
C6    C     C_R   0.448626 0.426657 0.029533 -0.001692
C7    C     C_2   0.426326 0.031294 0.505673 -0.074804
C8    C     C_2   0.573674 0.968705 0.494327 -0.074804
C9    C     C_R   0.547518 0.800230 0.496531 0.568486
C10   C     C_R   0.466141 0.493112 0.700842 0.592303
C11   C     C_R   0.533859 0.506888 0.299157 0.592303
C12   C     C_R   0.551960 0.523293 0.185708 0.042727
C13   C     C_R   0.448040 0.476706 0.814292 0.042727
C14   C     C_R   0.344872 0.308994 0.979549 -0.049042
C15   C     C_R   0.655129 0.691006 0.020451 -0.049042
C16   C     C_R   0.344988 0.332754 0.872725 0.126819
Cu1   Cu    Cu3+1 0.686350 0.517570 0.488220 1.193698
Cu2   Cu    Cu3+1 0.313650 0.482430 0.511780 1.193698
H1    H     H_    0.264767 0.196317 0.021829 0.217026
H2    H     H_    0.735233 0.803683 0.978171 0.217026
H3    H     H_    0.284743 0.958543 0.516834 0.177808
H4    H     H_    0.715257 0.041457 0.483165 0.177808
N1    N     N_2   0.033570 0.455950 0.529530 0.008668
N2    N     N_2   0.966430 0.544050 0.470470 0.008668
O1    O     O_R   0.621060 0.286250 0.492350 -0.501024
O2    O     O_R   0.378940 0.713750 0.507650 -0.501024
O3    O     O_R   0.306310 0.256580 0.512240 -0.462852
O4    O     O_R   0.693690 0.743420 0.487760 -0.462852
O5    O     O_R   0.631800 0.512400 0.642670 -0.467734
O6    O     O_R   0.368200 0.487600 0.357330 -0.467734
O7    O     O_R   0.317060 0.482730 0.662570 -0.468447
O8    O     O_R   0.682940 0.517270 0.337430 -0.468447

loop_
_geom_bond_atom_site_label_1
_geom_bond_atom_site_label_2
_ccdc_geom_bond_type
C5    C6    A    
Cu2   O2    S    
N1    N2    D    
C11   O6    A    
Cu1   O8    S    
C3    C5    A    
C9    O4    A    
Cu1   O5    S    
Cu2   O3    S    
C10   O7    A    
C15   H2    S    
Cu1   O4    S    
C6    C14   A    
C2    C15   A    
C9    O2    A    
C7    C8    D    
C1    O3    A    
Cu2   O6    S    
C4    C6    A    
C4    C12   A    
C10   C13   S    
Br6   N2    S    
C5    C15   A    
Cu2   O7    S    
Br5   N1    S    
C11   O8    A    
C10   O5    A    
C1    O1    A    
C14   H1    S    
Cu1   Cu2   S    
Cu1   N2    S    
C1    C7    S    
C13   C16   A    
Br4   C16   S    
C11   C12   S    
Br3   C2    S    
Cu2   N1    S    
C7    H3    S    
C8    H4    S    
C8    C9    S    
Br2   C3    S    
C3    C13   A    
C2    C12   A    
Br1   C4    S    
C14   C16   A    
Cu1   O1    S    
