data_mof_unit_22218.cif
_audit_creation_date              2012-12-11T17:34:17-0500
_audit_creation_method            fapswitch 2.2
_symmetry_space_group_name_H-M    P1
_symmetry_Int_Tables_number       1
_space_group_crystal_system       triclinic
_cell_length_a                    23.816582
_cell_length_b                    7.209248
_cell_length_c                    20.580588
_cell_angle_alpha                 90.001943
_cell_angle_beta                  105.447665
_cell_angle_gamma                 90.00125
_cell_volume                      3406.02249694

loop_
_atom_site_label
_atom_site_type_symbol
_atom_type_description
_atom_site_fract_x
_atom_site_fract_y
_atom_site_fract_z
_atom_type_partial_charge
O1    O     O_R   0.449110 0.494310 0.552140 -0.506385
O2    O     O_R   0.550890 0.994310 0.447860 -0.506474
O3    O     O_R   0.440010 0.824420 0.415850 -0.538279
O4    O     O_R   0.559990 0.324420 0.584150 -0.538237
C1    C     C_R   0.425124 0.655024 0.391103 0.701438
C2    C     C_R   0.574877 0.155031 0.608897 0.701221
O5    O     O_R   0.442260 0.824040 0.549660 -0.544573
O6    O     O_R   0.557740 0.324040 0.450340 -0.544652
O7    O     O_R   0.553160 0.993960 0.582620 -0.534700
O8    O     O_R   0.446840 0.493960 0.417380 -0.534672
C3    C     C_R   0.427909 0.655101 0.566630 0.694475
C4    C     C_R   0.572094 0.155100 0.433372 0.694034
O9    O     O_3   0.536380 0.660670 0.510660 -0.372945
O10   O     O_3   0.463620 0.160670 0.489340 -0.373003
V1    V     V_3+5 0.493250 0.935680 0.498020 1.433147
V2    V     V_3+5 0.506750 0.435680 0.501980 1.433201
C5    C     C_R   0.823094 0.911203 0.170567 -0.136626
C6    C     C_R   0.176922 0.411182 0.829455 -0.136625
H1    H     H_    0.806011 0.785125 0.186698 0.106366
H2    H     H_    0.194009 0.285100 0.813331 0.106368
C7    C     C_R   0.862316 0.898834 0.130439 -0.171819
C8    C     C_R   0.137694 0.398822 0.869576 -0.171819
H3    H     H_    0.874545 0.762715 0.116644 0.121970
H4    H     H_    0.125465 0.262707 0.883373 0.121971
C9    C     C_R   0.885678 0.060226 0.108993 -0.052706
C10   C     C_R   0.114327 0.560219 0.891012 -0.052704
C11   C     C_R   0.868192 0.233956 0.128526 -0.164855
C12   C     C_R   0.131813 0.733943 0.871476 -0.164851
H5    H     H_    0.884908 0.361667 0.113213 0.125114
H6    H     H_    0.115093 0.861658 0.886782 0.125110
C13   C     C_R   0.829032 0.245816 0.168534 -0.139492
C14   C     C_R   0.170979 0.745795 0.831475 -0.139491
H7    H     H_    0.816622 0.381121 0.182996 0.105679
H8    H     H_    0.183389 0.881096 0.817011 0.105679
C15   C     C_R   0.806387 0.084763 0.189981 0.130493
C16   C     C_R   0.193630 0.584737 0.810038 0.130494
C17   C     C_1   0.766601 0.098306 0.232358 -0.064441
C18   C     C_1   0.233422 0.598269 0.767668 -0.064455
C19   C     C_1   0.733606 0.110414 0.268049 -0.032471
C20   C     C_1   0.266421 0.610372 0.731981 -0.032470
C21   C     C_R   0.688007 0.972904 0.351441 -0.215307
C22   C     C_R   0.311973 0.472948 0.648529 -0.215762
H9    H     H_    0.712746 0.847012 0.350834 0.127776
H10   H     H_    0.287200 0.347101 0.649093 0.127709
C23   C     C_R   0.650169 0.982784 0.393427 0.400928
C24   C     C_R   0.349806 0.482861 0.606533 0.400993
C25   C     C_R   0.616002 0.144442 0.393358 -0.150564
C26   C     C_R   0.384016 0.644444 0.606663 -0.150338
C27   C     C_R   0.623658 0.296229 0.353385 -0.226680
C28   C     C_R   0.376413 0.796151 0.646701 -0.226815
H11   H     H_    0.598761 0.422397 0.352440 0.163826
H12   H     H_    0.401347 0.922263 0.647690 0.163677
C29   C     C_R   0.662401 0.285750 0.312735 -0.138089
C30   C     C_R   0.337674 0.785653 0.687356 -0.138038
H13   H     H_    0.666963 0.403925 0.282022 0.126587
H14   H     H_    0.333151 0.903766 0.718118 0.126573
C31   C     C_R   0.694334 0.123454 0.311059 0.066276
C32   C     C_R   0.305695 0.623419 0.688973 0.066440
C33   C     C_R   0.637995 0.063024 0.793581 0.420935
C34   C     C_R   0.362002 0.562831 0.206430 0.420952
H15   H     H_    0.552356 0.099052 0.727404 0.125647
H16   H     H_    0.447643 0.598850 0.272605 0.125665
H17   H     H_    0.722787 0.024761 0.908397 0.158296
H18   H     H_    0.277209 0.524443 0.091620 0.158285
C35   C     C_R   0.618201 0.141243 0.675005 -0.089742
C36   C     C_R   0.381800 0.641210 0.324995 -0.089695
C37   C     C_R   0.903571 0.080631 0.767633 -0.158560
C38   C     C_R   0.096423 0.580862 0.232359 -0.158617
C39   C     C_R   0.865867 0.105152 0.703849 -0.122381
C40   C     C_R   0.134125 0.605515 0.296137 -0.122069
C41   C     C_R   0.805846 0.113558 0.695056 -0.167980
C42   C     C_R   0.194146 0.613867 0.304932 -0.168006
C43   C     C_R   0.781581 0.096036 0.750472 0.106256
C44   C     C_R   0.218415 0.596135 0.249526 0.105936
C45   C     C_R   0.820689 0.067016 0.815903 0.075805
C46   C     C_R   0.179307 0.567002 0.184100 0.075920
C47   C     C_R   0.719884 0.104047 0.742936 0.026462
C48   C     C_R   0.280114 0.604057 0.257064 0.026295
C49   C     C_R   0.698700 0.071239 0.800409 0.030747
C50   C     C_R   0.301297 0.571108 0.199599 0.030842
C51   C     C_R   0.738116 0.045229 0.863868 -0.189354
C52   C     C_R   0.261881 0.545019 0.136144 -0.189353
C53   C     C_R   0.797871 0.044889 0.871608 -0.204808
C54   C     C_R   0.202127 0.544725 0.128402 -0.204813
C55   C     C_R   0.678276 0.140957 0.680322 -0.245643
C56   C     C_R   0.321724 0.641002 0.319675 -0.245398
C57   C     C_R   0.598702 0.103434 0.731693 -0.245217
C58   C     C_R   0.401297 0.603285 0.268313 -0.245290
C59   C     C_R   0.881995 0.061208 0.824126 -0.082624
C60   C     C_R   0.118000 0.561256 0.175874 -0.082625
H19   H     H_    0.690919 0.167764 0.634684 0.098414
H20   H     H_    0.309084 0.667890 0.365309 0.098373
H21   H     H_    0.950096 0.077921 0.773072 0.103736
H22   H     H_    0.049896 0.578211 0.226916 0.103724
H23   H     H_    0.779633 0.131682 0.644043 0.104909
H24   H     H_    0.220356 0.632129 0.355940 0.104936
H25   H     H_    0.883386 0.119004 0.660648 0.118077
H26   H     H_    0.116604 0.619525 0.339331 0.118039
H27   H     H_    0.826167 0.023869 0.921783 0.111452
H28   H     H_    0.173831 0.523627 0.078230 0.111458
O11   O     O_R   0.053190 0.709680 0.082610 -0.529616
O12   O     O_R   0.946810 0.209680 0.917390 -0.529615
O13   O     O_R   0.057740 0.380240 0.950340 -0.541083
O14   O     O_R   0.942260 0.880240 0.049660 -0.541081
C61   C     C_R   0.071522 0.549042 0.932530 0.674581
C62   C     C_R   0.928478 0.049044 0.067471 0.674579
O15   O     O_R   0.060000 0.379940 0.084150 -0.533784
O16   O     O_R   0.940000 0.879940 0.915850 -0.533782
O17   O     O_R   0.949110 0.210100 0.052140 -0.536465
O18   O     O_R   0.050890 0.710100 0.947860 -0.536461
C63   C     C_R   0.074800 0.548895 0.109134 0.678135
C64   C     C_R   0.925198 0.048886 0.890866 0.678138
O19   O     O_3   0.963630 0.543720 0.989330 -0.371324
O20   O     O_3   0.036370 0.043720 0.010670 -0.371324
V3    V     V_3+5 0.006750 0.268680 0.001980 1.411097
V4    V     V_3+5 0.993250 0.768680 0.998020 1.411110
O21   O     O_3   0.616063 0.018264 0.847514 -0.575939
C65   C     C_3   0.615468 0.822731 0.854977 0.066194
H29   H     H_    0.617347 0.793127 0.908488 0.149851
H30   H     H_    0.654275 0.753415 0.845043 0.111781
C66   C     C_3   0.559242 0.738041 0.810221 -0.338197
H31   H     H_    0.520903 0.807400 0.820711 0.208550
H32   H     H_    0.557428 0.759101 0.756258 0.189026
C67   C     C_3   0.556154 0.530106 0.822777 -0.773528
H33   H     H_    0.593995 0.458340 0.812097 0.241305
H34   H     H_    0.515540 0.472355 0.789030 0.229827
H35   H     H_    0.556015 0.503627 0.875900 0.235425
O22   O     O_3   0.383931 0.517975 0.152503 -0.575936
C68   C     C_3   0.384515 0.322432 0.145066 0.066190
H36   H     H_    0.382626 0.292754 0.091557 0.149847
H37   H     H_    0.345708 0.253158 0.155018 0.111780
C69   C     C_3   0.440741 0.237763 0.189823 -0.338161
H38   H     H_    0.479079 0.307086 0.179318 0.208558
H39   H     H_    0.442562 0.258889 0.243786 0.189037
C70   C     C_3   0.443817 0.029812 0.177289 -0.773533
H40   H     H_    0.405974 0.958086 0.187980 0.241286
H41   H     H_    0.484430 0.972072 0.211041 0.229828
H42   H     H_    0.443952 0.003269 0.124169 0.235436
O23   O     O_3   0.645716 0.829899 0.432336 -0.564667
C71   C     C_3   0.686464 0.848460 0.495987 0.087696
H43   H     H_    0.671509 0.957239 0.525990 0.099950
H44   H     H_    0.730633 0.885981 0.491065 0.098706
C72   C     C_3   0.691439 0.663454 0.533494 -0.274774
H45   H     H_    0.647785 0.618834 0.537066 0.222195
H46   H     H_    0.708354 0.555933 0.504885 0.183502
C73   C     C_3   0.732027 0.677997 0.604538 -0.847446
H47   H     H_    0.776185 0.722715 0.602597 0.234276
H48   H     H_    0.735556 0.540500 0.629657 0.234717
H49   H     H_    0.714523 0.779129 0.634839 0.241984
O24   O     O_3   0.354221 0.330118 0.567538 -0.564583
C74   C     C_3   0.313193 0.348388 0.504071 0.087273
H50   H     H_    0.327680 0.458160 0.474057 0.099255
H51   H     H_    0.269020 0.384341 0.509349 0.099348
C75   C     C_3   0.308560 0.163867 0.466307 -0.274287
H52   H     H_    0.352214 0.121257 0.462128 0.222034
H53   H     H_    0.292357 0.055090 0.495075 0.183762
C76   C     C_3   0.267383 0.177940 0.395582 -0.847911
H54   H     H_    0.223189 0.220438 0.398130 0.234245
H55   H     H_    0.264200 0.040819 0.370244 0.234817
H56   H     H_    0.284140 0.280562 0.365127 0.241983

loop_
_geom_bond_atom_site_label_1
_geom_bond_atom_site_label_2
_ccdc_geom_bond_type
C70   H42   S    
C61   O18   A    
C76   H54   S    
C72   C73   S    
C21   H9    S    
O12   C64   A    
O1    C3    A    
C71   C72   S    
C37   C59   A    
O16   V4    S    
O2    C4    A    
O22   C68   S    
C46   C54   A    
C2    O7    A    
O14   C62   A    
O20   V3    S    
C34   C58   A    
C70   H40   S    
C25   C27   A    
O5    C3    A    
C59   C64   S    
C28   C30   A    
C44   C46   A    
H17   C51   S    
C14   C16   A    
C8    H4    S    
C45   C59   A    
C15   C17   S    
C71   H44   S    
C68   H36   S    
C36   C58   A    
C48   C50   A    
C74   C75   S    
C11   H5    S    
O11   V4    S    
C72   H45   S    
C19   C31   S    
C23   O23   S    
C72   H46   S    
C22   C24   A    
C23   C25   A    
C39   C41   A    
C65   H29   S    
C66   C67   S    
O12   V3    S    
H15   C57   S    
O14   V4    S    
C2    C35   S    
C69   H38   S    
C27   H11   S    
C28   H12   S    
C74   H50   S    
C13   H7    S    
C75   H53   S    
C68   C69   S    
C48   C56   A    
C26   C28   A    
C47   C55   A    
O6    V2    S    
C53   H27   S    
C43   C45   A    
C22   C32   A    
C3    C26   S    
C22   H10   S    
C60   C63   S    
C4    C25   S    
C10   C61   S    
C51   C53   A    
C9    C62   S    
C35   C57   A    
C73   H48   S    
C29   H13   S    
C55   H19   S    
C30   H14   S    
C20   C32   S    
C11   C13   A    
C54   H28   S    
C34   O22   S    
C71   H43   S    
C75   C76   S    
C42   C44   A    
C33   C49   A    
C49   C51   A    
C29   C31   A    
H16   C58   S    
C40   C42   A    
C5    C7    A    
O16   C64   A    
C37   C39   A    
C65   C66   S    
C14   H8    S    
O4    V2    S    
O13   V3    S    
C73   H49   S    
C38   C60   A    
C12   C14   A    
O6    C4    A    
H18   C52   S    
C66   H31   S    
C47   C49   A    
O13   C61   A    
O1    V2    S    
O2    V1    S    
O15   V3    S    
C75   H52   S    
C67   H35   S    
C65   H30   S    
O4    C2    A    
C24   O24   S    
C76   H56   S    
C52   C54   A    
C7    H3    S    
C44   C48   A    
C13   C15   A    
C9    C11   A    
C33   O21   S    
O18   V4    S    
O3    V1    S    
C67   H34   S    
C73   H47   S    
C30   C32   A    
C70   H41   S    
C7    C9    A    
C34   C50   A    
C43   C47   A    
C6    C8    A    
O15   C63   A    
C1    C36   S    
O3    C1    A    
C36   C56   A    
C76   H55   S    
O23   C71   S    
C35   C55   A    
O11   C63   A    
C38   H22   S    
C10   C12   A    
O24   C74   S    
O19   V4    S    
C16   C18   S    
O7    V1    S    
C21   C31   A    
C1    O8    A    
C17   C19   T    
C56   H20   S    
O21   C65   S    
C18   C20   T    
C45   C53   A    
C69   C70   S    
C27   C29   A    
O5    V1    S    
C5    H1    S    
C50   C52   A    
C12   H6    S    
C6    H2    S    
C74   H51   S    
C33   C57   A    
C66   H32   S    
O17   V3    S    
C42   H24   S    
C24   C26   A    
C41   H23   S    
C69   H39   S    
C8    C10   A    
O9    V2    S    
C41   C43   A    
C37   H21   S    
C38   C40   A    
C21   C23   A    
O10   V1    S    
O8    V2    S    
C5    C15   A    
C6    C16   A    
C40   H26   S    
C46   C60   A    
C67   H33   S    
C68   H37   S    
C62   O17   A    
C39   H25   S    
