data_mof_unit_48636.cif
_audit_creation_date              2012-10-26T21:11:07-0400
_audit_creation_method            fapswitch 2.2
_symmetry_space_group_name_H-M    P1
_symmetry_Int_Tables_number       1
_space_group_crystal_system       triclinic
_cell_length_a                    10.886299
_cell_length_b                    10.847453
_cell_length_c                    13.12327
_cell_angle_alpha                 89.923151
_cell_angle_beta                  90.40427
_cell_angle_gamma                 90.031518
_cell_volume                      1549.66860518

loop_
_atom_site_label
_atom_site_type_symbol
_atom_type_description
_atom_site_fract_x
_atom_site_fract_y
_atom_site_fract_z
_atom_type_partial_charge
C1    C     C_R   0.506802 0.259779 0.500039 0.561714
C2    C     C_R   0.374144 0.896837 0.757437 -0.101464
C3    C     C_R   0.644884 0.122431 0.345819 0.043343
C4    C     C_R   0.351920 0.879399 0.652787 0.041875
C5    C     C_R   0.767550 0.152480 0.368088 -0.087489
C6    C     C_R   0.250812 0.807762 0.621589 -0.061462
C7    C     C_R   0.838552 0.215639 0.296585 -0.099619
C8    C     C_R   0.174296 0.753290 0.694025 -0.104588
C9    C     C_R   0.787857 0.248036 0.202119 -0.097391
C10   C     C_R   0.198477 0.769068 0.797899 -0.103288
C11   C     C_R   0.561959 0.933559 0.424777 -0.176844
C12   C     C_R   0.495163 0.740388 0.499969 0.549594
C13   C     C_R   0.440809 0.066833 0.575997 -0.128465
C14   C     C_R   0.494401 0.872950 0.500053 -0.019895
C15   C     C_R   0.506680 0.127327 0.499819 0.000217
C16   C     C_R   0.259367 0.502865 0.499333 0.553546
C17   C     C_R   0.740086 0.491516 0.500418 0.559121
C18   C     C_R   0.431817 0.939371 0.576045 -0.037315
C19   C     C_R   0.568242 0.061032 0.423518 -0.050390
C20   C     C_1   0.500097 0.500008 0.173587 0.109702
C21   C     C_1   0.500012 0.500031 0.826423 0.126747
C22   C     C_1   0.500128 0.500011 0.050692 -0.080434
C23   C     C_R   0.872486 0.488208 0.500857 -0.007486
C24   C     C_1   0.500079 0.500044 0.949324 -0.068290
C25   C     C_R   0.197930 0.729780 0.202549 0.296503
C26   C     C_R   0.772152 0.221372 0.755672 0.296301
C27   C     C_R   0.151013 0.691848 0.297065 -0.068695
C28   C     C_R   0.823419 0.279813 0.669392 -0.065781
C29   C     C_R   0.115750 0.568824 0.312116 0.013017
C30   C     C_R   0.881451 0.394975 0.678282 0.013899
C31   C     C_R   0.126572 0.484021 0.232040 -0.099208
C32   C     C_R   0.886062 0.453871 0.773209 -0.109650
C33   C     C_R   0.172028 0.521969 0.137743 -0.166070
C34   C     C_R   0.126744 0.499834 0.497752 -0.011488
C35   C     C_R   0.831023 0.399213 0.857861 -0.167846
C36   C     C_R   0.206319 0.644745 0.122651 -0.078470
C37   C     C_R   0.773850 0.284226 0.848920 -0.065869
C38   C     C_R   0.932361 0.524890 0.412082 -0.156157
C39   C     C_R   0.066775 0.460501 0.586064 -0.165331
C40   C     C_3   0.340152 0.881453 0.230397 -0.014649
C41   C     C_3   0.443342 0.866032 0.153438 -0.383793
C42   C     C_3   0.774163 0.023997 0.685784 -0.020088
C43   C     C_3   0.742507 0.892177 0.715499 -0.356681
C44   C     C_R   0.939755 0.451756 0.587986 -0.034931
C45   C     C_R   0.059085 0.530265 0.409080 -0.036949
C46   C     C_R   0.666140 0.217039 0.179010 -0.102759
C47   C     C_R   0.298259 0.840865 0.829587 -0.111727
C48   C     C_R   0.594596 0.154675 0.250673 -0.068441
Cu1   Cu    Cu3+1 0.499990 0.499990 0.592680 0.992367
Cu2   Cu    Cu3+1 0.500010 0.500010 0.407320 0.976660
H1    H     H_    0.239743 0.673898 0.048934 0.116178
H2    H     H_    0.819103 0.236573 0.595391 0.071577
H3    H     H_    0.098537 0.389051 0.242401 0.111098
H4    H     H_    0.930816 0.542590 0.781230 0.106954
H5    H     H_    0.179492 0.456463 0.075956 0.117226
H6    H     H_    0.833035 0.445799 0.930752 0.113116
H7    H     H_    0.880192 0.551122 0.344700 0.139630
H8    H     H_    0.119197 0.432492 0.652784 0.134972
H9    H     H_    0.842851 0.297050 0.146849 0.101976
H10   H     H_    0.139417 0.726354 0.853808 0.104176
H11   H     H_    0.626917 0.242227 0.105888 0.104376
H12   H     H_    0.732146 0.242770 0.915346 0.121077
H13   H     H_    0.316436 0.853654 0.910079 0.118111
H14   H     H_    0.499796 0.133387 0.232707 0.099124
H15   H     H_    0.450414 0.953178 0.783126 0.129798
H16   H     H_    0.361076 0.827174 0.300574 0.140233
H17   H     H_    0.337326 0.979518 0.254241 0.149473
H18   H     H_    0.425421 0.924634 0.085505 0.152273
H19   H     H_    0.532209 0.893931 0.188316 0.108407
H20   H     H_    0.450142 0.768321 0.129294 0.150811
H21   H     H_    0.876166 0.033364 0.689717 0.122009
H22   H     H_    0.741754 0.039250 0.606341 0.138100
H23   H     H_    0.808006 0.127215 0.440614 0.077627
H24   H     H_    0.642078 0.876859 0.709155 0.170707
H25   H     H_    0.789737 0.826723 0.663876 0.103519
H26   H     H_    0.772644 0.873791 0.795101 0.154617
H27   H     H_    0.230823 0.794960 0.541332 0.082332
H28   H     H_    0.932804 0.239482 0.314481 0.106162
H29   H     H_    0.095866 0.699362 0.669683 0.105624
H30   H     H_    0.611841 0.881261 0.368131 0.129483
H31   H     H_    0.392117 0.119447 0.633199 0.133988
H32   H     H_    0.140198 0.758489 0.357749 0.094118
N1    N     N_1   0.500030 0.500030 0.268070 -0.172239
N2    N     N_1   0.499970 0.499970 0.731930 -0.169739
O1    O     O_R   0.499980 0.319630 0.578260 -0.493914
O2    O     O_3   0.714236 0.106884 0.752184 -0.567437
O3    O     O_R   0.500020 0.680370 0.421740 -0.513514
O4    O     O_R   0.500000 0.319650 0.421740 -0.487644
O5    O     O_R   0.500000 0.680350 0.578260 -0.484537
O6    O     O_R   0.319630 0.500000 0.578260 -0.501221
O7    O     O_R   0.680370 0.500000 0.421740 -0.499273
O8    O     O_R   0.319650 0.500020 0.421740 -0.487320
O9    O     O_R   0.680350 0.499980 0.578260 -0.486417
O10   O     O_3   0.225624 0.852246 0.184929 -0.571221

loop_
_geom_bond_atom_site_label_1
_geom_bond_atom_site_label_2
_ccdc_geom_bond_type
C33   H5    S    
C16   O6    A    
C27   C29   A    
C14   C18   A    
C10   H10   S    
C17   O7    A    
Cu1   O6    S    
C2    H15   S    
C37   H12   S    
C15   C19   A    
C11   C19   A    
C17   C23   S    
C13   C18   A    
Cu1   N2    S    
C35   C37   A    
C47   H13   S    
C11   C14   A    
C48   H14   S    
C13   H31   S    
C3    C48   A    
C33   C36   A    
C38   C45   A    
C16   C34   S    
C40   H17   S    
C8    H29   S    
C31   C33   A    
C3    C19   S    
C1    C15   S    
C40   O10   S    
Cu2   O4    S    
C4    C18   S    
C1    O4    A    
C9    C46   A    
C40   H16   S    
C43   H25   S    
C30   C44   S    
C32   H4    S    
Cu2   N1    S    
C41   H18   S    
C1    O1    A    
C46   C48   A    
C46   H11   S    
C34   C39   A    
C32   C35   A    
Cu1   O1    S    
C12   O5    A    
C4    C6    A    
Cu1   O5    S    
C5    C7    A    
C6    H27   S    
C6    C8    A    
C39   H8    S    
C23   C44   A    
C29   C45   S    
C9    H9    S    
C2    C4    A    
C38   H7    S    
C21   N2    T    
C26   O2    S    
C42   H22   S    
C34   C45   A    
C31   H3    S    
C36   H1    S    
Cu2   O3    S    
C7    H28   S    
C42   O2    S    
Cu2   O8    S    
C40   C41   S    
C12   C14   S    
C16   O8    A    
C13   C15   A    
C22   C24   T    
C21   C24   S    
C17   O9    A    
C42   C43   S    
C41   H19   S    
C43   H26   S    
C7    C9    A    
C12   O3    A    
C35   H6    S    
C27   H32   S    
C20   C22   S    
C3    C5    A    
C26   C37   A    
C39   C44   A    
C2    C47   A    
C25   C27   A    
C23   C38   A    
C26   C28   A    
C28   C30   A    
C29   C31   A    
C30   C32   A    
C28   H2    S    
C43   H24   S    
C42   H21   S    
C5    H23   S    
C11   H30   S    
C25   C36   A    
Cu2   O7    S    
C25   O10   S    
C8    C10   A    
Cu1   Cu2   S    
C20   N1    T    
C10   C47   A    
Cu1   O9    S    
C41   H20   S    
