data_mof_unit_45285.cif
_audit_creation_date              2012-12-11T15:36:35-0500
_audit_creation_method            fapswitch 2.2
_symmetry_space_group_name_H-M    P1
_symmetry_Int_Tables_number       1
_space_group_crystal_system       triclinic
_cell_length_a                    15.047969
_cell_length_b                    15.058603
_cell_length_c                    34.8741
_cell_angle_alpha                 91.356127
_cell_angle_beta                  91.818487
_cell_angle_gamma                 60.113641
_cell_volume                      6847.87424571

loop_
_atom_site_label
_atom_site_type_symbol
_atom_type_description
_atom_site_fract_x
_atom_site_fract_y
_atom_site_fract_z
_atom_type_partial_charge
C1    C     C_R   0.611061 0.301923 0.444117 0.563877
C2    C     C_R   0.735901 0.679917 0.181200 0.026009
C3    C     C_R   0.612647 0.147029 0.830354 0.031320
C4    C     C_R   0.679441 0.170826 0.851310 -0.117615
C5    C     C_R   0.709464 0.136496 0.888731 -0.124046
C6    C     C_R   0.585613 0.259424 0.774534 -0.119779
C7    C     C_R   0.588793 0.271809 0.735251 -0.115939
C8    C     C_R   0.602195 0.193342 0.709436 0.028463
C9    C     C_R   0.606626 0.104534 0.723337 -0.114308
C10   C     C_R   0.604112 0.091792 0.762761 -0.111767
C11   C     C_R   0.596420 0.168039 0.788762 0.027732
C12   C     C_R   0.557647 0.184190 0.640272 -0.098603
C13   C     C_R   0.824954 0.619185 0.160600 -0.131053
C14   C     C_R   0.559935 0.206901 0.601541 0.101448
C15   C     C_R   0.684023 0.260762 0.618930 -0.150394
C16   C     C_R   0.680501 0.238724 0.657145 -0.132173
C17   C     C_R   0.614580 0.203945 0.668305 0.006008
C18   C     C_R   0.620661 0.249765 0.591032 0.046189
C19   C     C_R   0.045657 0.739077 0.048554 0.541057
C20   C     C_R   0.747339 0.746594 0.064031 0.543522
C21   C     C_R   0.751389 0.040283 0.050683 0.539711
C22   C     C_R   0.016916 0.722393 0.939775 0.543576
C23   C     C_R   0.717198 0.729873 0.954854 0.561885
C24   C     C_R   0.827030 0.636677 0.121621 -0.129337
C25   C     C_R   0.721372 0.024288 0.942055 0.540963
C26   C     C_R   0.691028 0.610902 0.236736 0.080549
C27   C     C_R   0.681766 0.606168 0.276008 -0.087364
C28   C     C_R   0.716112 0.655663 0.301812 -0.031133
C29   C     C_R   0.764436 0.708557 0.288459 0.042734
C30   C     C_R   0.772166 0.715518 0.248531 0.092687
C31   C     C_R   0.734819 0.666984 0.222719 0.022352
C32   C     C_R   0.593478 0.722360 0.354535 -0.139836
C33   C     C_R   0.593681 0.610372 0.449522 0.553387
C34   C     C_R   0.564252 0.711514 0.390725 -0.155504
C35   C     C_R   0.736760 0.570201 0.403880 0.099097
C36   C     C_R   0.765039 0.581941 0.367154 -0.103000
C37   C     C_R   0.692903 0.656016 0.342318 0.000323
C38   C     C_R   0.633719 0.632975 0.415166 0.046958
C39   C     C_R   0.103827 0.728164 0.084684 0.020320
C40   C     C_R   0.153822 0.632981 0.103183 -0.127536
C41   C     C_R   0.180801 0.627166 0.141992 -0.133343
C42   C     C_R   0.159148 0.716133 0.162840 0.044325
C43   C     C_R   0.118653 0.809705 0.143674 -0.097467
C44   C     C_R   0.303956 0.591426 0.442323 0.539482
C45   C     C_R   0.091433 0.815684 0.104722 -0.135425
C46   C     C_R   0.226663 0.744015 0.226401 0.114902
C47   C     C_R   0.231582 0.736469 0.266632 -0.090997
C48   C     C_R   0.176319 0.698566 0.285646 0.006999
C49   C     C_R   0.113649 0.670774 0.264055 -0.127555
C50   C     C_R   0.108978 0.677242 0.224246 -0.141005
C51   C     C_R   0.165688 0.712785 0.205101 0.053510
C52   C     C_R   0.203033 0.588535 0.342346 -0.123849
C53   C     C_R   0.232305 0.563116 0.380668 -0.129620
C54   C     C_R   0.231623 0.723142 0.390734 -0.130224
C55   C     C_R   0.605751 0.300175 0.553667 0.550684
C56   C     C_R   0.201969 0.748710 0.352414 -0.125888
C57   C     C_R   0.191022 0.679975 0.327503 0.030522
C58   C     C_R   0.250719 0.628379 0.404869 0.021197
C59   C     C_R   0.726172 0.096368 0.087397 0.024773
C60   C     C_R   0.804916 0.095694 0.110349 -0.126589
C61   C     C_R   0.789260 0.121961 0.149080 -0.121596
C62   C     C_R   0.694141 0.151405 0.165082 0.029173
C63   C     C_R   0.612571 0.161522 0.141474 -0.120393
C64   C     C_R   0.628696 0.133378 0.102849 -0.125160
C65   C     C_R   0.604466 0.249700 0.223469 -0.113858
C66   C     C_R   0.587660 0.606476 0.559028 0.535542
C67   C     C_R   0.595472 0.257709 0.263227 -0.116113
C68   C     C_R   0.664439 0.176429 0.286771 0.055810
C69   C     C_R   0.741138 0.086183 0.269886 -0.083734
C70   C     C_R   0.751083 0.078816 0.230209 -0.116852
C71   C     C_R   0.683380 0.160870 0.206851 0.023748
C72   C     C_R   0.743935 0.171044 0.351884 0.109751
C73   C     C_R   0.731500 0.198460 0.391222 0.105295
C74   C     C_R   0.549462 0.256161 0.384183 -0.175720
C75   C     C_R   0.562133 0.227419 0.345726 -0.177510
C76   C     C_R   0.657830 0.188847 0.328888 0.042429
C77   C     C_R   0.297548 0.589482 0.551638 0.564509
C78   C     C_R   0.632376 0.246879 0.406844 0.039151
C79   C     C_R   0.693637 0.689017 0.919268 0.058789
C80   C     C_R   0.775746 0.607196 0.900165 -0.158944
C81   C     C_R   0.765551 0.585863 0.861818 -0.139664
C82   C     C_R   0.672496 0.644070 0.841974 0.008179
C83   C     C_R   0.586740 0.717372 0.861811 -0.111820
C84   C     C_R   0.596540 0.740656 0.900395 0.093508
C85   C     C_R   0.594624 0.622626 0.780703 -0.134853
C86   C     C_R   0.590407 0.620963 0.740738 -0.144720
C87   C     C_R   0.658800 0.636973 0.719479 0.033784
C88   C     C_R   0.739958 0.715414 0.102964 0.022411
C89   C     C_R   0.733683 0.653394 0.738668 0.103025
C90   C     C_R   0.738382 0.652708 0.778748 -0.076782
C91   C     C_R   0.669020 0.637906 0.799880 -0.001502
C92   C     C_R   0.714222 0.544580 0.656950 0.085077
C93   C     C_R   0.699038 0.538932 0.617549 -0.087452
C94   C     C_R   0.559242 0.714212 0.617759 -0.131520
C95   C     C_R   0.573302 0.722093 0.657356 -0.011595
C96   C     C_R   0.649967 0.635613 0.677304 0.032995
C97   C     C_R   0.619221 0.622012 0.597918 -0.026717
C98   C     C_R   0.065390 0.698354 0.902299 0.024818
C99   C     C_R   0.649550 0.772959 0.123577 -0.124529
C100  C     C_R   0.096965 0.762953 0.886731 -0.125906
C101  C     C_R   0.125068 0.751712 0.848530 -0.122324
C102  C     C_R   0.121056 0.676348 0.825308 0.032644
C103  C     C_R   0.095414 0.607872 0.841551 -0.120991
C104  C     C_R   0.068322 0.618438 0.879838 -0.126821
C105  C     C_R   0.188745 0.579727 0.764189 -0.119326
C106  C     C_R   0.197518 0.577427 0.724576 -0.117017
C107  C     C_R   0.154353 0.669053 0.703940 0.031184
C108  C     C_R   0.102712 0.763143 0.723348 -0.112105
C109  C     C_R   0.092986 0.765497 0.762980 -0.111065
C110  C     C_R   0.647705 0.755350 0.162471 -0.129428
C111  C     C_R   0.135985 0.673744 0.783712 0.030721
C112  C     C_R   0.210817 0.720921 0.646833 -0.137399
C113  C     C_R   0.244789 0.701669 0.609338 -0.160224
C114  C     C_R   0.186625 0.577557 0.601514 0.096632
C115  C     C_R   0.153210 0.597161 0.639312 -0.112672
C116  C     C_R   0.169434 0.665161 0.662503 0.011754
C117  C     C_R   0.238015 0.626174 0.586968 0.060774
C118  C     C_R   0.673003 0.078043 0.906038 0.021917
C119  C     C_R   0.600573 0.060250 0.886157 -0.129020
C120  C     C_R   0.571022 0.094058 0.848463 -0.123181
Cr1   Cr    Cr6+3 0.426010 0.422500 0.497000 1.046286
Cr2   Cr    Cr6+3 0.651300 0.426310 0.501970 1.044808
Cr3   Cr    Cr6+3 0.422670 0.651170 0.501050 1.003953
Cr4   Cr    Cr6+3 0.905130 0.911420 0.992650 1.011536
Cr5   Cr    Cr6+3 0.911860 0.682710 0.002320 1.007702
Cr6   Cr    Cr6+3 0.682710 0.906840 0.004710 1.027583
H1    H     H_    0.581375 0.834183 0.110033 0.132350
H2    H     H_    0.485131 0.760800 0.398548 0.132215
H3    H     H_    0.893324 0.560374 0.174948 0.104662
H4    H     H_    0.165022 0.564146 0.088443 0.126131
H5    H     H_    0.052747 0.890139 0.091288 0.122150
H6    H     H_    0.191106 0.820664 0.341935 0.101967
H7    H     H_    0.281784 0.756299 0.282944 0.098416
H8    H     H_    0.212901 0.554167 0.156350 0.104125
H9    H     H_    0.069149 0.642733 0.277934 0.108404
H10   H     H_    0.897988 0.591609 0.106568 0.129310
H11   H     H_    0.061201 0.653845 0.208161 0.104978
H12   H     H_    0.195946 0.533555 0.323825 0.100759
H13   H     H_    0.246605 0.489455 0.390628 0.124475
H14   H     H_    0.101048 0.879224 0.159422 0.132831
H15   H     H_    0.244482 0.775433 0.408750 0.122695
H16   H     H_    0.880913 0.067066 0.099233 0.121771
H17   H     H_    0.566828 0.134625 0.085680 0.118094
H18   H     H_    0.495729 0.239825 0.328536 0.113674
H19   H     H_    0.535994 0.328254 0.275681 0.111477
H20   H     H_    0.551306 0.313339 0.205734 0.112564
H21   H     H_    0.842009 0.531103 0.357318 0.100368
H22   H     H_    0.852681 0.114687 0.166986 0.111907
H23   H     H_    0.793783 0.021764 0.287339 0.136686
H24   H     H_    0.811049 0.008712 0.217654 0.118208
H25   H     H_    0.538641 0.184272 0.153489 0.105040
H26   H     H_    0.472888 0.291850 0.395477 0.138401
H27   H     H_    0.850905 0.564737 0.913780 0.131077
H28   H     H_    0.645298 0.565258 0.286559 0.147383
H29   H     H_    0.533374 0.607528 0.726247 0.110262
H30   H     H_    0.540456 0.611394 0.796659 0.112734
H31   H     H_    0.832107 0.527816 0.846972 0.109092
H32   H     H_    0.794849 0.666580 0.793533 0.128025
H33   H     H_    0.746030 0.466850 0.602813 0.149298
H34   H     H_    0.513996 0.761738 0.846670 0.102051
H35   H     H_    0.497871 0.779098 0.602783 0.131127
H36   H     H_    0.096166 0.824595 0.903650 0.120349
H37   H     H_    0.043569 0.568060 0.891101 0.123412
H38   H     H_    0.118422 0.556011 0.651071 0.103977
H39   H     H_    0.239832 0.504073 0.710090 0.108201
H40   H     H_    0.223757 0.508067 0.779575 0.103827
H41   H     H_    0.146838 0.803939 0.836824 0.100259
H42   H     H_    0.069153 0.834495 0.707787 0.106801
H43   H     H_    0.050178 0.838983 0.777293 0.106409
H44   H     H_    0.223563 0.774005 0.664407 0.108380
H45   H     H_    0.283067 0.740830 0.598917 0.130272
H46   H     H_    0.090754 0.549704 0.824177 0.101298
H47   H     H_    0.578388 0.802249 0.178261 0.109570
H48   H     H_    0.571622 0.014933 0.898826 0.129773
H49   H     H_    0.765148 0.151505 0.903476 0.125933
H50   H     H_    0.726855 0.252265 0.678292 0.120878
H51   H     H_    0.582670 0.342082 0.725027 0.106475
H52   H     H_    0.577846 0.320060 0.793904 0.103429
H53   H     H_    0.518643 0.075623 0.833008 0.101056
H54   H     H_    0.616783 0.043181 0.703886 0.106941
H55   H     H_    0.613782 0.020062 0.772965 0.111163
H56   H     H_    0.507848 0.155738 0.648806 0.095912
H57   H     H_    0.713680 0.210505 0.838008 0.105604
H58   H     H_    0.731318 0.293288 0.611757 0.140710
H59   H     H_    0.537097 0.779406 0.335263 0.110853
O1    O     O_R   0.324990 0.503440 0.453910 -0.520220
O2    O     O_R   0.639980 0.519500 0.542640 -0.507620
O3    O     O_R   0.500750 0.673190 0.545480 -0.519436
O4    O     O_R   0.336260 0.640450 0.538210 -0.518161
O5    O     O_3   0.499990 0.499990 0.500010 -0.252242
O6    O     O_R   0.834210 0.019400 0.034570 -0.521729
O7    O     O_R   0.002210 0.824620 0.031030 -0.502260
O8    O     O_R   0.024400 0.669340 0.039790 -0.518990
O9    O     O_R   0.830490 0.694950 0.045870 -0.502841
O10   O     O_R   0.675430 0.831160 0.051290 -0.516792
O11   O     O_R   0.698870 0.998880 0.039560 -0.500348
O12   O     O_R   0.522030 0.339050 0.458320 -0.518659
O13   O     O_R   0.811290 0.006780 0.950620 -0.516033
O14   O     O_R   0.980960 0.812920 0.953200 -0.499515
O15   O     O_R   0.001480 0.656720 0.955830 -0.522054
O16   O     O_R   0.809240 0.683250 0.968050 -0.516923
O17   O     O_R   0.652500 0.818540 0.967340 -0.471940
O18   O     O_R   0.677620 0.987170 0.961730 -0.502105
O19   O     O_3   0.833240 0.833660 0.999890 -0.239955
O20   O     O_R   0.676180 0.324490 0.458320 -0.460379
O21   O     O_R   0.643570 0.521510 0.464260 -0.458677
O22   O     O_R   0.504630 0.675350 0.460920 -0.530744
O23   O     O_R   0.339850 0.642450 0.459830 -0.503135
O24   O     O_R   0.321120 0.501280 0.538470 -0.460878
O25   O     O_R   0.518440 0.337050 0.536710 -0.459777
O26   O     O_R   0.672300 0.322330 0.542880 -0.530797
N1    N     N_3   0.811155 0.493070 0.429105 -0.597974
H60   H     H_    0.881459 0.450601 0.415590 0.212929
H61   H     H_    0.823760 0.530906 0.452336 0.220268
N2    N     N_3   0.285758 0.779679 0.207056 -0.642461
H62   H     H_    0.342847 0.717390 0.192070 0.233638
H63   H     H_    0.323388 0.803346 0.226948 0.220639
N3    N     N_3   0.842118 0.131316 0.334663 -0.648935
H64   H     H_    0.866645 0.184897 0.338244 0.234122
H65   H     H_    0.894556 0.063696 0.348539 0.217552
N4    N     N_3   0.818452 0.179864 0.415094 -0.602950
H66   H     H_    0.871348 0.101413 0.414689 0.217062
H67   H     H_    0.852590 0.219256 0.404018 0.238282
N5    N     N_3   0.509234 0.820177 0.919445 -0.606264
H68   H     H_    0.451656 0.800502 0.918611 0.221604
H69   H     H_    0.482493 0.887714 0.903923 0.219147
C121  C     C_3   0.502762 0.822280 0.677456 -0.251354
C122  C     C_3   0.395273 0.835995 0.681189 -0.297946
C123  C     C_3   0.324988 0.934233 0.703040 -0.455149
H70   H     H_    0.356162 0.931894 0.732538 0.152182
H71   H     H_    0.317295 0.001821 0.687853 0.151621
H72   H     H_    0.247832 0.942195 0.705054 0.139717
H73   H     H_    0.360783 0.839128 0.652235 0.154998
H74   H     H_    0.400305 0.769954 0.696679 0.165037
H75   H     H_    0.533586 0.826670 0.706352 0.160941
H76   H     H_    0.497883 0.886619 0.660741 0.132311
N6    N     N_3   0.804069 0.673265 0.718701 -0.641069
H77   H     H_    0.788416 0.680577 0.689221 0.237497
H78   H     H_    0.877449 0.610073 0.722620 0.220457
N7    N     N_3   0.791931 0.454858 0.676038 -0.652473
H79   H     H_    0.843553 0.472853 0.689935 0.233888
H80   H     H_    0.757225 0.433804 0.696720 0.231602
N8    N     N_3   0.653583 0.559667 0.211537 -0.638495
H81   H     H_    0.713557 0.508552 0.194193 0.240917
H82   H     H_    0.595279 0.614161 0.193930 0.233461
N9    N     N_3   0.171432 0.505736 0.578628 -0.599238
H83   H     H_    0.207355 0.435434 0.592771 0.233978
H84   H     H_    0.092800 0.531467 0.577023 0.220394
C124  C     C_3   0.805137 0.759416 0.316376 -0.224325
C125  C     C_3   0.722241 0.869573 0.325594 -0.290871
C126  C     C_3   0.759764 0.917142 0.356601 -0.453205
H85   H     H_    0.779759 0.872184 0.383437 0.156499
H86   H     H_    0.828192 0.919401 0.346907 0.153384
H87   H     H_    0.698108 0.996436 0.362865 0.158165
H88   H     H_    0.700834 0.916648 0.299240 0.176286
H89   H     H_    0.652600 0.870670 0.335874 0.166025
H90   H     H_    0.833610 0.714485 0.343222 0.133557
H91   H     H_    0.872623 0.759609 0.304396 0.168300
N10   N     N_3   0.498338 0.190083 0.573170 -0.601892
H92   H     H_    0.455466 0.161889 0.585895 0.213630
H93   H     H_    0.548395 0.132770 0.554498 0.218605
N11   N     N_3   0.814720 0.774932 0.234500 -0.658413
H94   H     H_    0.759119 0.833701 0.217430 0.238740
H95   H     H_    0.877026 0.727648 0.217427 0.229410

loop_
_geom_bond_atom_site_label_1
_geom_bond_atom_site_label_2
_ccdc_geom_bond_type
C15   C18   A    
Cr5   O19   S    
C40   C41   A    
C101  C102  A    
C22   C98   S    
C66   O3    A    
C41   C42   A    
C14   C18   A    
Cr2   O2    S    
C95   C96   A    
C70   H24   S    
C92   C96   A    
C124  H91   S    
C72   C76   A    
C25   C118  S    
C104  H37   S    
C114  C115  A    
C85   C91   A    
C50   H11   S    
C48   C57   S    
C113  H45   S    
C114  N9    S    
C85   C86   A    
Cr6   O17   S    
C121  H76   S    
Cr4   O14   S    
Cr5   O16   S    
C59   C64   A    
C123  H70   S    
C32   H59   S    
Cr4   O19   S    
C108  H42   S    
C28   C37   S    
C66   C97   S    
C22   O15   A    
C36   C37   A    
C61   H22   S    
C21   C59   S    
C123  H72   S    
C77   C117  S    
C14   N10   S    
N2    H63   S    
C119  H48   S    
C79   C84   A    
C80   C81   A    
C126  H86   S    
C112  C116  A    
C106  C107  A    
C15   C16   A    
Cr4   O13   S    
C44   O23   A    
C108  C109  A    
C7    H51   S    
C93   H33   S    
C33   O22   A    
C101  H41   S    
C2    C13   A    
Cr2   O21   S    
C118  C119  A    
C41   H8    S    
C25   O13   A    
C109  C111  A    
C60   H16   S    
Cr1   O1    S    
N9    H83   S    
Cr6   O10   S    
N8    H81   S    
C12   H56   S    
C83   H34   S    
C83   C84   A    
Cr5   O15   S    
C44   C58   S    
C16   C17   A    
N8    H82   S    
C12   C17   A    
C67   H19   S    
C47   C48   A    
C52   H12   S    
C107  C108  A    
C70   C71   A    
Cr1   O24   S    
Cr3   O4    S    
C29   C30   A    
C1    O20   A    
C9    C10   A    
C20   O10   A    
C122  H74   S    
C77   O24   A    
C19   O7    A    
C39   C45   A    
C16   H50   S    
C27   H28   S    
Cr3   O3    S    
C105  H40   S    
C49   H9    S    
C59   C60   A    
C21   O11   A    
C34   C38   A    
C66   O2    A    
C47   H7    S    
C1    C78   S    
C5    H49   S    
Cr2   O20   S    
C74   H26   S    
C102  C111  S    
C61   C62   A    
C23   C79   S    
C20   O9    A    
C122  C123  S    
C109  H43   S    
Cr2   O5    S    
C6    C7    A    
C54   C56   A    
C125  H89   S    
N9    H84   S    
C33   O21   A    
C81   H31   S    
C74   C75   A    
Cr1   O5    S    
C23   O17   A    
C67   C68   A    
C114  C117  A    
C106  H39   S    
C89   N6    S    
C22   O14   A    
C7    C8    A    
C35   C38   A    
C69   H23   S    
C95   C121  S    
C126  H85   S    
C84   N5    S    
C89   C90   A    
C6    C11   A    
C26   N8    S    
C8    C9    A    
C126  H87   S    
N11   H95   S    
C94   C97   A    
C65   C67   A    
C125  C126  S    
C32   C37   A    
C99   C110  A    
C46   C51   A    
C81   C82   A    
C82   C91   S    
C63   C64   A    
C13   C24   A    
C60   C61   A    
C30   N11   S    
C35   C36   A    
C29   C124  S    
C90   H32   S    
C75   C76   A    
C112  H44   S    
C62   C63   A    
N4    H66   S    
C24   C88   A    
C36   H21   S    
N3    H65   S    
C121  C122  S    
Cr5   O8    S    
C73   C78   A    
Cr1   O12   S    
C15   H58   S    
N7    H80   S    
C50   C51   A    
C124  C125  S    
C119  C120  A    
Cr3   O22   S    
C43   H14   S    
C86   H29   S    
Cr1   O25   S    
Cr3   O5    S    
C92   C93   A    
C43   C45   A    
C94   H35   S    
C63   H25   S    
C122  H73   S    
C56   H6    S    
C9    H54   S    
C19   C39   S    
C18   C55   S    
C113  C117  A    
C48   C49   A    
N1    H61   S    
C19   O8    A    
C94   C95   A    
C98   C100  A    
C10   C11   A    
N6    H78   S    
C26   C27   A    
C103  H46   S    
C49   C50   A    
C42   C43   A    
N5    H68   S    
C90   C91   A    
C3    C4    A    
C28   C29   A    
C93   C97   A    
Cr4   O7    S    
C72   N3    S    
C52   C53   A    
C86   C87   A    
C54   C58   A    
C110  H47   S    
C125  H88   S    
C56   C57   A    
C23   O16   A    
C40   H4    S    
C46   C47   A    
C92   N7    S    
C53   H13   S    
C26   C31   A    
C120  H53   S    
C1    O12   A    
C3    C120  A    
C33   C38   S    
C124  H90   S    
C72   C73   A    
C25   O18   A    
N5    H69   S    
C52   C57   A    
C99   H1    S    
C53   C58   A    
C87   C96   S    
C45   H5    S    
N11   H94   S    
C64   H17   S    
Cr6   O18   S    
C68   C76   S    
C121  H75   S    
C105  C106  A    
C42   C51   S    
C8    C17   S    
C46   N2    S    
C35   N1    S    
C73   N4    S    
C5    C118  A    
N4    H67   S    
Cr6   O19   S    
C87   C89   A    
C12   C14   A    
C77   O4    A    
C123  H71   S    
N10   H93   S    
C65   C71   A    
C115  H38   S    
C55   O25   A    
N7    H79   S    
C24   H10   S    
N3    H64   S    
C30   C31   A    
Cr5   O9    S    
C80   H27   S    
C98   C104  A    
C4    C5    A    
C20   C88   S    
C100  C101  A    
C62   C71   S    
Cr3   O23   S    
C112  C113  A    
C4    H57   S    
C105  C111  A    
C102  C103  A    
C68   C69   A    
C69   C70   A    
C107  C116  S    
C88   C99   A    
C3    C11   S    
C75   H18   S    
C55   O26   A    
C79   C80   A    
C39   C40   A    
Cr6   O11   S    
N2    H62   S    
C54   H15   S    
N1    H60   S    
C34   H2    S    
C82   C83   A    
C74   C78   A    
C44   O1    A    
C103  C104  A    
C10   H55   S    
C13   H3    S    
Cr2   O26   S    
C2    C31   S    
C100  H36   S    
C21   O6    A    
C115  C116  A    
C65   H20   S    
N6    H77   S    
C85   H30   S    
Cr4   O6    S    
C6    H52   S    
N10   H92   S    
C32   C34   A    
C27   C28   A    
C2    C110  A    
