data_mof_unit_68235.cif
_audit_creation_date              2013-03-05T16:10:12-0500
_audit_creation_method            fapswitch 2.2
_symmetry_space_group_name_H-M    P1
_symmetry_Int_Tables_number       1
_space_group_crystal_system       triclinic
_cell_length_a                    14.94798
_cell_length_b                    7.489484
_cell_length_c                    13.563342
_cell_angle_alpha                 89.67775
_cell_angle_beta                  100.88073
_cell_angle_gamma                 90.14403
_cell_volume                      1491.1286137

loop_
_atom_site_label
_atom_site_type_symbol
_atom_site_description
_atom_site_fract_x
_atom_site_fract_y
_atom_site_fract_z
_atom_type_partial_charge
O1    O     O_R   0.648180 0.355050 0.151550 -0.588486
O2    O     O_R   0.351820 0.644950 0.848450 -0.572371
O3    O     O_R   0.851820 0.855050 0.348450 -0.578236
O4    O     O_R   0.148180 0.144950 0.651550 -0.574564
O5    O     O_R   0.835240 0.681980 0.154280 -0.561521
O6    O     O_R   0.164760 0.318020 0.845720 -0.568833
O7    O     O_R   0.664760 0.181980 0.345720 -0.566868
O8    O     O_R   0.335240 0.818020 0.654280 -0.572555
C1    C     C_R   0.858325 0.516155 0.128124 0.940060
C2    C     C_R   0.136705 0.482689 0.867616 0.930681
C3    C     C_R   0.639719 0.015547 0.369645 0.953768
C4    C     C_R   0.362527 0.983051 0.631342 0.924502
O9    O     O_R   0.647870 0.684600 0.139630 -0.551170
O10   O     O_R   0.352130 0.315400 0.860370 -0.563798
O11   O     O_R   0.852130 0.184600 0.360370 -0.560234
O12   O     O_R   0.147870 0.815400 0.639630 -0.569179
O13   O     O_R   0.663110 0.857440 0.333700 -0.563494
O14   O     O_R   0.336890 0.142560 0.666300 -0.562889
O15   O     O_R   0.836890 0.357440 0.166300 -0.568341
O16   O     O_R   0.163110 0.642560 0.833700 -0.548675
C5    C     C_R   0.613895 0.516841 0.115977 0.999112
C6    C     C_R   0.384952 0.483435 0.885583 0.995173
C7    C     C_R   0.886511 0.016897 0.383404 0.995424
C8    C     C_R   0.116142 0.983931 0.613051 0.994154
O17   O     O_3   0.755220 0.522230 0.313690 -0.312220
O18   O     O_3   0.244780 0.477770 0.686310 -0.326120
O19   O     O_3   0.744780 0.022230 0.186310 -0.307546
O20   O     O_3   0.255220 0.977770 0.813690 -0.297328
V1    V     V_3+5 0.749030 0.796100 0.238190 1.219720
V2    V     V_3+5 0.250970 0.203900 0.761810 1.197786
V3    V     V_3+5 0.750970 0.296100 0.261810 1.209659
V4    V     V_3+5 0.249030 0.703900 0.738190 1.191091
C9    C     C_1   0.968866 0.007139 0.463053 -0.156476
C10   C     C_1   0.036042 0.995140 0.530805 -0.175256
C11   C     C_1   0.532458 0.506404 0.035271 -0.110033
C12   C     C_1   0.465674 0.493715 0.967132 -0.192915
C13   C     C_R   0.565167 0.961233 0.716318 -0.232222
C14   C     C_R   0.447391 0.972060 0.285957 -0.196061
C15   C     C_R   0.934075 0.457880 0.782141 -0.226660
C16   C     C_R   0.049483 0.485873 0.210914 -0.237459
C17   C     C_R   0.659460 0.967384 0.761378 -0.220193
C18   C     C_R   0.360505 0.905066 0.242633 -0.223412
C19   C     C_R   0.839937 0.464406 0.736614 -0.216756
C20   C     C_R   0.135383 0.421156 0.254434 -0.208059
C21   C     C_R   0.723003 0.999132 0.699319 0.095980
C22   C     C_R   0.293954 0.889270 0.302663 0.146179
C23   C     C_R   0.776057 0.496239 0.797963 0.094732
C24   C     C_R   0.205767 0.436694 0.199606 0.113969
C25   C     C_R   0.693623 0.004956 0.593442 0.086907
C26   C     C_R   0.319395 0.907255 0.408622 0.124821
C27   C     C_R   0.805004 0.503083 0.903789 0.086096
C28   C     C_R   0.182400 0.448481 0.093043 0.092234
C29   C     C_R   0.598944 0.000375 0.546408 0.109793
C30   C     C_R   0.410089 0.956971 0.456638 0.059757
C31   C     C_R   0.899549 0.499872 0.951115 0.108566
C32   C     C_R   0.089519 0.473638 0.042162 0.084632
C33   C     C_R   0.532138 0.985497 0.609714 0.004859
C34   C     C_R   0.476511 0.981056 0.393658 0.001478
C35   C     C_R   0.966827 0.483765 0.888435 0.001474
C36   C     C_R   0.021657 0.493679 0.103689 0.018849
C37   C     C_R   0.570693 0.005202 0.438216 -0.233192
C38   C     C_R   0.435599 0.980954 0.564810 -0.248728
C39   C     C_R   0.927272 0.508483 0.059039 -0.233307
C40   C     C_R   0.063540 0.483006 0.933579 -0.248018
C41   C     C_2   0.692471 0.930322 0.873362 0.930183
O21   O     O_2   0.773320 0.912569 0.908440 -0.645896
O22   O     O_R   0.632139 0.921962 0.940273 -0.800845
H1    H     H_    0.664571 0.906217 0.012122 0.359141
C42   C     C_2   0.340286 0.850860 0.133967 0.946431
O23   O     O_2   0.262348 0.832846 0.088165 -0.673034
O24   O     O_R   0.410931 0.812511 0.084147 -0.780767
H2    H     H_    0.388360 0.797831 0.009811 0.324283
C43   C     C_2   0.807371 0.429479 0.624656 0.928438
O25   O     O_2   0.726627 0.410224 0.589410 -0.646418
O26   O     O_R   0.868001 0.423857 0.558093 -0.798593
H3    H     H_    0.835830 0.407005 0.486347 0.359003
C44   C     C_2   0.148751 0.330279 0.354322 0.998559
O27   O     O_2   0.195645 0.197350 0.369146 -0.705129
O28   O     O_R   0.107222 0.391133 0.431312 -0.805375
H4    H     H_    0.124713 0.317097 0.494329 0.327989
C45   C     C_2   0.504780 0.900992 0.782065 1.100054
O29   O     O_2   0.496205 0.741138 0.794077 -0.662126
O30   O     O_R   0.465897 0.025082 0.837802 -0.758313
H5    H     H_    0.431405 0.966649 0.886619 0.340837
C46   C     C_2   0.494566 0.074919 0.216504 1.021120
O31   O     O_2   0.484228 0.236264 0.208735 -0.685086
O32   O     O_R   0.549397 0.988332 0.159218 -0.701631
H6    H     H_    0.567134 0.068618 0.105800 0.341324
C47   C     C_2   0.994877 0.399309 0.717020 1.092088
O33   O     O_2   0.003921 0.239775 0.705440 -0.658439
O34   O     O_R   0.033987 0.524950 0.661603 -0.755190
H7    H     H_    0.069132 0.467673 0.613567 0.351009
C48   C     C_2   0.000531 0.581685 0.279915 1.061194
O35   O     O_2   0.002216 0.744455 0.281783 -0.680184
O36   O     O_R   0.952090 0.487144 0.341641 -0.717037
H8    H     H_    0.931256 0.566074 0.393187 0.349798
N1    N     N_2   0.202223 0.840664 0.257777 -0.098919
H9    H     H_    0.166772 0.762944 0.298915 0.188242
C49   C     C_3   0.143553 0.970649 0.198022 -0.612409
H10   H     H_    0.091599 0.020211 0.239690 0.241886
H11   H     H_    0.106576 0.906095 0.128652 0.248896
H12   H     H_    0.182660 0.084466 0.176959 0.228747
N2    N     N_2   0.815314 0.046649 0.742774 -0.095540
H13   H     H_    0.841249 0.143570 0.704277 0.179837
C50   C     C_3   0.885227 0.912623 0.769319 -0.694039
H14   H     H_    0.920566 0.886312 0.705849 0.232546
H15   H     H_    0.856851 0.789480 0.792975 0.250226
H16   H     H_    0.936926 0.961877 0.833146 0.262221
N3    N     N_2   0.297381 0.480539 0.249070 -0.121651
H17   H     H_    0.338789 0.532105 0.203753 0.200472
C51   C     C_3   0.349042 0.367762 0.325932 -0.800855
H18   H     H_    0.422253 0.404965 0.338505 0.266823
H19   H     H_    0.340401 0.229211 0.302502 0.270939
H20   H     H_    0.329408 0.382020 0.399492 0.247513
N4    N     N_2   0.684507 0.546826 0.753484 -0.096393
H21   H     H_    0.659841 0.646365 0.790575 0.178784
C52   C     C_3   0.613014 0.415415 0.728267 -0.700685
H22   H     H_    0.578521 0.389503 0.792624 0.232489
H23   H     H_    0.639553 0.291741 0.703710 0.254048
H24   H     H_    0.560972 0.467297 0.665288 0.257769
N5    N     N_2   0.761992 0.980185 0.535434 -0.142156
H25   H     H_    0.814851 0.070008 0.549286 0.166282
C53   C     C_3   0.791383 0.796810 0.539093 -0.818754
H26   H     H_    0.860990 0.782376 0.524497 0.246292
H27   H     H_    0.742897 0.714293 0.486509 0.291577
H28   H     H_    0.794288 0.745119 0.615073 0.242786
N6    N     N_2   0.255274 0.851638 0.467082 -0.129523
H29   H     H_    0.190578 0.901883 0.444643 0.189282
C54   C     C_3   0.255796 0.660975 0.481709 -0.779188
H30   H     H_    0.203202 0.622649 0.524586 0.298085
H31   H     H_    0.323790 0.612273 0.519806 0.256058
H32   H     H_    0.240119 0.596716 0.409307 0.204352
N7    N     N_2   0.736419 0.479308 0.961808 -0.144613
H33   H     H_    0.683040 0.567455 0.945861 0.165465
C55   C     C_3   0.707833 0.295433 0.960368 -0.820222
H34   H     H_    0.639866 0.278717 0.979098 0.243786
H35   H     H_    0.758753 0.213313 0.010740 0.290981
H36   H     H_    0.700998 0.245690 0.883856 0.243994
N8    N     N_2   0.252665 0.414742 0.038234 -0.130929
H37   H     H_    0.301353 0.512841 0.043651 0.164700
C56   C     C_3   0.289270 0.235879 0.051279 -0.786970
H38   H     H_    0.353999 0.224194 0.024239 0.252011
H39   H     H_    0.238843 0.140075 0.010917 0.283795
H40   H     H_    0.306833 0.200738 0.131307 0.226297

loop_
_geom_bond_atom_site_label_1
_geom_bond_atom_site_label_2
_geom_bond_distance
_ccdc_geom_bond_type
O17   V3    1.833968 S    
C55   H36   1.091017 S    
O32   H6    1.011731 S    
O1    C5    1.366350 A    
C48   O35   1.219569 D    
C16   C36   1.436063 A    
C31   C35   1.439863 A    
O19   V1    1.826940 S    
O13   V1    2.043647 S    
C43   O25   1.219895 D    
O3    C7    1.368743 A    
C51   H18   1.110354 S    
C16   C48   1.481543 S    
O15   V3    2.038913 S    
C52   H23   1.086946 S    
N1    H9    1.018520 S    
C53   H26   1.100936 S    
C44   O27   1.212842 D    
O7    C3    1.355774 A    
C50   H15   1.086070 S    
C35   C40   1.459697 A    
C26   C30   1.437893 A    
C36   C39   1.430747 A    
O9    V1    2.003500 S    
C20   C44   1.492253 S    
C14   C18   1.412719 A    
N3    C51   1.444303 S    
C30   C34   1.437205 A    
O4    C8    1.366053 A    
C53   H27   1.106103 S    
N4    H21   1.010160 S    
O1    V3    1.980090 S    
C28   N8    1.420525 S    
O2    V4    1.980087 S    
C18   C22   1.403813 A    
C42   O24   1.388283 S    
C21   N2    1.439057 S    
N1    C49   1.449417 S    
C14   C34   1.445277 A    
C29   C37   1.448646 A    
C19   C43   1.528427 S    
C1    O15   1.355568 A    
O36   H8    1.011438 S    
C2    O16   1.364196 A    
N4    C52   1.445070 S    
C31   C39   1.445869 A    
O2    C6    1.365365 A    
C32   C40   1.451820 A    
O14   V2    2.043646 S    
C47   O34   1.395473 S    
C55   H34   1.099475 S    
C16   C20   1.394942 A    
C54   H32   1.081094 S    
C34   C37   1.434800 A    
O11   C7    1.370220 A    
C24   N3    1.444526 S    
C25   N5    1.415637 S    
O12   C8    1.371645 A    
C13   C17   1.427268 A    
C43   O26   1.395614 S    
C13   C45   1.452894 S    
O10   V2    2.003500 S    
C45   O30   1.396261 S    
C45   O29   1.217064 D    
O5    V1    2.063159 S    
C46   O32   1.394554 S    
C50   H16   1.110105 S    
O7    V3    2.055157 S    
C14   C46   1.489291 S    
O22   H1    1.009569 S    
O8    V4    2.055154 S    
C33   C38   1.456946 A    
C7    C9    1.478297 S    
N3    H17   1.024615 S    
C52   H24   1.110278 S    
O34   H7    1.008952 S    
C29   C33   1.438391 A    
O18   V4    1.833969 S    
C53   H28   1.092007 S    
C15   C19   1.426820 A    
C30   C38   1.456601 A    
C41   O22   1.396050 S    
C46   O31   1.220060 D    
C18   C42   1.505467 S    
C8    C10   1.476570 S    
C32   C36   1.438655 A    
C11   C12   1.229608 T    
C23   N4    1.438260 S    
O26   H3    1.009229 S    
N6    C54   1.440412 S    
O5    C1    1.356722 A    
C4    C38   1.542732 S    
O30   H5    1.010069 S    
C21   C25   1.420665 A    
O8    C4    1.353476 A    
C15   C35   1.446358 A    
C9    C10   1.229633 T    
C44   O28   1.391059 S    
O9    C5    1.370866 A    
C51   H19   1.087193 S    
N8    C56   1.445562 S    
N5    H25   1.027074 S    
O6    V2    2.063159 S    
C22   N1    1.438107 S    
N7    H33   1.027205 S    
N2    C50   1.445178 S    
C56   H40   1.098144 S    
N6    H29   1.029024 S    
C54   H30   1.099203 S    
O16   V4    2.038915 S    
C55   H35   1.107110 S    
C3    O13   1.354642 A    
C49   H11   1.109951 S    
C1    C39   1.519531 S    
C2    C40   1.538174 S    
C3    C37   1.515491 S    
O6    C2    1.356028 A    
C23   C27   1.419982 A    
N8    H37   1.025963 S    
O11   V3    2.000398 S    
C5    C11   1.477713 S    
O12   V4    2.000399 S    
C6    C12   1.477134 S    
C50   H14   1.110428 S    
C22   C26   1.422599 A    
C49   H10   1.108976 S    
O10   C6    1.371080 A    
C56   H39   1.108444 S    
O24   H2    1.007522 S    
C56   H38   1.101427 S    
C27   N7    1.415668 S    
O3    V1    1.982116 S    
C25   C29   1.438840 A    
O20   V2    1.826941 S    
C51   H20   1.097678 S    
C27   C31   1.437846 A    
C17   C41   1.529883 S    
C42   O23   1.219957 D    
O4    V2    1.982117 S    
N5    C53   1.440730 S    
O28   H4    1.008659 S    
C28   C32   1.441358 A    
C24   C28   1.423714 A    
C49   H12   1.098989 S    
C48   O36   1.395064 S    
C41   O21   1.219671 D    
C4    O14   1.369713 A    
N2    H13   1.010240 S    
N7    C55   1.440017 S    
C17   C21   1.402028 A    
C26   N6    1.414961 S    
C47   O33   1.217164 D    
C52   H22   1.110382 S    
C19   C23   1.401550 A    
C15   C47   1.451911 S    
C13   C33   1.447559 A    
C20   C24   1.402592 A    
C54   H31   1.111093 S    
