data_mof_unit_52834.cif
_audit_creation_date              2012-10-26T18:25:37-0400
_audit_creation_method            fapswitch 2.2
_symmetry_space_group_name_H-M    P1
_symmetry_Int_Tables_number       1
_space_group_crystal_system       triclinic
_cell_length_a                    7.533412
_cell_length_b                    8.686225
_cell_length_c                    11.006454
_cell_angle_alpha                 88.236302
_cell_angle_beta                  72.121071
_cell_angle_gamma                 103.136797
_cell_volume                      663.568361118

loop_
_atom_site_label
_atom_site_type_symbol
_atom_type_description
_atom_site_fract_x
_atom_site_fract_y
_atom_site_fract_z
_atom_type_partial_charge
C1    C     C_R   0.451833 0.199726 0.504057 0.540111
C2    C     C_2   0.574671 0.968637 0.493777 -0.125705
C3    C     C_R   0.548167 0.800274 0.495943 0.540111
C4    C     C_R   0.422559 0.492259 0.742614 0.551116
C5    C     C_R   0.577441 0.507741 0.257386 0.551116
C6    C     C_2   0.379256 0.487991 0.880672 -0.105282
C7    C     C_2   0.620744 0.512009 0.119328 -0.105282
C8    C     C_2   0.521055 0.502270 0.931165 -0.135418
C9    C     C_2   0.478945 0.497730 0.068835 -0.135419
C10   C     C_2   0.425329 0.031363 0.506223 -0.125705
Cl1   Cl    Cl    0.857650 0.311547 0.650547 -0.496171
Cl2   Cl    Cl    0.142350 0.688453 0.349453 -0.496171
Cu1   Cu    Cu3+1 0.688910 0.517800 0.485820 1.142207
Cu2   Cu    Cu3+1 0.311090 0.482200 0.514180 1.142207
H1    H     H_    0.330261 0.482473 0.129167 0.190197
H2    H     H_    0.669739 0.517527 0.870833 0.190197
H3    H     H_    0.769125 0.526927 0.058617 0.117330
H4    H     H_    0.230875 0.473073 0.941383 0.117330
H5    H     H_    0.281767 0.958739 0.518176 0.171513
H6    H     H_    0.718233 0.041261 0.481824 0.171513
N1    N     N_2   0.027170 0.455360 0.535550 0.067754
N2    N     N_2   0.972830 0.544640 0.464450 0.067754
O1    O     O_R   0.622710 0.286400 0.490790 -0.476277
O2    O     O_R   0.377290 0.713600 0.509210 -0.476277
O3    O     O_R   0.303660 0.256330 0.514730 -0.480726
O4    O     O_R   0.696340 0.743670 0.485270 -0.480726
O5    O     O_R   0.600900 0.509520 0.671740 -0.473196
O6    O     O_R   0.399100 0.490480 0.328260 -0.473196
O7    O     O_R   0.281840 0.479450 0.695690 -0.487454
O8    O     O_R   0.718160 0.520550 0.304310 -0.487454

loop_
_geom_bond_atom_site_label_1
_geom_bond_atom_site_label_2
_ccdc_geom_bond_type
C5    O6    A    
C4    O7    A    
C10   H5    S    
C2    C3    S    
C9    H1    S    
C8    H2    S    
N1    N2    D    
C1    O3    A    
C3    O2    A    
Cu2   N1    S    
Cu1   N2    S    
C1    O1    A    
C7    C9    D    
Cu2   O3    S    
C6    H4    S    
Cu1   O4    S    
Cu2   O7    S    
C2    H6    S    
C2    C10   D    
Cl2   N2    S    
Cu1   O8    S    
C4    O5    A    
Cu1   O1    S    
C4    C6    S    
C5    O8    A    
Cu2   O2    S    
C5    C7    S    
Cu1   O5    S    
C6    C8    D    
Cu2   O6    S    
Cu1   Cu2   S    
Cl1   N1    S    
C3    O4    A    
C1    C10   S    
C8    C9    S    
C7    H3    S    
