data_mof_unit_18880.cif
_audit_creation_date              2013-03-05T15:50:10-0500
_audit_creation_method            fapswitch 2.2
_symmetry_space_group_name_H-M    P1
_symmetry_Int_Tables_number       1
_space_group_crystal_system       triclinic
_cell_length_a                    20.03169
_cell_length_b                    6.871761
_cell_length_c                    18.227875
_cell_angle_alpha                 89.940563
_cell_angle_beta                  104.31734
_cell_angle_gamma                 90.073057
_cell_volume                      2431.18780787

loop_
_atom_site_label
_atom_site_type_symbol
_atom_site_description
_atom_site_fract_x
_atom_site_fract_y
_atom_site_fract_z
_atom_type_partial_charge
O1    O     O_R   0.312200 0.620210 0.189560 -0.575900
O2    O     O_R   0.687800 0.379790 0.810440 -0.575154
O3    O     O_R   0.187800 0.120210 0.310440 -0.575728
O4    O     O_R   0.812200 0.879790 0.689560 -0.575073
O5    O     O_R   0.171590 0.286140 0.165000 -0.592452
O6    O     O_R   0.828410 0.713860 0.835000 -0.590171
O7    O     O_R   0.328410 0.786140 0.335000 -0.592366
O8    O     O_R   0.671590 0.213860 0.665000 -0.591963
C1    C     C_R   0.145663 0.459531 0.143778 0.999475
C2    C     C_R   0.854327 0.540465 0.856236 0.986598
C3    C     C_R   0.354332 0.959576 0.356228 0.997275
C4    C     C_R   0.645668 0.040423 0.643771 0.996664
O9    O     O_R   0.310670 0.290220 0.180540 -0.563016
O10   O     O_R   0.689330 0.709780 0.819460 -0.568444
O11   O     O_R   0.189330 0.790220 0.319460 -0.560515
O12   O     O_R   0.810670 0.209780 0.680540 -0.559752
O13   O     O_R   0.327870 0.124170 0.326080 -0.588644
O14   O     O_R   0.672130 0.875830 0.673920 -0.587778
O15   O     O_R   0.172130 0.624170 0.173920 -0.588156
O16   O     O_R   0.827870 0.375830 0.826080 -0.590264
C5    C     C_R   0.331843 0.459775 0.164864 1.015147
C6    C     C_R   0.668759 0.539914 0.835700 0.998009
C7    C     C_R   0.168243 0.959544 0.335190 1.015308
C8    C     C_R   0.831760 0.040456 0.664814 1.016220
O17   O     O_3   0.255480 0.455050 0.297740 -0.241034
O18   O     O_3   0.744520 0.544950 0.702260 -0.238507
O19   O     O_3   0.244520 0.955050 0.202260 -0.243087
O20   O     O_3   0.755480 0.044950 0.797740 -0.242299
V1    V     V_3+5 0.248980 0.178550 0.241140 1.288443
V2    V     V_3+5 0.751020 0.821450 0.758860 1.285657
V3    V     V_3+5 0.251020 0.678550 0.258860 1.289700
V4    V     V_3+5 0.748980 0.321450 0.741140 1.286256
C9    C     C_R   0.935738 0.164225 0.624415 0.529522
C10   C     C_R   0.064271 0.835770 0.375595 0.529570
C11   C     C_R   0.558296 0.644378 0.867172 0.530177
C12   C     C_R   0.437234 0.340667 0.126109 0.524931
C13   C     C_R   0.880900 0.029204 0.615371 -0.457201
C14   C     C_R   0.119109 0.970792 0.384638 -0.456902
C15   C     C_R   0.618203 0.526511 0.883247 -0.455232
C16   C     C_R   0.380972 0.471220 0.115291 -0.457237
C17   C     C_R   0.873767 0.880575 0.560040 0.314144
C18   C     C_R   0.126248 0.119409 0.439975 0.313986
C19   C     C_R   0.629988 0.396145 0.945407 0.325832
C20   C     C_R   0.372010 0.614321 0.057521 0.314130
C21   C     C_R   0.920586 0.868266 0.512569 -0.153165
C22   C     C_R   0.079431 0.131718 0.487449 -0.153177
C23   C     C_R   0.579267 0.371108 0.987322 -0.142512
C24   C     C_R   0.417484 0.622697 0.008342 -0.154197
C25   C     C_R   0.975441 0.005526 0.522411 0.007991
C26   C     C_R   0.024575 0.994458 0.477606 0.007919
C27   C     C_R   0.522002 0.499619 0.974154 -0.014542
C28   C     C_R   0.473812 0.490529 0.020136 0.001197
C29   C     C_R   0.981522 0.154331 0.577055 0.049558
C30   C     C_R   0.018493 0.845654 0.422961 0.049383
C31   C     C_R   0.512852 0.637872 0.915207 0.060935
C32   C     C_R   0.482558 0.349329 0.078123 0.045397
C33   C     C_R   0.915036 0.723323 0.455585 0.335640
C34   C     C_R   0.084981 0.276660 0.544434 0.335741
C35   C     C_R   0.584421 0.223522 0.043071 0.348078
C36   C     C_R   0.409003 0.758156 0.947504 0.331015
C37   C     C_R   0.964349 0.711726 0.413606 -0.210384
C38   C     C_R   0.035668 0.288256 0.586411 -0.211002
C39   C     C_R   0.537271 0.217106 0.088003 -0.213397
C40   C     C_R   0.456594 0.764847 0.903080 -0.199447
H1    H     H_    0.958193 0.598754 0.371002 0.215229
H2    H     H_    0.041823 0.401232 0.629014 0.215146
H3    H     H_    0.542931 0.102476 0.129951 0.215919
H4    H     H_    0.448093 0.869908 0.857331 0.216049
C41   C     C_1   0.583177 0.027352 0.581566 -0.240876
C42   C     C_1   0.416819 0.972644 0.418438 -0.243275
C43   C     C_1   0.916816 0.527451 0.918450 -0.247127
C44   C     C_1   0.083172 0.472546 0.081568 -0.243908
C45   C     C_1   0.530856 0.010824 0.530178 0.102991
C46   C     C_1   0.469138 0.989169 0.469828 0.102569
C47   C     C_1   0.969135 0.510876 0.969837 0.102532
C48   C     C_1   0.030852 0.489124 0.030182 0.101906
O21   O     O_3   0.947557 0.303593 0.680920 -0.726504
H5    H     H_    0.934895 0.249236 0.725958 0.306257
O22   O     O_3   0.052451 0.696410 0.319088 -0.726719
H6    H     H_    0.065100 0.750785 0.274046 0.305833
O23   O     O_3   0.542853 0.768777 0.805506 -0.739111
H7    H     H_    0.563224 0.717839 0.765176 0.307837
O24   O     O_3   0.450702 0.206449 0.184584 -0.729623
H8    H     H_    0.435685 0.260297 0.228223 0.306696
N1    N     N_R   0.819508 0.740615 0.553879 0.260700
O25   O     O_R   0.755486 0.795183 0.531450 -0.353088
O26   O     O_R   0.833769 0.566616 0.581469 -0.327362
N2    N     N_R   0.180514 0.259348 0.446143 0.260739
O27   O     O_R   0.244533 0.204750 0.468575 -0.353107
O28   O     O_R   0.166265 0.433356 0.418554 -0.327518
N3    N     N_R   0.697514 0.314252 0.972997 0.243578
O29   O     O_R   0.719058 0.174703 0.936571 -0.319967
O30   O     O_R   0.736342 0.373237 0.037295 -0.325444
N4    N     N_R   0.317398 0.753058 0.050664 0.260526
O31   O     O_R   0.253491 0.695950 0.030735 -0.355112
O32   O     O_R   0.331549 0.929976 0.074977 -0.332905
N5    N     N_R   0.857726 0.592540 0.435168 0.263257
O33   O     O_R   0.868727 0.405791 0.436150 -0.361761
O34   O     O_R   0.798185 0.659132 0.397897 -0.282852
N6    N     N_R   0.142289 0.407459 0.564846 0.263226
O35   O     O_R   0.201829 0.340893 0.602135 -0.284444
O36   O     O_R   0.131283 0.594213 0.563837 -0.361876
N7    N     N_R   0.633242 0.067784 0.051023 0.260643
O37   O     O_R   0.630273 0.949793 0.994577 -0.365031
O38   O     O_R   0.668970 0.017407 0.118073 -0.301953
N8    N     N_R   0.350561 0.884208 0.926127 0.263497
O39   O     O_R   0.291118 0.811485 0.891581 -0.284976
O40   O     O_R   0.359979 0.071297 0.923835 -0.351790

loop_
_geom_bond_atom_site_label_1
_geom_bond_atom_site_label_2
_geom_bond_distance
_ccdc_geom_bond_type
C34   C38   1.393484 A    
C4    C41   1.469227 S    
O1    C5    1.289443 A    
O19   V1    1.685120 S    
O13   V1    1.955590 S    
C45   C46   1.444977 S    
O3    C7    1.288884 A    
C1    C44   1.469322 S    
C44   C48   1.226080 T    
O15   V3    1.955434 S    
N5    O33   1.301713 A    
C11   O23   1.384425 S    
C3    C42   1.469225 S    
N1    O25   1.301557 A    
O7    C3    1.319007 A    
C21   C33   1.424096 A    
C26   C30   1.412220 A    
C40   H4    1.083710 S    
O9    V1    2.001765 S    
C14   C18   1.418192 A    
O4    C8    1.288883 A    
N8    O39   1.300939 A    
C12   O24   1.384163 S    
O1    V3    2.006562 S    
O2    V4    2.006558 S    
C18   C22   1.427308 A    
C33   C37   1.393479 A    
O3    V1    2.005409 S    
C42   C46   1.226023 T    
C12   C16   1.416409 A    
C28   C32   1.412833 A    
C1    O15   1.310964 A    
C2    O16   1.310962 A    
O2    C6    1.287330 A    
C41   C45   1.226020 T    
O14   V2    1.955589 S    
C16   C20   1.418756 A    
C2    C43   1.469327 S    
O11   C7    1.294734 A    
O12   C8    1.294738 A    
C22   C34   1.424106 A    
O17   V1    2.151397 S    
C19   N3    1.436726 S    
O10   V2    2.001762 S    
N5    O34   1.301336 A    
C24   C36   1.424833 A    
O5    V1    1.952625 S    
N1    O26   1.301056 A    
C9    C29   1.408127 A    
C39   H3    1.083557 S    
O7    V3    1.952218 S    
C38   H2    1.083791 S    
O19   V3    2.149799 S    
C27   C28   1.427638 A    
O8    V4    1.952221 S    
O20   V4    2.149799 S    
C34   N6    1.432120 S    
N3    O29   1.300298 A    
O18   V4    1.683988 S    
C15   C19   1.417101 A    
O21   H5    0.989915 S    
C11   C31   1.411144 A    
O23   H7    0.989299 S    
C11   C15   1.417764 A    
C47   C48   1.445078 S    
O5    C1    1.319203 A    
C12   C32   1.409047 A    
C10   O22   1.383807 S    
N3    O30   1.300841 A    
C29   C38   1.399563 A    
O24   H8    0.989642 S    
C21   C25   1.424604 A    
O8    C4    1.319014 A    
C33   N5    1.432092 S    
C31   C40   1.399676 A    
N6    O36   1.301746 A    
C8    C13   1.492068 S    
C32   C39   1.401349 A    
O9    C5    1.295020 A    
N7    O38   1.301133 A    
N4    O32   1.301111 A    
O6    V2    1.952628 S    
N2    O28   1.301081 A    
C10   C30   1.408119 A    
C18   N2    1.433932 S    
C36   N8    1.431406 S    
O16   V4    1.955433 S    
C3    O13   1.310888 A    
C10   C14   1.415235 A    
O17   V3    1.683987 S    
O6    C2    1.319215 A    
C23   C27   1.421031 A    
O11   V3    2.003846 S    
C30   C37   1.399550 A    
O12   V4    2.003849 S    
C7    C14   1.492058 S    
C17   N1    1.433931 S    
C22   C26   1.424610 A    
C35   C39   1.395432 A    
C36   C40   1.395816 A    
C35   N7    1.433509 S    
O10   C6    1.295519 A    
O20   V2    1.685120 S    
C43   C47   1.226086 T    
C9    O21   1.383802 S    
C5    C16   1.493552 S    
N8    O40   1.301283 A    
C25   C29   1.412217 A    
C6    C15   1.489599 S    
N6    O35   1.301367 A    
C27   C31   1.411244 A    
C13   C17   1.418188 A    
N4    O31   1.301457 A    
C9    C13   1.415243 A    
C20   N4    1.433912 S    
C23   C35   1.420593 A    
O22   H6    0.989904 S    
C37   H1    1.083787 S    
C24   C28   1.423550 A    
N2    O27   1.301560 A    
C25   C26   1.428077 A    
C4    O14   1.310887 A    
N7    O37   1.300347 A    
C17   C21   1.427303 A    
C19   C23   1.424379 A    
O4    V2    2.005412 S    
C20   C24   1.428396 A    
O18   V2    2.151397 S    
