data_mof_unit_56492.cif
_audit_creation_date              2012-12-10T19:06:24-0500
_audit_creation_method            fapswitch 2.2
_symmetry_space_group_name_H-M    P1
_symmetry_Int_Tables_number       1
_space_group_crystal_system       triclinic
_cell_length_a                    23.487838
_cell_length_b                    10.81529
_cell_length_c                    9.576184
_cell_angle_alpha                 89.564804
_cell_angle_beta                  89.195173
_cell_angle_gamma                 90.939886
_cell_volume                      2431.9749911

loop_
_atom_site_label
_atom_site_type_symbol
_atom_type_description
_atom_site_fract_x
_atom_site_fract_y
_atom_site_fract_z
_atom_type_partial_charge
C1    C     C_R   0.500736 0.262333 0.500299 0.794697
C2    C     C_R   0.971260 0.332115 0.317509 -0.162482
C3    C     C_R   0.030662 0.331661 0.319021 -0.167167
C4    C     C_R   0.060644 0.402798 0.416645 -0.012009
C5    C     C_R   0.030332 0.474430 0.513932 -0.020038
C6    C     C_R   0.059963 0.546114 0.612357 -0.014056
C7    C     C_R   0.029335 0.617324 0.708732 -0.167119
C8    C     C_R   0.969968 0.618221 0.706699 -0.162047
C9    C     C_R   0.120360 0.405181 0.419052 0.522168
C10   C     C_R   0.119669 0.545538 0.610691 0.530877
C11   C     C_R   0.236768 0.571329 0.428770 -0.162029
C12   C     C_R   0.391155 0.501382 0.500757 0.798412
C13   C     C_R   0.296268 0.582591 0.424109 0.052040
C14   C     C_R   0.328688 0.498569 0.503122 -0.069397
C15   C     C_R   0.301011 0.408062 0.586181 -0.290514
C16   C     C_R   0.241539 0.398770 0.592615 0.139562
C17   C     C_R   0.209409 0.480820 0.511720 0.321288
C18   C     C_R   0.758595 0.439029 0.618461 -0.096736
C19   C     C_R   0.699369 0.444540 0.616717 -0.216774
C20   C     C_R   0.671588 0.492150 0.499444 -0.036157
C21   C     C_R   0.704139 0.533004 0.383561 -0.232990
C22   C     C_R   0.763435 0.528249 0.385692 -0.094046
C23   C     C_R   0.501661 0.737521 0.499563 0.793109
C24   C     C_R   0.790957 0.481509 0.503308 0.347384
C25   C     C_R   0.503841 0.062290 0.625471 0.137840
C26   C     C_R   0.506216 0.129209 0.500341 -0.103441
C27   C     C_R   0.517153 0.065968 0.375122 -0.208742
C28   C     C_R   0.517886 0.937062 0.374735 -0.230870
C29   C     C_R   0.507673 0.870723 0.499514 -0.092787
C30   C     C_R   0.504824 0.935096 0.625038 0.132833
C31   C     C_3   0.462300 0.923814 0.741944 -0.457497
C32   C     C_3   0.460620 0.063918 0.741465 -0.496712
C33   C     C_R   0.532516 0.584088 0.071348 0.239573
C34   C     C_R   0.609025 0.498460 0.499357 0.794847
C35   C     C_R   0.462668 0.428855 0.078460 -0.087983
C36   C     C_R   0.461201 0.430151 0.930198 0.258810
C37   C     C_R   0.533023 0.582834 0.924377 0.166980
C38   C     C_3   0.596047 0.598651 0.915509 -0.462205
C39   C     C_3   0.595722 0.601234 0.074491 -0.088143
C40   C     C_R   0.880343 0.548590 0.603213 0.533869
C41   C     C_R   0.880888 0.406702 0.413049 0.533743
C42   C     C_R   0.940611 0.403957 0.413358 -0.013206
C43   C     C_R   0.970259 0.475171 0.512080 -0.018919
C44   C     C_R   0.939993 0.547729 0.608424 -0.013034
Cu1   Cu    Cu3+1 0.500000 0.499980 0.640670 0.936712
Cu2   Cu    Cu3+1 0.500000 0.500020 0.359330 0.932937
H1    H     H_    0.949487 0.276475 0.240618 0.188111
H2    H     H_    0.675333 0.410033 0.706431 0.147760
H3    H     H_    0.684015 0.570550 0.292482 0.157466
H4    H     H_    0.788066 0.561935 0.296425 0.149763
H5    H     H_    0.522486 0.115249 0.276806 0.168828
H6    H     H_    0.523207 0.889961 0.276207 0.165436
H7    H     H_    0.421567 0.879379 0.709760 0.196072
H8    H     H_    0.481187 0.884614 0.838113 0.197785
H9    H     H_    0.418923 0.100042 0.707566 0.188705
H10   H     H_    0.477898 0.105609 0.838138 0.209277
H11   H     H_    0.432991 0.371406 0.138551 0.154460
H12   H     H_    0.052975 0.275776 0.243216 0.184196
H13   H     H_    0.617350 0.515691 0.873575 0.190417
H14   H     H_    0.608953 0.687339 0.863699 0.207967
H15   H     H_    0.617621 0.520994 0.121324 0.185602
H16   H     H_    0.051115 0.673052 0.785538 0.186575
H17   H     H_    0.947691 0.674588 0.782083 0.188502
H18   H     H_    0.211012 0.634867 0.369802 0.140081
H19   H     H_    0.325933 0.342800 0.644884 0.145250
H20   H     H_    0.779414 0.401755 0.709375 0.149024
N1    N     N_R   0.852052 0.478697 0.506644 -0.468288
N2    N     N_R   0.148404 0.475890 0.514970 -0.466802
N3    N     N_R   0.500360 0.500930 0.147930 -0.219029
N4    N     N_R   0.500360 0.500890 0.852020 -0.183135
O1    O     O_R   0.500000 0.319640 0.618810 -0.583353
O2    O     O_2   0.851828 0.337367 0.320669 -0.539795
O3    O     O_2   0.150243 0.337901 0.326259 -0.559745
O4    O     O_2   0.148867 0.614543 0.703112 -0.556783
O5    O     O_R   0.500010 0.319680 0.381230 -0.582873
O6    O     O_R   0.417880 0.499940 0.618820 -0.579835
O7    O     O_R   0.417880 0.499980 0.381240 -0.583176
O8    O     O_R   0.499990 0.680320 0.618770 -0.575341
O9    O     O_R   0.500000 0.680360 0.381190 -0.580099
O10   O     O_R   0.582120 0.500020 0.618760 -0.580839
O11   O     O_R   0.582120 0.500060 0.381180 -0.583036
O12   O     O_2   0.850844 0.619806 0.692879 -0.540571
C45   C     C_3   0.412049 0.361212 0.866582 -0.832022
H21   H     H_    0.423846 0.312736 0.770845 0.263967
H22   H     H_    0.394398 0.289082 0.939031 0.182326
H23   H     H_    0.377366 0.426965 0.845966 0.233039
C46   C     C_3   0.613644 0.726591 0.134308 -0.833614
H24   H     H_    0.589673 0.803183 0.085746 0.227665
H25   H     H_    0.605629 0.727108 0.248776 0.247244
H26   H     H_    0.659844 0.742879 0.114417 0.241736
C47   C     C_3   0.323078 0.688397 0.340303 -0.400822
C48   C     C_3   0.345154 0.790646 0.436700 -0.342020
C49   C     C_3   0.368988 0.900753 0.352847 -0.831382
H27   H     H_    0.403965 0.870912 0.282203 0.260935
H28   H     H_    0.334964 0.942867 0.289649 0.252985
H29   H     H_    0.385976 0.971657 0.425238 0.247799
H30   H     H_    0.309830 0.822756 0.505170 0.227599
H31   H     H_    0.379161 0.754525 0.504302 0.206376
H32   H     H_    0.357792 0.654611 0.271561 0.220305
H33   H     H_    0.291125 0.729011 0.269395 0.196706
C50   C     C_3   0.213772 0.301025 0.685929 -0.394726
C51   C     C_3   0.220231 0.334579 0.840334 -0.353203
C52   C     C_3   0.190892 0.238505 0.935396 -0.794100
H34   H     H_    0.144565 0.233439 0.913820 0.256134
H35   H     H_    0.209731 0.146110 0.918989 0.249242
H36   H     H_    0.196629 0.264934 0.046196 0.275951
H37   H     H_    0.266095 0.340270 0.867140 0.216223
H38   H     H_    0.201066 0.426221 0.860036 0.260837
H39   H     H_    0.167817 0.289318 0.662877 0.209351
H40   H     H_    0.233941 0.210547 0.665239 0.196307

loop_
_geom_bond_atom_site_label_1
_geom_bond_atom_site_label_2
_ccdc_geom_bond_type
C46   H24   S    
C49   H27   S    
Cu1   O1    S    
C28   H6    S    
C41   C42   A    
C19   C20   A    
C39   C46   S    
C21   H3    S    
C48   H31   S    
C7    C8    A    
C41   N1    A    
Cu1   Cu2   S    
C26   C27   A    
C33   C39   S    
Cu1   O6    S    
C18   C24   A    
C23   C29   S    
C28   C29   A    
C37   C38   S    
C30   C31   S    
C36   C45   S    
C50   H39   S    
C15   C16   A    
C15   H19   S    
C18   C19   A    
Cu2   N3    S    
C24   N1    S    
C34   O10   A    
Cu2   O9    S    
C35   C36   A    
C27   H5    S    
C16   C17   A    
C40   N1    A    
C51   H38   S    
Cu1   O8    S    
C10   O4    S    
C34   O11   A    
C47   H33   S    
C52   H36   S    
C32   H9    S    
C33   N3    A    
C22   H4    S    
C20   C34   S    
C25   C32   S    
C5    C43   A    
C49   H28   S    
C21   C22   A    
C13   C47   S    
C9    O3    S    
Cu2   O5    S    
C36   N4    A    
C48   H30   S    
C38   C39   S    
C39   H15   S    
C1    O5    A    
C50   C51   S    
C40   O12   S    
C31   H8    S    
C11   H18   S    
C47   C48   S    
C19   H2    S    
C50   H40   S    
C33   C37   A    
C43   C44   A    
C7    H16   S    
C29   C30   A    
Cu2   O11   S    
C31   C32   S    
C12   O7    A    
C51   H37   S    
C52   H35   S    
C1    O1    A    
C31   H7    S    
C41   O2    S    
C38   H14   S    
C45   H22   S    
C12   C14   S    
C49   H29   S    
C46   H25   S    
C1    C26   S    
C22   C24   A    
C45   H21   S    
C42   C43   A    
C3    C4    A    
C52   H34   S    
C25   C30   A    
C11   C17   A    
C17   N2    S    
Cu1   N4    S    
C8    C44   A    
C4    C5    A    
C6    C10   A    
Cu2   O7    S    
C6    C7    A    
C10   N2    A    
C2    H1    S    
C18   H20   S    
C35   H11   S    
C23   O9    A    
C12   O6    A    
C2    C3    A    
C25   C26   A    
C9    N2    A    
C11   C13   A    
C5    C6    A    
C2    C42   A    
C48   C49   S    
Cu1   O10   S    
C23   O8    A    
C51   C52   S    
C8    H17   S    
C38   H13   S    
C3    H12   S    
C16   C50   S    
C40   C44   A    
C45   H23   S    
C20   C21   A    
C35   N3    A    
C46   H26   S    
C27   C28   A    
C14   C15   A    
C47   H32   S    
C4    C9    A    
C13   C14   A    
C32   H10   S    
C37   N4    A    
