data_mof_unit_47969.cif
_audit_creation_date              2013-03-05T15:52:18-0500
_audit_creation_method            fapswitch 2.2
_symmetry_space_group_name_H-M    P1
_symmetry_Int_Tables_number       1
_space_group_crystal_system       triclinic
_cell_length_a                    14.713746
_cell_length_b                    15.735671
_cell_length_c                    10.011033
_cell_angle_alpha                 92.436161
_cell_angle_beta                  91.389932
_cell_angle_gamma                 89.952145
_cell_volume                      2315.08484432

loop_
_atom_site_label
_atom_site_type_symbol
_atom_site_description
_atom_site_fract_x
_atom_site_fract_y
_atom_site_fract_z
_atom_type_partial_charge
O1    O     O_R   0.408390 0.908380 0.614690 -0.620576
O2    O     O_R   0.408390 0.091620 0.614690 -0.633485
O3    O     O_R   0.908390 0.408380 0.614690 -0.653980
O4    O     O_R   0.908390 0.591620 0.614690 -0.600924
O5    O     O_R   0.408370 0.908380 0.385360 -0.668985
O6    O     O_R   0.408370 0.091620 0.385360 -0.641663
O7    O     O_R   0.908370 0.408380 0.385360 -0.614636
O8    O     O_R   0.908370 0.591620 0.385360 -0.658390
C1    C     C_R   0.375479 0.884270 0.495581 0.889062
C2    C     C_R   0.377281 0.116809 0.499174 0.794103
C3    C     C_R   0.882401 0.378542 0.496309 0.844278
C4    C     C_R   0.881734 0.621492 0.502521 0.839849
Zn1   Zn    Zn3+2 0.500010 0.000000 0.653130 1.019746
Zn2   Zn    Zn3+2 0.000010 0.500000 0.653130 0.991186
Zn3   Zn    Zn3+2 0.499980 0.000000 0.346870 0.993330
Zn4   Zn    Zn3+2 0.999980 0.500000 0.346870 0.986285
O9    O     O_R   0.591620 0.091610 0.614640 -0.551260
O10   O     O_R   0.591620 0.908390 0.614640 -0.564610
O11   O     O_R   0.091620 0.591610 0.614640 -0.571322
O12   O     O_R   0.091620 0.408390 0.614640 -0.643155
O13   O     O_R   0.591610 0.091610 0.385310 -0.586205
O14   O     O_R   0.591610 0.908390 0.385310 -0.572402
O15   O     O_R   0.091610 0.591610 0.385310 -0.603021
O16   O     O_R   0.091610 0.408390 0.385310 -0.558390
C5    C     C_R   0.627417 0.112896 0.503103 0.890104
C6    C     C_R   0.616169 0.877294 0.497613 0.968918
C7    C     C_R   0.112196 0.625920 0.503399 0.919791
C8    C     C_R   0.126692 0.387008 0.500111 0.890691
C9    C     C_R   0.441498 0.283710 0.453845 -0.133865
C10   C     C_R   0.203295 0.925218 0.618415 -0.160381
C11   C     C_R   0.741625 0.644690 0.715527 -0.139835
C12   C     C_R   0.936616 0.229957 0.634025 -0.162149
H1    H     H_    0.488894 0.232159 0.439601 0.152352
H2    H     H_    0.246499 0.977134 0.595695 0.128095
H3    H     H_    0.803272 0.630611 0.769253 0.218318
H4    H     H_    0.987914 0.277846 0.624935 0.176877
C13   C     C_R   0.473413 0.365693 0.438470 -0.226617
C14   C     C_R   0.123876 0.943762 0.684734 -0.202219
C15   C     C_R   0.659640 0.630556 0.778191 -0.278651
C16   C     C_R   0.961770 0.160237 0.705439 -0.248692
H5    H     H_    0.543731 0.376127 0.414299 0.150513
H6    H     H_    0.106794 0.008761 0.712693 0.152092
H7    H     H_    0.657777 0.603226 0.874770 0.191094
H8    H     H_    0.028865 0.156947 0.751823 0.166751
C17   C     C_R   0.578796 0.654578 0.717548 -0.196574
C18   C     C_R   0.900327 0.095375 0.718378 -0.161253
C19   C     C_R   0.417100 0.434444 0.466678 -0.100762
C20   C     C_R   0.066787 0.878701 0.716721 -0.159783
H9    H     H_    0.515185 0.635984 0.759951 0.208836
H10   H     H_    0.919090 0.042813 0.779882 0.168092
H11   H     H_    0.446447 0.497659 0.473469 0.192782
H12   H     H_    0.008842 0.893822 0.778079 0.182225
C21   C     C_R   0.580789 0.706911 0.608005 0.313032
C22   C     C_R   0.812708 0.100089 0.661285 0.349889
C23   C     C_R   0.328022 0.421137 0.507732 0.353985
C24   C     C_R   0.084881 0.794397 0.674871 0.307076
C25   C     C_R   0.665876 0.734121 0.561378 -0.043356
C26   C     C_R   0.785832 0.168914 0.581560 -0.030022
C27   C     C_R   0.289694 0.338411 0.495935 -0.012120
C28   C     C_R   0.159213 0.776036 0.587277 -0.051982
C29   C     C_R   0.349147 0.268974 0.481551 0.070810
C30   C     C_R   0.221849 0.842754 0.567825 0.037445
C31   C     C_R   0.743202 0.688341 0.595575 0.050673
C32   C     C_R   0.849903 0.234932 0.569999 0.039316
C33   C     C_R   0.314443 0.186245 0.492672 -0.119054
C34   C     C_R   0.295975 0.829402 0.482596 -0.108232
C35   C     C_R   0.818955 0.692037 0.511123 -0.094799
C36   C     C_R   0.828608 0.302445 0.487378 -0.107200
C37   C     C_R   0.220577 0.169823 0.476225 0.193763
C38   C     C_R   0.290351 0.763971 0.382840 0.270151
C39   C     C_R   0.828258 0.760045 0.425600 0.180716
C40   C     C_R   0.756265 0.295818 0.394812 0.162411
H13   H     H_    0.771835 0.879564 0.374177 0.210212
H14   H     H_    0.632282 0.235566 0.343110 0.167563
H15   H     H_    0.089368 0.229368 0.470347 0.142376
H16   H     H_    0.236976 0.644244 0.332247 0.223000
C41   C     C_R   0.760194 0.820854 0.423675 -0.108353
C42   C     C_R   0.690221 0.236412 0.412150 -0.245313
C43   C     C_R   0.161772 0.238850 0.482422 -0.196409
C44   C     C_R   0.233122 0.697721 0.402785 -0.095018
C45   C     C_R   0.678930 0.807566 0.489325 -0.092458
C46   C     C_R   0.701154 0.174725 0.507148 -0.112248
C47   C     C_R   0.195006 0.321471 0.499209 -0.109856
C48   C     C_R   0.171245 0.699574 0.506896 -0.130596
C49   C     C_R   0.336975 0.016900 0.136996 -0.106606
C50   C     C_R   0.835141 0.498815 0.134737 -0.088456
H17   H     H_    0.332034 0.001938 0.239380 0.180542
H18   H     H_    0.830772 0.501703 0.240990 0.211140
C51   C     C_R   0.256942 0.036847 0.069377 -0.183254
C52   C     C_R   0.753766 0.487021 0.063028 -0.201483
H19   H     H_    0.193960 0.043054 0.122594 0.155861
H20   H     H_    0.690176 0.484382 0.114786 0.158619
C53   C     C_R   0.257352 0.045093 0.932441 -0.145437
C54   C     C_R   0.754523 0.474305 0.925519 -0.224854
H21   H     H_    0.194859 0.059942 0.880192 0.138923
H22   H     H_    0.691549 0.461298 0.870286 0.170384
C55   C     C_R   0.336768 0.029512 0.862325 -0.092989
C56   C     C_R   0.834762 0.484136 0.857478 -0.131947
H23   H     H_    0.330133 0.023462 0.757697 0.183327
H24   H     H_    0.827484 0.486999 0.751875 0.196194
C57   C     C_R   0.420307 0.015853 0.927906 0.081596
C58   C     C_R   0.918651 0.495451 0.925756 0.135934
C59   C     C_R   0.419931 0.011711 0.071081 0.082844
C60   C     C_R   0.918735 0.499816 0.069726 0.063012
N1    N     N_R   0.498810 0.000000 0.142780 -0.189535
N2    N     N_R   0.998810 0.500000 0.142780 -0.192723
C61   C     C_R   0.576050 0.984549 0.074387 0.285558
C62   C     C_R   0.077637 0.491823 0.073847 0.303036
C63   C     C_R   0.572736 0.973574 0.932225 0.223982
C64   C     C_R   0.078179 0.501542 0.932913 0.166996
N3    N     N_R   0.498740 0.000000 0.857170 -0.140576
N4    N     N_R   0.998740 0.500000 0.857170 -0.151716
N5    N     N_2   0.187726 0.085138 0.446315 -0.328995
H25   H     H_    0.233028 0.044953 0.399043 0.198850
C65   C     C_3   0.094921 0.071123 0.398756 -0.775008
H26   H     H_    0.083907 0.002159 0.375652 0.246998
H27   H     H_    0.081399 0.106072 0.306226 0.245954
H28   H     H_    0.046549 0.090944 0.477281 0.258963
N6    N     N_2   0.335934 0.763950 0.258343 -0.277751
H29   H     H_    0.400436 0.788114 0.255556 0.308101
C66   C     C_3   0.279053 0.788647 0.146610 -0.800608
H30   H     H_    0.317880 0.782861 0.052879 0.256126
H31   H     H_    0.256380 0.855512 0.162428 0.239462
H32   H     H_    0.218316 0.746933 0.135242 0.250156
N7    N     N_2   0.909922 0.774093 0.355767 -0.312395
H33   H     H_    0.967782 0.746567 0.394791 0.218066
C67   C     C_3   0.901602 0.764387 0.211652 -0.654973
H34   H     H_    0.967903 0.778647 0.166837 0.234144
H35   H     H_    0.850253 0.809238 0.172514 0.278110
H36   H     H_    0.881740 0.698141 0.181115 0.246716
N8    N     N_2   0.756077 0.339155 0.273329 -0.312468
H37   H     H_    0.691932 0.357944 0.242940 0.210739
C68   C     C_3   0.801458 0.290327 0.168163 -0.651447
H38   H     H_    0.797715 0.323755 0.073113 0.241698
H39   H     H_    0.768317 0.227192 0.150152 0.260999
H40   H     H_    0.874337 0.281030 0.195790 0.249110
N9    N     N_2   0.638842 0.920245 0.872564 -0.188529
H41   H     H_    0.703691 0.930018 0.911428 0.306439
C69   C     C_3   0.615079 0.831607 0.874881 -0.693272
H42   H     H_    0.670914 0.794508 0.829546 0.264242
H43   H     H_    0.550141 0.819509 0.818548 0.246049
H44   H     H_    0.607124 0.811071 0.978661 0.242521
N10   N     N_2   0.162933 0.510657 0.871024 -0.243216
H45   H     H_    0.159802 0.505939 0.769325 0.318480
C70   C     C_3   0.222981 0.577716 0.924883 -0.468435
H46   H     H_    0.241666 0.620649 0.844594 0.255576
H47   H     H_    0.286093 0.548964 0.965732 0.263050
H48   H     H_    0.190961 0.617007 0.005655 0.201089
N11   N     N_R   0.498593 0.721009 0.534120 0.170797
O17   O     O_R   0.421075 0.706375 0.588529 -0.397825
O18   O     O_R   0.502087 0.721943 0.404712 -0.449941
N12   N     N_R   0.749328 0.042749 0.708164 0.183703
O19   O     O_R   0.705896 0.069568 0.813240 -0.408858
O20   O     O_R   0.764505 0.961864 0.687797 -0.445042
N13   N     N_R   0.296360 0.479500 0.607829 0.154835
O21   O     O_R   0.294455 0.559877 0.583777 -0.402172
O22   O     O_R   0.311351 0.458000 0.730338 -0.409459
N14   N     N_R   0.031802 0.731151 0.734723 0.202040
O23   O     O_R   0.944528 0.743142 0.741131 -0.430019
O24   O     O_R   0.070710 0.688382 0.828393 -0.414634
N15   N     N_R   0.659554 0.972629 0.146959 0.220492
O25   O     O_R   0.709076 0.038425 0.183029 -0.390624
O26   O     O_R   0.694295 0.896965 0.153983 -0.466535
N16   N     N_R   0.158073 0.460842 0.138813 0.229015
O27   O     O_R   0.203584 0.508656 0.225202 -0.414314
O28   O     O_R   0.193930 0.389596 0.095432 -0.371356

loop_
_geom_bond_atom_site_label_1
_geom_bond_atom_site_label_2
_geom_bond_distance
_ccdc_geom_bond_type
N14   O24   1.298835 A    
C23   C27   1.418267 A    
N13   O22   1.299738 A    
C69   H43   1.110073 S    
C58   N4    1.381581 A    
O10   C6    1.309176 A    
C44   C48   1.399808 A    
C10   H2    1.070930 S    
C50   C60   1.405852 A    
C60   N2    1.371525 A    
C70   H46   1.111421 S    
C34   C38   1.404631 A    
Zn2   N4    2.043190 S    
C62   N16   1.431777 S    
C37   N5    1.434981 S    
N15   O26   1.299300 A    
Zn1   O10   2.004535 S    
C13   H5    1.082486 S    
C32   C36   1.404455 A    
C63   N9    1.411114 S    
N16   O27   1.296110 A    
C27   C47   1.420121 A    
C14   H6    1.079945 S    
N11   O18   1.298484 A    
C58   C60   1.439977 A    
C69   H44   1.109964 S    
C50   H18   1.066239 S    
C35   C39   1.407422 A    
C54   C56   1.389249 A    
C65   H26   1.111093 S    
C5    C46   1.456571 S    
C9    H1    1.076453 S    
C10   C14   1.382773 A    
C28   C30   1.420269 A    
O2    Zn1   2.015602 S    
C1    C34   1.454485 S    
C66   H32   1.110027 S    
C24   N14   1.426229 S    
C63   N3    1.381666 A    
C55   H23   1.049892 S    
O6    Zn3   2.004647 S    
C52   H20   1.082151 S    
Zn3   O14   2.015586 S    
N10   C70   1.454267 S    
C61   N15   1.428470 S    
C11   C15   1.395415 A    
C65   H27   1.110992 S    
C68   H40   1.112001 S    
C40   C42   1.368118 A    
H16   C44   1.077640 S    
C25   C31   1.389724 A    
O15   C7    1.307458 A    
O8    C4    1.313531 A    
C51   H19   1.082363 S    
O11   C7    1.300409 A    
C16   H8    1.082885 S    
C14   C20   1.377899 A    
C49   C59   1.402233 A    
Zn4   N2    2.042807 S    
C15   C17   1.382071 A    
C49   H17   1.065572 S    
C17   C21   1.399993 A    
O8    Zn4   2.004647 S    
C8    C47   1.439377 S    
C21   N11   1.424465 S    
C61   C63   1.425977 A    
C70   H47   1.109440 S    
C52   C54   1.382948 A    
C9    C29   1.414714 A    
N6    C66   1.446951 S    
C26   C32   1.413671 A    
C53   H21   1.077217 S    
C4    C35   1.444626 S    
C31   C35   1.417928 A    
C27   C29   1.403910 A    
C66   H31   1.109608 S    
C30   C34   1.411116 A    
C38   C44   1.364929 A    
Zn2   O12   2.004535 S    
O1    C1    1.316847 A    
C12   C32   1.417467 A    
C50   C52   1.389509 A    
C49   C51   1.386454 A    
C22   N12   1.400939 S    
O12   C8    1.299894 A    
C56   C58   1.404128 A    
C24   C28   1.439820 A    
C23   N13   1.417145 S    
C67   H35   1.109363 S    
O5    C1    1.287435 A    
C11   C31   1.409207 A    
C68   H38   1.106859 S    
N1    C61   1.357440 A    
C42   C46   1.394053 A    
O7    C3    1.290483 A    
Zn3   O13   1.993679 S    
C38   N6    1.429585 S    
C36   C40   1.395258 A    
C65   H28   1.108033 S    
C18   C22   1.400689 A    
C17   H9    1.082638 S    
C59   N1    1.366257 A    
C54   H22   1.082600 S    
N9    C69   1.439507 S    
C66   H30   1.110765 S    
O3    Zn2   1.993695 S    
O7    Zn4   2.029670 S    
N12   O20   1.300418 A    
C6    C45   1.434511 S    
C56   H24   1.062885 S    
C10   C30   1.401825 A    
O14   C6    1.288701 A    
N7    H33   1.030836 S    
C25   C45   1.403862 A    
C37   C43   1.388384 A    
O4    C4    1.288006 A    
C16   C18   1.376340 A    
C67   H34   1.110615 S    
O2    C2    1.310326 A    
C53   C55   1.393881 A    
C39   C41   1.384907 A    
C70   H48   1.110662 S    
C3    C36   1.434361 S    
C69   H42   1.102937 S    
C40   N8    1.419315 S    
C19   C23   1.401625 A    
N5    H25   1.028236 S    
C22   C26   1.422583 A    
C2    C33   1.433297 S    
C20   C24   1.401343 A    
O13   C5    1.310316 A    
C7    C48   1.447813 S    
C21   C25   1.419456 A    
Zn2   O11   2.029555 S    
O16   C8    1.305488 A    
N8    C68   1.452281 S    
O6    C2    1.284976 A    
C19   H11   1.083566 S    
N6    H29   1.024149 S    
C12   H4    1.075158 S    
Zn4   O15   1.993679 S    
N9    H41   1.030825 S    
C18   H10   1.083549 S    
C57   C59   1.437718 A    
Zn1   O9    2.029555 S    
O9    C5    1.302704 A    
Zn3   N1    2.042807 S    
C26   C46   1.440909 A    
N10   H45   1.017587 S    
C67   H36   1.111130 S    
Zn1   N3    2.043190 S    
O4    Zn2   2.015602 S    
N15   O25   1.299992 A    
N11   O17   1.300710 A    
C43   C47   1.391443 A    
C28   C48   1.432049 A    
N14   O23   1.300485 A    
N2    C62   1.367137 A    
C33   C37   1.409716 A    
C57   N3    1.385517 A    
N16   O28   1.300987 A    
C62   C64   1.425819 A    
C13   C19   1.385835 A    
C11   H3    1.071094 S    
C12   C16   1.380161 A    
C51   C53   1.382637 A    
C64   N10   1.415952 S    
C64   N4    1.377404 A    
O5    Zn3   2.029670 S    
O3    C3    1.304681 A    
C29   C33   1.408550 A    
C20   H12   1.083273 S    
O1    Zn1   1.993695 S    
N12   O19   1.299012 A    
C15   H7    1.075720 S    
Zn4   O16   2.015586 S    
C41   C45   1.398426 A    
H14   C42   1.084117 S    
C9    C13   1.389189 A    
N13   O21   1.297664 A    
N7    C67   1.446562 S    
C68   H39   1.112924 S    
H13   C41   1.082424 S    
C39   N7    1.426799 S    
H15   C43   1.079029 S    
C55   C57   1.400185 A    
N8    H37   1.031508 S    
N5    C65   1.449132 S    
