data_mof_unit_28989.cif
_audit_creation_date              2013-03-05T15:50:12-0500
_audit_creation_method            fapswitch 2.2
_symmetry_space_group_name_H-M    P1
_symmetry_Int_Tables_number       1
_space_group_crystal_system       triclinic
_cell_length_a                    14.819938
_cell_length_b                    15.956493
_cell_length_c                    9.587462
_cell_angle_alpha                 90.000028
_cell_angle_beta                  89.079234
_cell_angle_gamma                 90.00004
_cell_volume                      2266.89500776

loop_
_atom_site_label
_atom_site_type_symbol
_atom_site_description
_atom_site_fract_x
_atom_site_fract_y
_atom_site_fract_z
_atom_type_partial_charge
O1    O     O_R   0.409820 0.909830 0.618810 -0.568244
O2    O     O_R   0.409820 0.090170 0.618810 -0.568248
O3    O     O_R   0.909820 0.409830 0.618810 -0.568244
O4    O     O_R   0.909820 0.590170 0.618810 -0.568250
O5    O     O_R   0.409840 0.909830 0.381240 -0.556965
O6    O     O_R   0.409840 0.090170 0.381240 -0.556965
O7    O     O_R   0.909840 0.409830 0.381240 -0.556963
O8    O     O_R   0.909840 0.590170 0.381240 -0.556966
C1    C     C_R   0.381988 0.879733 0.502173 0.826909
C2    C     C_R   0.381988 0.120267 0.502172 0.826908
C3    C     C_R   0.881988 0.379734 0.502173 0.826906
C4    C     C_R   0.881989 0.620267 0.502172 0.826905
Cu1   Cu    Cu3+1 0.499990 0.000000 0.640660 0.959073
Cu2   Cu    Cu3+1 0.999990 0.500000 0.640660 0.959074
Cu3   Cu    Cu3+1 0.500010 1.000000 0.359340 0.971846
Cu4   Cu    Cu3+1 0.000010 0.500000 0.359340 0.971847
O9    O     O_R   0.590170 0.090170 0.618760 -0.599190
O10   O     O_R   0.590170 0.909830 0.618760 -0.599176
O11   O     O_R   0.090170 0.590170 0.618760 -0.599189
O12   O     O_R   0.090170 0.409830 0.618760 -0.599172
O13   O     O_R   0.590190 0.090180 0.381190 -0.577133
O14   O     O_R   0.590190 0.909820 0.381190 -0.577136
O15   O     O_R   0.090190 0.590180 0.381190 -0.577133
O16   O     O_R   0.090190 0.409820 0.381190 -0.577138
C5    C     C_R   0.610312 0.125476 0.497934 0.760745
C6    C     C_R   0.610313 0.874524 0.497933 0.760747
C7    C     C_R   0.110311 0.625476 0.497934 0.760746
C8    C     C_R   0.110312 0.374524 0.497933 0.760747
H1    H     H_    0.322037 0.201855 0.283567 0.199155
H2    H     H_    0.322027 0.798152 0.283569 0.199156
H3    H     H_    0.822035 0.701854 0.283568 0.199156
H4    H     H_    0.822029 0.298149 0.283570 0.199157
C9    C     C_R   0.276822 0.175109 0.766321 0.181743
C10   C     C_R   0.276830 0.824890 0.766329 0.181745
C11   C     C_R   0.776825 0.675109 0.766322 0.181746
C12   C     C_R   0.776825 0.324895 0.766328 0.181745
C13   C     C_R   0.205707 0.163759 0.861701 -0.175555
C14   C     C_R   0.205720 0.836234 0.861717 -0.175552
C15   C     C_R   0.705711 0.663758 0.861703 -0.175554
C16   C     C_R   0.705713 0.336242 0.861713 -0.175553
H5    H     H_    0.218180 0.138733 0.964368 0.175338
H6    H     H_    0.218197 0.861259 0.964383 0.175338
H7    H     H_    0.718185 0.638732 0.964369 0.175338
H8    H     H_    0.718187 0.361270 0.964378 0.175339
C17   C     C_R   0.620609 0.694314 0.832262 -0.149865
C18   C     C_R   0.620613 0.305676 0.832281 -0.149874
C19   C     C_R   0.120604 0.194313 0.832257 -0.149862
C20   C     C_R   0.120618 0.805671 0.832286 -0.149873
H9    H     H_    0.566063 0.686420 0.907363 0.179807
H10   H     H_    0.566069 0.313565 0.907388 0.179807
H11   H     H_    0.066056 0.186419 0.907357 0.179806
H12   H     H_    0.066075 0.813557 0.907395 0.179808
C21   C     C_R   0.608401 0.741237 0.711717 -0.111656
C22   C     C_R   0.608406 0.258753 0.711737 -0.111667
C23   C     C_R   0.108395 0.241232 0.711709 -0.111648
C24   C     C_R   0.108407 0.758752 0.711739 -0.111659
H13   H     H_    0.542743 0.766295 0.690081 0.177817
H14   H     H_    0.542749 0.233688 0.690114 0.177837
H15   H     H_    0.042733 0.266286 0.690065 0.177802
H16   H     H_    0.042747 0.733690 0.690113 0.177831
C25   C     C_R   0.678502 0.750142 0.612646 0.031549
C26   C     C_R   0.678503 0.249857 0.612654 0.031548
C27   C     C_R   0.178499 0.250139 0.612641 0.031549
C28   C     C_R   0.178504 0.749856 0.612655 0.031550
C29   C     C_R   0.259159 0.204750 0.629606 0.059831
C30   C     C_R   0.259162 0.795248 0.629614 0.059830
C31   C     C_R   0.759161 0.704751 0.629609 0.059835
C32   C     C_R   0.759160 0.295250 0.629614 0.059831
C33   C     C_R   0.312572 0.186578 0.507490 -0.151702
C34   C     C_R   0.312570 0.813423 0.507493 -0.151707
C35   C     C_R   0.812572 0.686578 0.507491 -0.151703
C36   C     C_R   0.812570 0.313423 0.507494 -0.151710
C37   C     C_R   0.286541 0.219770 0.378783 -0.191583
C38   C     C_R   0.286535 0.780235 0.378786 -0.191589
C39   C     C_R   0.786540 0.719770 0.378784 -0.191587
C40   C     C_R   0.786536 0.280233 0.378787 -0.191588
C41   C     C_R   0.711473 0.771479 0.367593 0.149924
C42   C     C_R   0.711469 0.228524 0.367597 0.149927
C43   C     C_R   0.211474 0.271480 0.367591 0.149925
C44   C     C_R   0.211467 0.728527 0.367597 0.149927
C45   C     C_R   0.665664 0.797229 0.491125 -0.121819
C46   C     C_R   0.665663 0.202772 0.491130 -0.121818
C47   C     C_R   0.165663 0.297229 0.491123 -0.121820
C48   C     C_R   0.165661 0.702773 0.491130 -0.121820
C49   C     C_R   0.679462 0.999999 0.131183 0.213887
C50   C     C_R   0.179462 0.500005 0.131183 0.213886
C51   C     C_R   0.754425 0.999997 0.038008 -0.211656
C52   C     C_R   0.254425 0.500009 0.038008 -0.211658
H17   H     H_    0.824094 0.999996 0.072573 0.170529
H18   H     H_    0.324095 0.500013 0.072573 0.170529
C53   C     C_R   0.746038 0.999997 0.898286 -0.242193
C54   C     C_R   0.246038 0.500007 0.898286 -0.242192
H19   H     H_    0.805802 0.999996 0.831444 0.170136
H20   H     H_    0.305802 0.500009 0.831444 0.170136
C55   C     C_R   0.662717 0.999999 0.842416 -0.085670
C56   C     C_R   0.162717 0.500002 0.842416 -0.085670
H21   H     H_    0.667964 1.000000 0.733330 0.211978
H22   H     H_    0.167964 0.499999 0.733330 0.211977
C57   C     C_R   0.581908 0.999999 0.921789 0.177199
C58   C     C_R   0.081908 0.500001 0.921789 0.177200
C59   C     C_R   0.585294 0.999999 0.073602 0.138106
C60   C     C_R   0.085294 0.500002 0.073602 0.138106
N1    N     N_R   0.501200 1.000000 0.147910 -0.207425
N2    N     N_R   0.001200 0.500000 0.147910 -0.207425
C61   C     C_R   0.422232 0.000001 0.073834 0.258031
C62   C     C_R   0.922232 0.500000 0.073834 0.258034
H23   H     H_    0.359835 0.000002 0.871948 0.163884
H24   H     H_    0.859835 0.500001 0.871949 0.163883
C63   C     C_R   0.423007 0.000001 0.927011 -0.006768
C64   C     C_R   0.923007 0.500001 0.927011 -0.006768
N3    N     N_R   0.501270 0.000000 0.852040 -0.193884
N4    N     N_R   0.001270 0.500000 0.852040 -0.193884
I1    I     I_    0.395946 0.207183 0.870933 -0.478102
I2    I     I_    0.395961 0.792828 0.870934 -0.478092
I3    I     I_    0.895948 0.707187 0.870935 -0.478107
I4    I     I_    0.895954 0.292835 0.870945 -0.478085
C65   C     C_3   0.675919 0.784458 0.222123 -0.774095
H25   H     H_    0.604035 0.803051 0.220304 0.255192
H26   H     H_    0.718648 0.829360 0.163019 0.240650
H27   H     H_    0.678270 0.723982 0.164991 0.223428
C66   C     C_3   0.675912 0.215545 0.222128 -0.774102
H28   H     H_    0.604028 0.196955 0.220314 0.255189
H29   H     H_    0.678267 0.276019 0.164993 0.223425
H30   H     H_    0.718638 0.170640 0.163026 0.240649
C67   C     C_3   0.175922 0.284462 0.222120 -0.774093
H31   H     H_    0.104039 0.303053 0.220301 0.255193
H32   H     H_    0.218650 0.329367 0.163023 0.240649
H33   H     H_    0.178277 0.223989 0.164981 0.223427
C68   C     C_3   0.175908 0.715549 0.222128 -0.774102
H34   H     H_    0.104023 0.696959 0.220315 0.255188
H35   H     H_    0.178261 0.776026 0.164996 0.223422
H36   H     H_    0.218634 0.670646 0.163022 0.240649
I5    I     I_    0.291639 0.000001 0.167708 -0.432441
I6    I     I_    0.791639 0.500001 0.167709 -0.432442
C69   C     C_3   0.726228 0.000000 0.274413 -0.674056
H37   H     H_    0.696749 0.000000 0.377467 0.245450
H38   H     H_    0.771175 0.944352 0.281156 0.180807
H39   H     H_    0.771174 0.055649 0.281153 0.180807
C70   C     C_3   0.226228 0.500004 0.274413 -0.674056
H40   H     H_    0.196749 0.499999 0.377467 0.245451
H41   H     H_    0.271179 0.444359 0.281151 0.180803
H42   H     H_    0.271170 0.555656 0.281158 0.180810

loop_
_geom_bond_atom_site_label_1
_geom_bond_atom_site_label_2
_geom_bond_distance
_ccdc_geom_bond_type
C69   H39   1.112530 S    
C43   C47   1.416540 A    
C27   C29   1.409307 A    
C23   H15   1.075314 S    
C11   C15   1.395987 A    
O10   C6    1.318067 A    
C44   C48   1.416536 A    
C10   C30   1.421737 A    
N2    C62   1.378653 A    
C9    C29   1.421725 A    
C69   H37   1.073857 S    
C30   C34   1.432356 A    
C12   C32   1.421744 A    
C16   C18   1.385450 A    
Cu1   O10   1.972647 S    
C19   C23   1.391300 A    
C7    C48   1.482103 S    
C40   C42   1.390599 A    
C14   H6    1.080905 S    
C51   C53   1.347319 A    
C65   H26   1.106298 S    
C22   H14   1.075272 S    
H2    C38   1.084592 S    
C70   H42   1.112530 S    
C50   C52   1.414326 A    
C31   C35   1.432346 A    
H1    C37   1.084591 S    
C54   C56   1.353856 A    
C69   H38   1.112531 S    
O8    Cu4   1.972546 S    
O2    Cu1   1.977058 S    
C42   C66   1.513047 S    
C25   C31   1.409304 A    
C28   C48   1.401887 A    
C66   H30   1.106296 S    
O13   C5    1.292146 A    
O6    Cu3   1.972546 S    
C21   C25   1.403557 A    
Cu4   N2    2.026871 S    
Cu3   O14   1.977276 S    
C52   C54   1.347319 A    
C23   C27   1.403572 A    
C34   C38   1.402611 A    
C67   H33   1.109877 S    
C24   C28   1.403576 A    
C33   C37   1.402612 A    
O15   C7    1.292146 A    
C13   C19   1.385467 A    
O11   C7    1.318062 A    
C16   H8    1.080910 S    
C14   C20   1.385465 A    
C36   C40   1.402609 A    
C15   C17   1.385451 A    
C68   H36   1.106306 S    
C43   C67   1.513047 S    
C17   C21   1.391302 A    
C59   N1    1.425555 A    
C38   C44   1.390598 A    
C8    C47   1.482102 S    
C13   H5    1.080905 S    
H23   C63   1.082153 S    
C54   H20   1.084852 S    
O7    C3    1.315263 A    
C49   C51   1.414326 A    
C10   I2    2.107489 S    
O5    Cu3   1.972546 S    
C12   I4    2.107512 S    
Cu2   O12   1.972647 S    
C12   C16   1.395981 A    
O1    C1    1.290766 A    
C1    C34   1.476079 S    
C65   H27   1.109876 S    
C21   H13   1.075275 S    
C3    C36   1.476077 S    
C19   H11   1.081243 S    
O12   C8    1.318073 A    
C9    C13   1.395986 A    
C24   H16   1.075303 S    
C56   H22   1.047497 S    
C32   C36   1.432358 A    
C28   C30   1.409315 A    
Cu2   N4    2.026992 S    
O6    C2    1.315259 A    
O5    C1    1.315263 A    
C53   H19   1.084851 S    
C42   C46   1.416536 A    
H3    C39   1.084591 S    
C62   I6    2.121263 S    
O8    C4    1.315260 A    
C57   N3    1.378778 A    
C18   C22   1.391298 A    
C58   C60   1.457166 A    
C17   H9    1.081237 S    
C37   C43   1.390602 A    
N1    C61   1.378653 A    
C60   N2    1.425555 A    
C39   C41   1.390600 A    
C66   H28   1.106256 S    
O3    Cu2   1.977058 S    
C50   C70   1.548109 S    
C49   C69   1.548109 S    
O7    Cu4   1.972546 S    
C57   C59   1.457166 A    
C4    C35   1.476080 S    
C52   H18   1.089442 S    
C58   N4    1.378778 A    
Cu4   O15   1.977273 S    
Cu1   Cu3   2.697139 S    
C67   H31   1.106250 S    
Cu2   Cu4   2.697139 S    
O4    C4    1.290769 A    
O2    C2    1.290769 A    
C49   C59   1.509010 A    
C61   I5    2.121261 S    
C68   H34   1.106266 S    
C62   C64   1.407519 A    
C20   C24   1.391292 A    
C61   C63   1.407520 A    
C44   C68   1.513048 S    
C10   C14   1.395977 A    
C9    I1    2.107479 S    
Cu2   O11   1.972645 S    
O16   C8    1.292134 A    
H4    C40   1.084592 S    
C15   H7    1.080907 S    
C70   H40   1.073858 S    
C55   H21   1.047497 S    
Cu1   O9    1.972645 S    
C6    C45   1.482099 S    
C22   C26   1.403573 A    
C18   H10   1.081246 S    
C41   C65   1.513048 S    
C26   C32   1.409311 A    
O9    C5    1.318061 A    
C63   N3    1.354667 A    
Cu1   N3    2.026992 S    
O4    Cu2   1.977058 S    
C25   C45   1.401875 A    
C65   H25   1.106257 S    
C35   C39   1.402610 A    
C70   H41   1.112532 S    
C5    C46   1.482098 S    
Cu3   O13   1.977273 S    
C29   C33   1.432348 A    
C56   C58   1.408547 A    
H24   C64   1.082153 S    
C55   C57   1.408547 A    
C26   C46   1.401889 A    
C64   N4    1.354667 A    
C66   H29   1.109876 S    
O3    C3    1.290764 A    
C11   C31   1.421726 A    
C53   C55   1.353856 A    
C2    C33   1.476083 S    
C20   H12   1.081240 S    
O1    Cu1   1.977058 S    
C11   I3    2.107474 S    
Cu4   O16   1.977276 S    
C41   C45   1.416538 A    
O14   C6    1.292139 A    
C27   C47   1.401873 A    
C67   H32   1.106292 S    
C51   H17   1.089442 S    
Cu3   N1    2.026871 S    
C68   H35   1.109882 S    
C50   C60   1.509010 A    
