data_mof_unit_53908.cif
_audit_creation_date              2013-03-05T16:36:12-0500
_audit_creation_method            fapswitch 2.2
_symmetry_space_group_name_H-M    P1
_symmetry_Int_Tables_number       1
_space_group_crystal_system       triclinic
_cell_length_a                    27.816532
_cell_length_b                    9.112527
_cell_length_c                    7.775577
_cell_angle_alpha                 89.9981
_cell_angle_beta                  90.001257
_cell_angle_gamma                 89.982588
_cell_volume                      1970.94460367

loop_
_atom_site_label
_atom_site_type_symbol
_atom_site_description
_atom_site_fract_x
_atom_site_fract_y
_atom_site_fract_z
_atom_type_partial_charge
O1    O     O_R   0.500000 0.288390 0.642760 -0.577577
O2    O     O_R   0.500000 0.711610 0.357240 -0.577583
O3    O     O_R   0.500000 0.711610 0.642760 -0.577579
O4    O     O_R   0.500000 0.288390 0.357240 -0.577580
C1    C     C_R   0.500001 0.219952 0.500002 0.846528
C2    C     C_R   0.499999 0.780048 0.499998 0.846522
O5    O     O_R   0.430260 0.500000 0.642770 -0.587742
O6    O     O_R   0.569740 0.500000 0.357230 -0.587752
O7    O     O_R   0.569740 0.500000 0.642770 -0.587740
O8    O     O_R   0.430260 0.500000 0.357230 -0.587757
C3    C     C_R   0.407157 0.500047 0.499997 0.846558
C4    C     C_R   0.592843 0.499958 0.500001 0.846566
Cu1   Cu    Cu3+1 0.500000 0.500000 0.669080 0.994070
Cu2   Cu    Cu3+1 0.500000 0.500000 0.330920 0.994056
C5    C     C_R   0.177631 0.371073 0.523337 0.628010
C6    C     C_R   0.822357 0.629162 0.523305 0.628037
C7    C     C_R   0.177569 0.629804 0.476092 0.627474
C8    C     C_R   0.822439 0.370412 0.476227 0.626761
O9    O     O_2   0.202923 0.245413 0.538822 -0.483667
O10   O     O_2   0.797054 0.754806 0.538728 -0.483778
O11   O     O_2   0.202790 0.755587 0.461006 -0.483894
O12   O     O_2   0.797235 0.244578 0.461375 -0.484339
N1    N     N_R   0.201583 0.500485 0.499827 -0.439033
N2    N     N_R   0.798415 0.499719 0.499889 -0.438859
C9    C     C_R   0.278314 0.529896 0.346610 0.454736
C10   C     C_R   0.721691 0.470221 0.346663 0.454760
C11   C     C_R   0.278287 0.471093 0.653300 0.455199
C12   C     C_R   0.721708 0.529042 0.653336 0.455264
C13   C     C_R   0.328818 0.524396 0.346716 -0.338072
C14   C     C_R   0.671187 0.475647 0.346753 -0.337962
C15   C     C_R   0.328797 0.476252 0.653235 -0.338245
C16   C     C_R   0.671198 0.523837 0.653257 -0.338216
C17   C     C_R   0.253276 0.500546 0.499930 0.189911
C18   C     C_R   0.746723 0.499609 0.499981 0.189989
C19   C     C_R   0.101589 0.500291 0.499324 -0.188549
C20   C     C_R   0.898408 0.500000 0.499307 -0.188302
C21   C     C_R   0.127030 0.368484 0.528547 -0.130610
C22   C     C_R   0.872958 0.631793 0.528502 -0.130604
C23   C     C_R   0.126975 0.632174 0.470278 -0.130955
C24   C     C_R   0.873030 0.368103 0.470273 -0.131375
C25   C     C_R   0.101183 0.238719 0.563707 0.537946
C26   C     C_R   0.898798 0.761583 0.563605 0.537974
C27   C     C_R   0.101073 0.761798 0.434661 0.537621
C28   C     C_R   0.898941 0.238515 0.434559 0.537617
C29   C     C_R   0.354201 0.500212 0.499982 -0.138240
C30   C     C_R   0.645799 0.499828 0.500004 -0.138321
H1    H     H_    0.348231 0.460995 0.772452 0.172933
H2    H     H_    0.651761 0.539098 0.772462 0.172960
H3    H     H_    0.348258 0.539546 0.227505 0.172988
H4    H     H_    0.651751 0.460452 0.227541 0.173011
C31   C     C_R   0.974745 0.365872 0.488427 0.012358
C32   C     C_R   0.025254 0.634450 0.488489 0.012649
C33   C     C_R   0.974676 0.634395 0.509613 0.012669
C34   C     C_R   0.025319 0.365922 0.509585 0.012729
C35   C     C_R   0.949355 0.500093 0.499131 0.070247
C36   C     C_R   0.050641 0.500220 0.499143 0.070314
C37   C     C_R   0.948899 0.236669 0.452341 -0.309294
C38   C     C_R   0.051109 0.763663 0.452519 -0.309750
C39   C     C_R   0.948761 0.763580 0.545414 -0.309262
C40   C     C_R   0.051223 0.236730 0.545435 -0.309699
H5    H     H_    0.966983 0.133818 0.427802 0.151557
H6    H     H_    0.033031 0.866561 0.428227 0.151314
H7    H     H_    0.966796 0.866597 0.569198 0.150941
H8    H     H_    0.033178 0.133726 0.569216 0.150935
C41   C     C_1   0.500000 0.065324 0.500002 -0.176865
C42   C     C_1   0.500000 0.934676 0.499998 -0.176865
N3    N     N_1   0.500000 0.500000 0.076820 -0.054272
N4    N     N_1   0.500000 0.500000 0.923180 -0.054269
O13   O     O_3   0.252075 0.449268 0.803092 -0.569384
C43   C     C_3   0.267449 0.320888 0.888790 -0.190053
H9    H     H_    0.299785 0.343607 0.968199 0.154186
H10   H     H_    0.274336 0.228156 0.798622 0.166012
H11   H     H_    0.238479 0.285428 0.977609 0.200230
O14   O     O_3   0.747915 0.550894 0.803126 -0.569352
C44   C     C_3   0.732530 0.679266 0.888797 -0.190236
H12   H     H_    0.700203 0.656518 0.968234 0.154288
H13   H     H_    0.725623 0.771973 0.798612 0.165940
H14   H     H_    0.761501 0.714777 0.977576 0.200195
O15   O     O_3   0.252137 0.551909 0.196769 -0.569581
C45   C     C_3   0.267462 0.680564 0.111566 -0.191131
H15   H     H_    0.299873 0.658221 0.032368 0.154089
H16   H     H_    0.274209 0.773153 0.202067 0.166473
H17   H     H_    0.238523 0.716029 0.022594 0.199904
O16   O     O_3   0.747872 0.448253 0.196823 -0.569633
C46   C     C_3   0.732593 0.319502 0.111708 -0.192168
H18   H     H_    0.700159 0.341680 0.032566 0.154375
H19   H     H_    0.725907 0.226906 0.202278 0.166646
H20   H     H_    0.761533 0.284135 0.022683 0.199555
O17   O     O_3   0.124614 0.111119 0.610158 -0.479022
C47   C     C_3   0.121608 0.094725 0.790093 -0.247702
H21   H     H_    0.083779 0.078380 0.832524 0.122160
H22   H     H_    0.137948 0.190026 0.858166 0.151039
H23   H     H_    0.142173 0.995374 0.827349 0.188619
O18   O     O_3   0.875360 0.889213 0.609887 -0.479020
C48   C     C_3   0.878289 0.905627 0.789827 -0.247495
H24   H     H_    0.916104 0.921783 0.832493 0.122171
H25   H     H_    0.861865 0.810427 0.857807 0.151190
H26   H     H_    0.857760 0.005086 0.826927 0.188516
O19   O     O_3   0.124409 0.889383 0.387784 -0.479659
C49   C     C_3   0.122220 0.903655 0.207444 -0.247973
H27   H     H_    0.084521 0.917501 0.162286 0.121788
H28   H     H_    0.139457 0.808469 0.141956 0.152573
H29   H     H_    0.142399 0.003649 0.169987 0.188339
O20   O     O_3   0.875660 0.110938 0.387351 -0.480060
C50   C     C_3   0.877119 0.098475 0.206727 -0.247729
H30   H     H_    0.914684 0.087062 0.159177 0.121280
H31   H     H_    0.859058 0.193391 0.143539 0.154011
H32   H     H_    0.857326 0.997801 0.169118 0.188016

loop_
_geom_bond_atom_site_label_1
_geom_bond_atom_site_label_2
_geom_bond_distance
_ccdc_geom_bond_type
C38   H6    1.080488 S    
O5    Cu1   1.950677 S    
C25   O17   1.380854 S    
C48   H24   1.112781 S    
O3    C2    1.273226 A    
C12   O14   1.388417 S    
C28   O20   1.380617 S    
C48   H26   1.109255 S    
C34   C40   1.407957 A    
C46   H18   1.110562 S    
C11   C17   1.406422 A    
O5    C3    1.282719 A    
C50   H31   1.114269 S    
C7    N1    1.366910 A    
O1    C1    1.273239 A    
C19   C21   1.412287 A    
C27   O19   1.380711 S    
C22   C26   1.410850 A    
O13   C43   1.412490 S    
C7    C23   1.408247 A    
C8    C24   1.408165 A    
C5    C21   1.408313 A    
C20   C24   1.412251 A    
O7    Cu1   1.950684 S    
C27   C38   1.396857 A    
C5    O9    1.349137 S    
C10   C18   1.406361 A    
N1    C17   1.437907 S    
C10   O16   1.388467 S    
Cu2   N3    1.975773 S    
C43   H9    1.110522 S    
C31   C37   1.407950 A    
C11   O13   1.388469 S    
O6    C4    1.282707 A    
C5    N1    1.366931 A    
C14   H4    1.082003 S    
C12   C18   1.406391 A    
C6    N2    1.366946 A    
C15   H1    1.082016 S    
Cu1   Cu2   2.629390 S    
C21   C25   1.410835 A    
C16   H2    1.082018 S    
O2    C2    1.273239 A    
C45   H17   1.109423 S    
O20   C50   1.409626 S    
C44   H14   1.109410 S    
C33   C35   1.414572 A    
C9    C13   1.405714 A    
C50   H32   1.109312 S    
C34   C36   1.414549 A    
O14   C44   1.412474 S    
C46   H19   1.114703 S    
C11   C15   1.405825 A    
N3    N4    1.194640 T    
C12   C16   1.405831 A    
O16   C46   1.412625 S    
C1    C41   1.409053 S    
O8    Cu2   1.950686 S    
C45   H15   1.110590 S    
C13   H3    1.082014 S    
C49   H29   1.109266 S    
C7    O11   1.349147 S    
C13   C29   1.402552 A    
C19   C23   1.412254 A    
C44   H12   1.110510 S    
C47   H22   1.114088 S    
O19   C49   1.409569 S    
C2    C42   1.409053 S    
C28   C37   1.396612 A    
C6    O10   1.349139 S    
C43   H11   1.109474 S    
C49   H28   1.114148 S    
C44   H13   1.114534 S    
C32   C38   1.407967 A    
C4    C30   1.473075 S    
C10   C14   1.405701 A    
C8    N2    1.366893 A    
C3    C29   1.473075 S    
O1    Cu1   1.939139 S    
C32   C33   1.416464 A    
C47   H23   1.109253 S    
C46   H20   1.109487 S    
O6    Cu2   1.950675 S    
C33   C39   1.407998 A    
C19   C36   1.417175 A    
C26   O18   1.380852 S    
C16   C30   1.402524 A    
C14   C30   1.402557 A    
C25   C40   1.397095 A    
O4    C1    1.273226 A    
O3    Cu1   1.939125 S    
C26   C39   1.397117 A    
C23   C27   1.410849 A    
C48   H25   1.113967 S    
C37   H5    1.080541 S    
C50   H30   1.113264 S    
C39   H7    1.080458 S    
C40   H8    1.080480 S    
C31   C34   1.416365 A    
C8    O12   1.349156 S    
C20   C35   1.417176 A    
C47   H21   1.112853 S    
C20   C22   1.412277 A    
C49   H27   1.113020 S    
C45   H16   1.114637 S    
C31   C35   1.414627 A    
O4    Cu2   1.939126 S    
O18   C48   1.409467 S    
O2    Cu2   1.939138 S    
O7    C4    1.282712 A    
N2    C18   1.437876 S    
C9    O15   1.388438 S    
O8    C3    1.282701 A    
O15   C45   1.412567 S    
C24   C28   1.410891 A    
C41   C42   1.190533 T    
C15   C29   1.402536 A    
C9    C17   1.406403 A    
C43   H10   1.114568 S    
O17   C47   1.409528 S    
C32   C36   1.414632 A    
C6    C22   1.408335 A    
Cu1   N4    1.975773 S    
