data_mof_unit_60278.cif
_audit_creation_date              2013-03-05T16:35:49-0500
_audit_creation_method            fapswitch 2.2
_symmetry_space_group_name_H-M    P1
_symmetry_Int_Tables_number       1
_space_group_crystal_system       triclinic
_cell_length_a                    21.77095
_cell_length_b                    21.777234
_cell_length_c                    21.312451
_cell_angle_alpha                 121.067279
_cell_angle_beta                  120.764261
_cell_angle_gamma                 89.79466
_cell_volume                      6956.23598961

loop_
_atom_site_label
_atom_site_type_symbol
_atom_site_description
_atom_site_fract_x
_atom_site_fract_y
_atom_site_fract_z
_atom_type_partial_charge
O1    O     O_R   0.061970 0.509790 0.623960 -0.558150
O2    O     O_R   0.061960 0.614160 0.623930 -0.539222
C1    C     C_R   0.084772 0.584723 0.669185 0.769374
O3    O     O_R   0.090190 0.447820 0.500020 -0.573142
O4    O     O_R   0.090170 0.552190 0.499990 -0.563827
C2    C     C_R   0.117499 0.498926 0.498111 0.813391
Cu1   Cu    Cu3+1 0.000010 0.438210 0.500020 1.035781
Cu2   Cu    Cu3+1 0.999990 0.561790 0.499980 1.076627
O5    O     O_R   0.938040 0.385840 0.376070 -0.561033
O6    O     O_R   0.938030 0.490210 0.376040 -0.556164
O7    O     O_R   0.909830 0.447810 0.500010 -0.589526
O8    O     O_R   0.909810 0.552180 0.499980 -0.539299
C3    C     C_R   0.915289 0.415289 0.330801 0.773192
C4    C     C_R   0.882618 0.501048 0.501928 0.814597
C5    C     C_R   0.028028 0.241935 0.279761 0.309663
C6    C     C_R   0.092155 0.308974 0.353734 -0.093345
H1    H     H_    0.130284 0.316187 0.417155 0.217268
C7    C     C_R   0.107520 0.366732 0.346976 -0.078408
C8    C     C_R   0.058337 0.357426 0.265166 -0.345997
H2    H     H_    0.071092 0.402133 0.260243 0.161220
C9    C     C_R   0.994854 0.289261 0.188572 0.373677
C10   C     C_R   0.979919 0.230562 0.195165 0.247429
C11   C     C_R   0.244523 0.436184 0.424863 0.405457
C12   C     C_R   0.312509 0.501002 0.499762 -0.118111
C13   C     C_R   0.315775 0.563083 0.573889 0.024536
C14   C     C_R   0.250103 0.560987 0.569977 -0.172749
H3    H     H_    0.251760 0.608454 0.626022 0.157496
C15   C     C_R   0.182915 0.497751 0.496374 -0.109301
C16   C     C_R   0.179141 0.434364 0.423675 -0.053793
C17   C     C_R   0.416779 0.640120 0.741278 -0.149217
H4    H     H_    0.387781 0.600482 0.742104 0.199144
C18   C     C_R   0.485006 0.699860 0.822264 0.311343
C19   C     C_R   0.523143 0.752631 0.822086 0.275086
C20   C     C_R   0.494390 0.740654 0.738829 0.335558
C21   C     C_R   0.426124 0.679396 0.658183 -0.248150
H5    H     H_    0.404300 0.669594 0.594248 0.190395
C22   C     C_R   0.387163 0.628979 0.658919 -0.015464
C23   C     C_1   0.136694 0.636231 0.771708 -0.165325
C24   C     C_1   0.179611 0.678762 0.856680 0.076500
C25   C     C_1   0.230056 0.729070 0.957455 0.079325
C26   C     C_1   0.272272 0.771465 0.042438 0.058017
C27   C     C_1   0.322235 0.821761 0.143230 0.057243
C28   C     C_1   0.364408 0.864191 0.228223 -0.125897
C29   C     C_R   0.985404 0.491864 0.741166 0.348402
C30   C     C_R   0.919026 0.477163 0.663413 -0.141226
H6    H     H_    0.885041 0.418461 0.603148 0.243240
C31   C     C_R   0.896686 0.536779 0.661584 -0.190934
C32   C     C_R   0.941857 0.613576 0.739513 0.281313
C33   C     C_R   0.007017 0.629270 0.820320 0.336817
C34   C     C_R   0.028327 0.568277 0.822137 0.196858
C35   C     C_R   0.757372 0.515979 0.576797 0.314830
C36   C     C_R   0.687604 0.501895 0.500186 -0.237297
C37   C     C_R   0.684283 0.489396 0.425935 0.097855
C38   C     C_R   0.749728 0.489578 0.429214 -0.145142
H7    H     H_    0.748221 0.480371 0.373209 0.164662
C39   C     C_R   0.817405 0.502158 0.503669 -0.107298
C40   C     C_R   0.822713 0.517356 0.579015 0.026545
C41   C     C_R   0.584543 0.413247 0.256671 0.278674
C42   C     C_R   0.527778 0.409410 0.179502 0.246976
C43   C     C_R   0.501812 0.471131 0.191547 0.237606
C44   C     C_R   0.535256 0.538485 0.280397 0.230324
C45   C     C_R   0.590785 0.541298 0.356226 -0.303616
H8    H     H_    0.618021 0.593586 0.424382 0.221740
C46   C     C_R   0.616074 0.479648 0.345176 0.008714
C47   C     C_1   0.863540 0.363947 0.228250 -0.174271
C48   C     C_1   0.820713 0.321710 0.143270 0.065759
C49   C     C_1   0.770249 0.271586 0.042473 0.119331
C50   C     C_1   0.727972 0.229087 0.957487 0.073987
C51   C     C_1   0.677920 0.178591 0.856711 0.018446
C52   C     C_1   0.635637 0.136037 0.771728 -0.152445
O9    O     O_R   0.464140 0.554340 0.428270 -0.570946
O10   O     O_R   0.535870 0.626050 0.571740 -0.548881
C53   C     C_R   0.497302 0.620156 0.500357 0.828851
O11   O     O_R   0.373960 0.464160 0.428260 -0.534857
O12   O     O_R   0.445680 0.535880 0.571730 -0.593383
C54   C     C_R   0.379825 0.501220 0.500117 0.878935
Cu3   Cu    Cu3+1 0.457530 0.457560 0.415050 1.098227
Cu4   Cu    Cu3+1 0.542470 0.542480 0.584950 1.153468
O13   O     O_R   0.464130 0.373990 0.428260 -0.589608
O14   O     O_R   0.535860 0.445700 0.571730 -0.531029
O15   O     O_R   0.554320 0.464170 0.428270 -0.598146
O16   O     O_R   0.626040 0.535880 0.571740 -0.518580
C55   C     C_R   0.502623 0.380093 0.499738 0.919818
C56   C     C_R   0.620209 0.501426 0.499847 0.852125
O17   O     O_R   0.552180 0.090160 0.499970 -0.543451
O18   O     O_R   0.447790 0.090160 0.499970 -0.567964
C57   C     C_R   0.499732 0.118788 0.500049 0.795215
O19   O     O_R   0.490230 0.938030 0.376060 -0.544997
O20   O     O_R   0.385840 0.938030 0.376050 -0.550600
C58   C     C_R   0.415470 0.915412 0.330795 0.780968
Cu5   Cu    Cu3+1 0.561810 0.000000 0.500000 1.106015
Cu6   Cu    Cu3+1 0.438190 0.000000 0.500000 1.040479
O21   O     O_R   0.552210 0.909840 0.500030 -0.536494
O22   O     O_R   0.447820 0.909840 0.500030 -0.585839
O23   O     O_R   0.614160 0.061970 0.623950 -0.555507
O24   O     O_R   0.509770 0.061970 0.623940 -0.562188
C59   C     C_R   0.500603 0.881856 0.501096 0.813811
C60   C     C_R   0.584534 0.084669 0.669195 0.773979
H9    H     H_    0.169892 0.469144 0.262779 0.201248
C61   C     C_R   0.261987 0.504005 0.262575 0.245209
C62   C     C_R   0.327524 0.565081 0.308180 0.353972
C63   C     C_R   0.353046 0.634812 0.391692 -0.210257
C64   C     C_R   0.307386 0.647050 0.423625 0.318562
C65   C     C_R   0.241346 0.587144 0.376584 0.407703
C66   C     C_R   0.219596 0.515949 0.297182 -0.413019
C67   C     C_R   0.431883 0.756859 0.446272 -0.170491
H10   H     H_    0.379231 0.760741 0.402584 0.170011
C68   C     C_R   0.501514 0.816170 0.503152 -0.084987
C69   C     C_R   0.570262 0.813262 0.562589 0.006287
C70   C     C_R   0.568535 0.747516 0.560768 0.454542
C71   C     C_R   0.497909 0.687654 0.501766 -0.044675
C72   C     C_R   0.428975 0.693205 0.446368 0.067368
C73   C     C_R   0.699949 0.887073 0.622168 0.262354
C74   C     C_R   0.768429 0.951994 0.693137 0.275019
C75   C     C_R   0.777795 0.008950 0.773750 -0.160001
H11   H     H_    0.829624 0.058984 0.828831 0.219147
C76   C     C_R   0.720100 0.002818 0.783656 -0.142129
H12   H     H_    0.728114 0.047083 0.846125 0.206513
C77   C     C_R   0.652091 0.939982 0.713330 -0.172435
H13   H     H_    0.607939 0.935941 0.722291 0.202934
C78   C     C_R   0.641492 0.881727 0.632659 -0.100207
H14   H     H_    0.649965 0.269274 0.298098 0.195191
C79   C     C_R   0.547985 0.255034 0.289367 -0.135991
H15   H     H_    0.511696 0.242046 0.222461 0.180852
C80   C     C_R   0.515934 0.254275 0.331231 -0.148178
H16   H     H_    0.454684 0.239642 0.295507 0.186392
C81   C     C_R   0.561867 0.269056 0.416846 -0.054120
C82   C     C_R   0.641715 0.284917 0.461394 0.375492
C83   C     C_R   0.673892 0.286966 0.419068 0.370318
C84   C     C_R   0.626243 0.270708 0.332504 -0.227682
C85   C     C_R   0.517829 0.190611 0.447464 0.414362
C86   C     C_R   0.497827 0.184724 0.498056 -0.193264
C87   C     C_R   0.477559 0.242887 0.547714 -0.035622
C88   C     C_R   0.476862 0.306163 0.545626 0.330814
C89   C     C_R   0.500673 0.313169 0.498801 -0.235953
C90   C     C_R   0.524348 0.257192 0.453285 -0.009383
C91   C     C_R   0.381072 0.221639 0.574036 0.373251
C92   C     C_R   0.365591 0.222570 0.631177 0.306928
C93   C     C_R   0.426131 0.240978 0.715991 -0.233120
H17   H     H_    0.414798 0.241969 0.760366 0.193087
C94   C     C_R   0.501436 0.258391 0.744552 0.458044
C95   C     C_R   0.516795 0.256769 0.687353 -0.272654
H18   H     H_    0.575133 0.270564 0.709113 0.163281
C96   C     C_R   0.457466 0.238848 0.602764 -0.046058
N1    N     N_R   0.919205 0.158392 0.115138 0.143007
O25   O     O_R   0.931781 0.094527 0.094789 -0.276734
O26   O     O_R   0.853621 0.156161 0.057644 -0.326107
O27   O     O_3   0.586093 0.817288 0.901488 -0.644322
H19   H     H_    0.583953 0.832561 0.952669 0.343448
N2    N     N_R   0.533396 0.791301 0.735923 0.158979
O28   O     O_R   0.607216 0.825838 0.793979 -0.244273
O29   O     O_R   0.495600 0.801147 0.672947 -0.412662
O30   O     O_3   0.090151 0.585007 0.903308 -0.721194
H20   H     H_    0.082856 0.540458 0.903813 0.364641
O31   O     O_3   0.006468 0.430233 0.734889 -0.655998
H21   H     H_    0.062626 0.448522 0.779353 0.348834
N3    N     N_R   0.920821 0.675751 0.737700 0.180049
O32   O     O_R   0.897231 0.674961 0.667447 -0.321962
O33   O     O_R   0.927202 0.734643 0.807361 -0.197225
O34   O     O_3   0.048565 0.704969 0.896189 -0.639560
H22   H     H_    0.091192 0.708083 0.948727 0.377832
N4    N     N_R   0.761772 0.526407 0.651386 0.134993
O35   O     O_R   0.797423 0.593790 0.729461 -0.274033
O36   O     O_R   0.727205 0.469160 0.640048 -0.310686
O37   O     O_3   0.014568 0.189407 0.293225 -0.639494
H23   H     H_    0.960414 0.154998 0.245465 0.370005
O38   O     O_3   0.611227 0.353901 0.248192 -0.756092
H24   H     H_    0.571469 0.305189 0.188651 0.333183
O39   O     O_3   0.497339 0.346799 0.091685 -0.645621
H25   H     H_    0.538262 0.326823 0.091633 0.341508
N5    N     N_R   0.442325 0.465494 0.112960 0.204417
O40   O     O_R   0.444144 0.438421 0.043622 -0.240372
O41   O     O_R   0.384191 0.484184 0.108640 -0.281980
N6    N     N_R   0.518527 0.606524 0.294385 0.205484
O42   O     O_R   0.528301 0.658262 0.369901 -0.313640
O43   O     O_R   0.505436 0.622911 0.238966 -0.244850
N7    N     N_R   0.240409 0.428748 0.184438 0.148655
O44   O     O_R   0.168940 0.384112 0.122448 -0.291950
O45   O     O_R   0.292465 0.400301 0.181898 -0.315223
O46   O     O_3   0.368143 0.558701 0.273593 -0.633674
H26   H     H_    0.333744 0.519149 0.206788 0.383052
O47   O     O_3   0.324837 0.716080 0.500395 -0.645590
H27   H     H_    0.366919 0.756176 0.521991 0.356535
O48   O     O_3   0.199537 0.599660 0.410811 -0.644578
H28   H     H_    0.155470 0.551998 0.371055 0.315634
O49   O     O_3   0.633809 0.739032 0.614820 -0.678969
H29   H     H_    0.679804 0.783583 0.651930 0.359000
N8    N     N_R   0.691200 0.825332 0.542131 0.154689
O50   O     O_R   0.740764 0.790928 0.549396 -0.263220
O51   O     O_R   0.633714 0.803255 0.461817 -0.253729
N9    N     N_R   0.827873 0.961650 0.683680 0.160433
O52   O     O_R   0.811162 0.935847 0.604447 -0.247202
O53   O     O_R   0.898196 0.003833 0.755649 -0.274938
N10   N     N_R   0.689627 0.296148 0.547296 0.172315
O54   O     O_R   0.675741 0.329137 0.607405 -0.318064
O55   O     O_R   0.747730 0.273219 0.566062 -0.226752
O56   O     O_3   0.751764 0.304806 0.463304 -0.678648
H30   H     H_    0.765089 0.305723 0.425635 0.327048
O57   O     O_3   0.532105 0.132713 0.392221 -0.683952
H31   H     H_    0.496833 0.082830 0.363369 0.326320
N11   N     N_R   0.452159 0.363462 0.591216 0.127071
O58   O     O_R   0.486541 0.400511 0.678283 -0.317951
O59   O     O_R   0.394790 0.378306 0.545441 -0.336100
N12   N     N_R   0.319355 0.203132 0.487405 0.167508
O60   O     O_R   0.263077 0.227797 0.479227 -0.232684
O61   O     O_R   0.317903 0.159856 0.415604 -0.335187
O62   O     O_3   0.290891 0.203974 0.602075 -0.630783
H32   H     H_    0.289889 0.207124 0.649638 0.346746
O63   O     O_3   0.558710 0.277460 0.828959 -0.689316
H33   H     H_    0.608635 0.290760 0.840380 0.327751
O64   O     O_3   0.948716 0.277390 0.105787 -0.660866
H34   H     H_    0.966704 0.323762 0.112763 0.337082
O65   O     O_3   0.245531 0.375048 0.356508 -0.668523
H35   H     H_    0.196468 0.331654 0.310306 0.359059
O66   O     O_3   0.512984 0.703611 0.899132 -0.677932
H36   H     H_    0.569199 0.729420 0.941082 0.353240

loop_
_geom_bond_atom_site_label_1
_geom_bond_atom_site_label_2
_geom_bond_distance
_ccdc_geom_bond_type
N10   O55   1.301312 A    
N5    O40   1.301318 A    
C62   C63   1.409751 A    
O21   C59   1.295956 A    
C64   O47   1.382328 S    
C26   C27   1.478885 S    
C4    C39   1.438880 S    
C8    H2    1.083119 S    
O9    Cu3   1.972282 S    
O12   C54   1.238919 A    
C82   C83   1.412352 A    
C83   C84   1.405599 A    
N1    O25   1.301387 A    
C20   N2    1.439627 S    
O23   C60   1.316133 A    
C79   H15   1.081818 S    
C63   C64   1.423176 A    
C3    C47   1.504718 S    
Cu3   Cu4   2.492853 S    
O48   H28   0.991743 S    
Cu1   O7    1.973562 S    
N5    O41   1.300676 A    
C61   C66   1.400015 A    
O37   H23   0.989462 S    
C80   H16   1.083238 S    
O11   C54   1.240177 A    
C42   O39   1.380217 S    
C11   C16   1.410988 A    
C15   C16   1.405712 A    
C8    C9    1.408610 A    
C82   N10   1.444203 S    
C7    C8    1.398077 A    
C51   C52   1.246901 T    
C76   C77   1.392363 A    
O4    C2    1.293277 A    
O7    C4    1.291411 A    
Cu4   O14   1.972282 S    
C79   C80   1.391191 A    
C6    H1    1.083830 S    
C67   H10   1.084778 S    
C34   O30   1.381326 S    
C5    C6    1.397647 A    
Cu6   O24   1.830825 S    
C68   C69   1.411145 A    
C35   N4    1.435140 S    
N8    O51   1.300308 A    
C20   C21   1.406095 A    
N11   O58   1.301040 A    
C36   C56   1.463619 S    
O5    C3    1.317161 A    
N6    O42   1.298024 A    
O10   Cu4   1.974232 S    
C64   C65   1.401113 A    
C13   C22   1.486447 S    
C70   C71   1.410451 A    
C59   C68   1.453323 S    
C63   C72   1.490837 S    
C5    C10   1.420617 A    
C2    C15   1.443251 S    
C21   H5    1.079915 S    
C1    C23   1.504336 S    
C86   C87   1.417512 A    
N7    O45   1.301615 A    
O11   Cu3   1.972437 S    
O24   C60   1.315921 A    
C45   C46   1.400769 A    
C11   C12   1.415522 A    
O19   Cu5   1.830825 S    
C33   O34   1.383350 S    
C35   C40   1.398847 A    
C17   C18   1.396955 A    
C55   C89   1.447699 S    
Cu2   O8    1.975175 S    
C77   C78   1.401341 A    
N10   O54   1.301301 A    
C42   C43   1.406785 A    
N3    O33   1.301307 A    
C9    C10   1.412302 A    
N3    O32   1.301031 A    
N11   O59   1.300876 A    
O56   H30   0.991917 S    
C52   C60   1.504397 S    
O14   C55   1.236198 A    
C61   N7    1.438137 S    
C65   C66   1.403345 A    
N1    O26   1.300667 A    
C53   C71   1.454606 S    
N4    O36   1.299512 A    
C30   C31   1.397103 A    
C41   C46   1.409800 A    
H9    C66   1.082754 S    
C38   C39   1.387924 A    
C28   C58   1.504987 S    
C95   H18   1.083891 S    
C44   N6    1.438141 S    
O17   C57   1.299322 A    
C49   C50   1.246967 T    
O39   H25   0.990328 S    
C89   C90   1.406849 A    
C12   C13   1.417757 A    
O3    C2    1.292290 A    
C85   C90   1.391279 A    
C69   C70   1.412229 A    
O20   C58   1.316387 A    
O38   H24   0.989140 S    
O9    C53   1.239331 A    
O18   C57   1.292091 A    
C12   C54   1.461705 S    
C67   C72   1.388999 A    
O22   C59   1.294217 A    
C75   C76   1.393454 A    
C13   C14   1.388459 A    
O65   H35   0.987122 S    
C73   N8    1.433919 S    
O62   H32   0.991761 S    
C17   C22   1.399760 A    
C43   C44   1.413457 A    
O1    C1    1.315806 A    
C57   C86   1.458098 S    
C85   O57   1.382739 S    
O66   H36   0.989945 S    
N9    O53   1.301520 A    
O64   H34   0.991746 S    
C45   H8    1.083869 S    
C19   O27   1.380777 S    
Cu5   O21   1.975635 S    
C39   C40   1.401232 A    
Cu4   O16   1.972438 S    
C32   N3    1.440824 S    
C31   C32   1.413036 A    
C10   N1    1.438131 S    
Cu3   O15   1.973166 S    
C17   H4    1.083971 S    
C77   H13   1.083464 S    
Cu6   O22   1.974143 S    
O63   H33   0.991634 S    
C14   H3    1.085548 S    
Cu3   O13   1.974231 S    
C7    C16   1.482154 S    
C81   C90   1.481417 S    
O20   Cu6   1.830356 S    
C41   O38   1.378903 S    
C70   O49   1.386971 S    
C88   C89   1.405300 A    
O49   H29   0.987075 S    
C92   O62   1.380985 S    
C25   C26   1.246921 T    
C65   O48   1.380998 S    
C91   C96   1.416807 A    
O19   C58   1.315824 A    
C33   C34   1.418208 A    
O16   C56   1.241746 A    
C79   C84   1.393688 A    
C87   C88   1.401252 A    
N2    O29   1.300168 A    
C27   C28   1.247078 T    
C37   C38   1.390277 A    
C85   C86   1.411413 A    
O17   Cu5   1.974144 S    
C94   O63   1.378891 S    
Cu5   Cu6   2.691323 S    
O15   C56   1.239109 A    
C36   C37   1.421989 A    
C88   N11   1.438323 S    
C73   C74   1.417900 A    
C11   O65   1.387810 S    
C29   C34   1.420552 A    
N9    O52   1.301274 A    
Cu1   O5    1.831638 S    
C38   H7    1.085808 S    
C32   C33   1.411333 A    
C87   C96   1.485738 S    
C74   N9    1.439532 S    
C71   C72   1.412164 A    
C21   C22   1.401169 A    
O1    Cu1   1.829505 S    
C43   N5    1.437853 S    
C50   C51   1.478625 S    
C6    C7    1.397853 A    
C31   C40   1.485480 S    
C29   C30   1.393841 A    
N12   O61   1.301212 A    
O10   C53   1.236293 A    
O6    C3    1.315523 A    
O4    Cu2   1.973562 S    
C93   H17   1.083213 S    
C74   C75   1.405643 A    
C81   C82   1.421272 A    
C91   N12   1.440383 S    
N4    O35   1.300527 A    
C91   C92   1.411184 A    
C14   C15   1.390785 A    
O34   H22   0.989268 S    
C29   O31   1.379353 S    
O2    C1    1.316688 A    
C41   C42   1.420828 A    
C35   C36   1.420014 A    
C62   O46   1.380192 S    
O18   Cu6   1.975636 S    
C76   H12   1.082208 S    
C18   C19   1.422883 A    
O13   C55   1.235490 A    
C93   C94   1.395523 A    
C69   C78   1.485746 S    
C75   H11   1.082644 S    
C23   C24   1.246790 T    
C67   C68   1.397833 A    
C9    O64   1.380880 S    
C61   C62   1.417818 A    
C37   C46   1.491004 S    
C19   C20   1.412663 A    
C48   C49   1.478978 S    
C95   C96   1.402147 A    
O27   H19   0.989976 S    
C47   C48   1.246936 T    
C44   C45   1.405942 A    
O12   Cu4   1.973167 S    
N6    O43   1.301349 A    
Cu1   Cu2   2.691668 S    
C92   C93   1.408518 A    
C18   O66   1.379471 S    
Cu5   O23   1.830354 S    
C24   C25   1.478638 S    
C30   H6    1.082270 S    
O8    C4    1.292158 A    
O57   H31   0.990638 S    
C73   C78   1.415004 A    
N12   O60   1.301335 A    
O3    Cu1   1.975173 S    
Cu2   O6    1.829506 S    
N7    O44   1.301450 A    
O2    Cu2   1.831638 S    
O31   H21   0.990002 S    
C80   C81   1.400892 A    
N2    O28   1.301310 A    
C5    O37   1.379813 S    
O30   H20   0.990034 S    
C94   C95   1.404138 A    
H14   C84   1.081224 S    
N8    O50   1.301047 A    
C83   O56   1.380421 S    
O46   H26   0.988942 S    
O47   H27   0.986520 S    
