data_mof_unit_28319.cif
_audit_creation_date              2013-03-05T16:49:25-0500
_audit_creation_method            fapswitch 2.2
_symmetry_space_group_name_H-M    P1
_symmetry_Int_Tables_number       1
_space_group_crystal_system       triclinic
_cell_length_a                    10.927267
_cell_length_b                    8.886496
_cell_length_c                    8.346031
_cell_angle_alpha                 90.000128
_cell_angle_beta                  93.633011
_cell_angle_gamma                 89.977056
_cell_volume                      808.813554499

loop_
_atom_site_label
_atom_site_type_symbol
_atom_site_description
_atom_site_fract_x
_atom_site_fract_y
_atom_site_fract_z
_atom_type_partial_charge
O1    O     O_R   0.499990 0.285340 0.636850 -0.594788
O2    O     O_R   0.500010 0.714660 0.363150 -0.594786
O3    O     O_R   0.500010 0.285350 0.363100 -0.621706
O4    O     O_R   0.499990 0.714650 0.636900 -0.621702
C1    C     C_R   0.499976 0.219089 0.499971 0.946087
C2    C     C_R   0.500024 0.780910 0.500029 0.946085
O5    O     O_R   0.316750 0.500000 0.636870 -0.681841
O6    O     O_R   0.683250 0.500000 0.363130 -0.681845
O7    O     O_R   0.316770 0.500020 0.363120 -0.606564
O8    O     O_R   0.683230 0.499980 0.636880 -0.606566
C3    C     C_R   0.259789 0.503441 0.495722 0.867183
C4    C     C_R   0.740211 0.496558 0.504278 0.867192
Zn1   Zn    Zn3+2 0.499990 0.499990 0.682780 0.998646
Zn2   Zn    Zn3+2 0.500010 0.500010 0.317220 0.998646
H1    H     H_    0.305673 0.369606 0.863498 0.206455
H2    H     H_    0.694329 0.630391 0.136503 0.206456
C5    C     C_R   0.213344 0.539330 0.003868 0.385776
C6    C     C_R   0.786657 0.460666 0.996130 0.385760
C7    C     C_R   0.134395 0.556634 0.126885 0.339588
C8    C     C_R   0.865605 0.443366 0.873111 0.339595
C9    C     C_R   0.096516 0.426873 0.207325 -0.128073
C10   C     C_R   0.903484 0.573129 0.792672 -0.128076
C11   C     C_R   0.122437 0.282419 0.153372 -0.144020
C12   C     C_R   0.877566 0.717584 0.846629 -0.144024
H3    H     H_    0.092852 0.183848 0.216880 0.199202
H4    H     H_    0.907152 0.816158 0.783122 0.199204
C13   C     C_R   0.195291 0.265332 0.025040 -0.067774
C14   C     C_R   0.804714 0.734669 0.974964 -0.067771
H5    H     H_    0.219557 0.153739 0.985600 0.200004
H6    H     H_    0.780450 0.846263 0.014407 0.200004
C15   C     C_R   0.242594 0.391952 0.952840 -0.251605
C16   C     C_R   0.757408 0.608046 0.047160 -0.251632
C17   C     C_R   0.927871 0.430245 0.378969 -0.146517
C18   C     C_R   0.072129 0.569756 0.621028 -0.146512
H7    H     H_    0.873540 0.375771 0.284652 0.186562
H8    H     H_    0.126458 0.624231 0.715344 0.186551
C19   C     C_R   0.873628 0.491468 0.509648 -0.042104
C20   C     C_R   0.126372 0.508533 0.490351 -0.042099
C21   C     C_R   0.947991 0.555378 0.634818 0.073624
C22   C     C_R   0.052009 0.444624 0.365179 0.073626
C23   C     C_1   0.499992 0.065524 0.499983 -0.136614
C24   C     C_1   0.500008 0.934476 0.500017 -0.136616
N1    N     N_1   0.500020 0.500030 0.073640 -0.063453
N2    N     N_1   0.499980 0.499970 0.926360 -0.063445
O9    O     O_3   0.263317 0.668711 0.943873 -0.737133
H9    H     H_    0.319879 0.643716 0.861475 0.366511
O10   O     O_3   0.736690 0.331279 0.056127 -0.737087
H10   H     H_    0.680109 0.356293 0.138522 0.366480
N3    N     N_R   0.107110 0.705530 0.185002 0.215468
O11   O     O_R   0.000554 0.735495 0.238510 -0.422173
O12   O     O_R   0.191288 0.809307 0.194992 -0.340736
N4    N     N_R   0.892892 0.294471 0.814993 0.215475
O13   O     O_R   0.999455 0.264505 0.761517 -0.422176
O14   O     O_R   0.808714 0.190695 0.804980 -0.340744

loop_
_geom_bond_atom_site_label_1
_geom_bond_atom_site_label_2
_geom_bond_distance
_ccdc_geom_bond_type
C3    C20   1.456412 S    
C20   C22   1.402494 A    
O7    Zn2   2.062333 S    
H1    C15   1.065628 S    
C7    C9    1.409727 A    
C11   C13   1.382738 A    
C13   H5    1.083017 S    
C23   C24   1.164557 T    
C7    N3    1.446698 S    
C18   H8    1.071175 S    
O10   H10   0.978942 S    
O6    C4    1.297365 A    
N1    N2    1.229175 T    
C6    O10   1.380599 S    
N4    O14   1.301720 A    
N3    O12   1.301727 A    
C14   H6    1.083026 S    
C19   C21   1.402493 A    
O9    H9    0.978785 S    
O5    C3    1.297367 A    
O7    C3    1.304113 A    
O2    C2    1.285163 A    
C9    C22   1.441609 S    
O8    C4    1.304114 A    
O3    Zn2   1.945628 S    
O1    C1    1.285164 A    
C10   C21   1.441606 S    
C14   C16   1.391543 A    
O4    C2    1.285183 A    
C17   H7    1.071185 S    
C5    C15   1.419750 A    
C8    C10   1.409734 A    
C6    C8    1.390737 A    
C9    C11   1.395250 A    
O2    Zn2   1.945623 S    
C10   C12   1.395264 A    
C17   C22   1.374616 A    
O1    Zn1   1.945621 S    
C13   C15   1.391519 A    
C18   C21   1.374613 A    
C12   C14   1.382739 A    
O5    Zn1   2.014657 S    
C11   H3    1.083837 S    
C6    C16   1.419768 A    
N4    O13   1.300636 A    
C8    N4    1.446694 S    
N3    O11   1.300664 A    
C2    C24   1.364659 S    
C4    C19   1.456412 S    
C1    C23   1.364659 S    
H2    C16   1.065630 S    
O6    Zn2   2.014657 S    
C5    C7    1.390742 A    
C18   C20   1.385100 A    
Zn1   N2    2.032933 S    
C17   C19   1.385101 A    
C12   H4    1.083849 S    
O4    Zn1   1.945629 S    
C5    O9    1.380571 S    
Zn2   N1    2.032933 S    
O3    C1    1.285182 A    
O8    Zn1   2.062333 S    
