data_mof_unit_45754.cif
_audit_creation_date              2012-12-11T14:11:04-0500
_audit_creation_method            fapswitch 2.2
_symmetry_space_group_name_H-M    P1
_symmetry_Int_Tables_number       1
_space_group_crystal_system       triclinic
_cell_length_a                    20.056602
_cell_length_b                    17.138957
_cell_length_c                    15.650081
_cell_angle_alpha                 90.000519
_cell_angle_beta                  51.552685
_cell_angle_gamma                 89.999153
_cell_volume                      4213.27745355

loop_
_atom_site_label
_atom_site_type_symbol
_atom_type_description
_atom_site_fract_x
_atom_site_fract_y
_atom_site_fract_z
_atom_type_partial_charge
C1    C     C_R   0.351456 0.186596 0.029150 0.160120
C2    C     C_3   0.663013 0.718406 0.466843 -0.155258
C3    C     C_3   0.314269 0.614779 0.165039 -0.963380
C4    C     C_3   0.875024 0.771400 0.024620 -0.468720
C5    C     C_3   0.898696 0.811861 0.921612 -0.212502
C6    C     C_3   0.924288 0.896652 0.916423 -0.946819
C7    C     C_3   0.112752 0.225808 0.971152 -0.440873
C8    C     C_3   0.196420 0.196484 0.863709 -0.236657
C9    C     C_3   0.185740 0.114773 0.834959 -0.963417
C10   C     C_3   0.124965 0.771400 0.975390 -0.468724
C11   C     C_3   0.101294 0.811864 0.078399 -0.212496
C12   C     C_3   0.075690 0.896653 0.083595 -0.946837
C13   C     C_3   0.757816 0.231455 0.444811 -0.141581
C14   C     C_3   0.887256 0.225812 0.028848 -0.440925
C15   C     C_3   0.803598 0.196496 0.136309 -0.236613
C16   C     C_3   0.814282 0.114780 0.165041 -0.963270
C17   C     C_3   0.336933 0.718477 0.533221 -0.155280
C18   C     C_3   0.742022 0.731014 0.555447 -0.141933
C19   C     C_3   0.163107 0.218570 0.466700 -0.155343
C20   C     C_3   0.257999 0.730961 0.444504 -0.141985
C21   C     C_3   0.837218 0.217988 0.532798 -0.155017
C22   C     C_2   0.289176 0.685948 0.940094 -0.237671
C23   C     C_2   0.816398 0.256221 0.894327 -0.204904
C24   C     C_2   0.710818 0.685945 0.059915 -0.237672
C25   C     C_R   0.624935 0.801962 0.006306 0.166601
C26   C     C_2   0.183597 0.256226 0.105689 -0.204830
C27   C     C_2   0.789171 0.185947 0.940109 -0.237688
C28   C     C_2   0.316396 0.756226 0.894323 -0.204906
C29   C     C_2   0.210817 0.185946 0.059919 -0.237675
C30   C     C_2   0.683594 0.756223 0.105690 -0.204909
C31   C     C_R   0.396220 0.802535 0.215057 -0.180252
C32   C     C_R   0.649892 0.173161 0.775651 -0.159883
C33   C     C_R   0.603777 0.802533 0.784944 -0.180263
C34   C     C_R   0.350061 0.173113 0.224329 -0.159749
C35   C     C_R   0.896280 0.302523 0.215025 -0.180285
C36   C     C_R   0.648548 0.186592 0.970840 0.160145
C37   C     C_R   0.149924 0.673126 0.775667 -0.159776
C38   C     C_R   0.103795 0.302536 0.784934 -0.180245
C39   C     C_R   0.850070 0.673122 0.224335 -0.159780
C40   C     C_R   0.368567 0.888965 0.894953 -0.197117
C41   C     C_R   0.669730 0.089181 0.046613 -0.204117
C42   C     C_R   0.631430 0.888965 0.105049 -0.197110
C43   C     C_R   0.330269 0.089183 0.953387 -0.204097
C44   C     C_R   0.868568 0.388963 0.894953 -0.197112
C45   C     C_R   0.169729 0.589183 0.046615 -0.204111
C46   C     C_R   0.131432 0.388966 0.105048 -0.197102
C47   C     C_R   0.375065 0.801963 0.993695 0.166602
C48   C     C_R   0.830269 0.589182 0.953389 -0.204118
C49   C     C_R   0.358595 0.080573 0.318009 -0.127365
C50   C     C_R   0.600066 0.896288 0.690947 -0.126884
C51   C     C_R   0.641348 0.080616 0.681972 -0.127288
C52   C     C_R   0.399925 0.896291 0.309057 -0.126944
C53   C     C_R   0.858605 0.580577 0.318011 -0.127368
C54   C     C_R   0.100091 0.396294 0.690933 -0.126951
C55   C     C_R   0.141389 0.580586 0.681985 -0.127351
C56   C     C_R   0.900010 0.396272 0.309010 -0.126842
C57   C     C_R   0.293846 0.156237 0.016834 0.110790
C58   C     C_R   0.851453 0.686595 0.029154 0.160121
C59   C     C_R   0.648791 0.812250 0.072041 0.102105
C60   C     C_R   0.706155 0.156231 0.983163 0.110806
C61   C     C_R   0.351206 0.812251 0.927963 0.102103
C62   C     C_R   0.793844 0.656235 0.016837 0.110801
C63   C     C_R   0.148793 0.312251 0.072040 0.102098
C64   C     C_R   0.206152 0.656236 0.983170 0.110801
C65   C     C_R   0.851205 0.312250 0.927967 0.102097
C66   C     C_R   0.380785 0.820534 0.310880 0.037449
C67   C     C_R   0.690427 0.140142 0.674153 0.037177
C68   C     C_R   0.619201 0.820529 0.689127 0.037435
C69   C     C_R   0.124936 0.301962 0.006305 0.166606
C70   C     C_R   0.309471 0.140052 0.325812 0.037081
C71   C     C_R   0.880927 0.320505 0.310801 0.037399
C72   C     C_R   0.190501 0.640075 0.674180 0.037100
C73   C     C_R   0.119243 0.320539 0.689103 0.037458
C74   C     C_R   0.809492 0.640069 0.325821 0.037106
C75   C     C_3   0.210516 0.153907 0.540992 -0.163163
C76   C     C_3   0.694137 0.795731 0.482259 -0.167166
C77   C     C_3   0.788892 0.154148 0.459085 -0.163151
C78   C     C_3   0.305774 0.795763 0.517768 -0.167162
C79   C     C_3   0.710677 0.653970 0.540970 -0.163172
C80   C     C_R   0.148542 0.686595 0.970851 0.160122
C81   C     C_3   0.194332 0.295793 0.482195 -0.167131
C82   C     C_3   0.289378 0.653955 0.459019 -0.163166
C83   C     C_3   0.806369 0.295588 0.517574 -0.167259
C84   C     C_3   0.624982 0.692615 0.584536 -0.150927
C85   C     C_3   0.278942 0.257442 0.440320 -0.146314
C86   C     C_3   0.375032 0.692661 0.415512 -0.150908
C87   C     C_3   0.721384 0.257857 0.559906 -0.146696
C88   C     C_3   0.124920 0.192722 0.584431 -0.150889
C89   C     C_3   0.778849 0.757548 0.440254 -0.146405
C90   C     C_3   0.874852 0.192336 0.415201 -0.151035
C91   C     C_R   0.875063 0.301964 0.993700 0.166603
C92   C     C_3   0.221103 0.757520 0.559714 -0.146387
C93   C     C_3   0.657636 0.768979 0.597155 0.186631
C94   C     C_3   0.247399 0.180918 0.425975 0.183533
C95   C     C_3   0.342344 0.768987 0.402854 0.186635
C96   C     C_3   0.752554 0.180965 0.573973 0.183484
C97   C     C_3   0.157675 0.268987 0.597132 0.186640
C98   C     C_3   0.747406 0.680925 0.425989 0.183512
C99   C     C_3   0.842470 0.268969 0.402778 0.186632
C100  C     C_3   0.252581 0.680934 0.574016 0.183523
C101  C     C_3   0.375030 0.271401 0.024613 -0.468735
C102  C     C_3   0.241960 0.230853 0.555552 -0.142068
C103  C     C_3   0.398700 0.311862 0.921605 -0.212492
C104  C     C_3   0.424297 0.396651 0.916412 -0.946858
C105  C     C_3   0.612746 0.725808 0.971155 -0.440878
C106  C     C_3   0.696411 0.696484 0.863708 -0.236655
C107  C     C_3   0.685729 0.614772 0.834963 -0.963371
C108  C     C_3   0.624976 0.271398 0.975375 -0.468715
C109  C     C_3   0.601300 0.311861 0.078385 -0.212506
C110  C     C_3   0.575708 0.396653 0.083571 -0.946821
C111  C     C_3   0.387252 0.725810 0.028846 -0.440868
C112  C     C_3   0.303588 0.696491 0.136294 -0.236657
H1    H     H_    0.401853 0.743291 0.190159 0.122735
H2    H     H_    0.695142 0.051929 0.075993 0.122916
H3    H     H_    0.019926 0.899687 0.084461 0.262305
H4    H     H_    0.058276 0.924272 0.159222 0.249831
H5    H     H_    0.047145 0.780534 0.151907 0.191172
H6    H     H_    0.156077 0.810690 0.079587 0.205115
H7    H     H_    0.174784 0.804597 0.901707 0.173663
H8    H     H_    0.068264 0.773239 0.978223 0.184771
H9    H     H_    0.829774 0.072560 0.101133 0.260686
H10   H     H_    0.865899 0.113920 0.172370 0.263692
H11   H     H_    0.754024 0.096332 0.244171 0.247003
H12   H     H_    0.782305 0.237022 0.204120 0.190958
H13   H     H_    0.633508 0.915504 0.166092 0.107212
H14   H     H_    0.750490 0.195621 0.132134 0.195713
H15   H     H_    0.919103 0.182652 0.961649 0.173519
H16   H     H_    0.935470 0.234103 0.038828 0.167026
H17   H     H_    0.304855 0.051928 0.924015 0.122924
H18   H     H_    0.866488 0.415500 0.833912 0.107215
H19   H     H_    0.195144 0.551930 0.075989 0.122921
H20   H     H_    0.133509 0.415506 0.166090 0.107208
H21   H     H_    0.804855 0.551927 0.924014 0.122924
H22   H     H_    0.348106 0.046782 0.383582 0.091030
H23   H     H_    0.594370 0.925739 0.634682 0.081748
H24   H     H_    0.651821 0.046810 0.616420 0.090925
H25   H     H_    0.669032 0.225907 0.791676 0.104389
H26   H     H_    0.405620 0.925742 0.365325 0.081768
H27   H     H_    0.848117 0.546774 0.383576 0.091029
H28   H     H_    0.094395 0.425743 0.634665 0.081770
H29   H     H_    0.151873 0.546794 0.616414 0.091004
H30   H     H_    0.905709 0.425736 0.365266 0.081733
H31   H     H_    0.560456 0.668095 0.646727 0.114136
H32   H     H_    0.343160 0.283258 0.379802 0.114121
H33   H     H_    0.439582 0.668172 0.353354 0.114139
H34   H     H_    0.657394 0.284009 0.620660 0.114169
H35   H     H_    0.060332 0.168290 0.646553 0.114142
H36   H     H_    0.598147 0.743290 0.809840 0.122737
H37   H     H_    0.843004 0.783454 0.379669 0.114143
H38   H     H_    0.939217 0.167574 0.352836 0.114097
H39   H     H_    0.156923 0.783393 0.620269 0.114131
H40   H     H_    0.217682 0.094898 0.563627 0.108887
H41   H     H_    0.687007 0.854553 0.459145 0.103469
H42   H     H_    0.781214 0.095335 0.436521 0.108839
H43   H     H_    0.312842 0.854605 0.540899 0.103476
H44   H     H_    0.717983 0.595016 0.563585 0.108894
H45   H     H_    0.187356 0.354668 0.459042 0.103474
H46   H     H_    0.282126 0.594980 0.436397 0.108880
H47   H     H_    0.330927 0.225869 0.208315 0.104392
H48   H     H_    0.813901 0.354275 0.540589 0.103447
H49   H     H_    0.273773 0.236932 0.593225 0.112546
H50   H     H_    0.632395 0.711500 0.427763 0.111732
H51   H     H_    0.725787 0.238019 0.407483 0.112408
H52   H     H_    0.367520 0.711623 0.572348 0.111726
H53   H     H_    0.773897 0.737227 0.593021 0.112511
H54   H     H_    0.132552 0.211798 0.427519 0.111722
H55   H     H_    0.226153 0.737122 0.406884 0.112522
H56   H     H_    0.867991 0.210731 0.571629 0.111763
H57   H     H_    0.320882 0.651455 0.961702 0.163705
H58   H     H_    0.901905 0.243282 0.190122 0.122741
H59   H     H_    0.796127 0.280488 0.850463 0.137901
H60   H     H_    0.679115 0.651453 0.038302 0.163705
H61   H     H_    0.203878 0.280499 0.149538 0.137859
H62   H     H_    0.820863 0.151460 0.961743 0.163713
H63   H     H_    0.296114 0.780498 0.850474 0.137877
H64   H     H_    0.179110 0.151452 0.038314 0.163698
H65   H     H_    0.703871 0.780494 0.149544 0.137877
H66   H     H_    0.370402 0.429679 0.987774 0.260960
H67   H     H_    0.480055 0.399690 0.915555 0.262299
H68   H     H_    0.441716 0.424266 0.840780 0.249834
H69   H     H_    0.169057 0.725880 0.791687 0.104392
H70   H     H_    0.452850 0.280531 0.848097 0.191197
H71   H     H_    0.343917 0.310684 0.920416 0.205114
H72   H     H_    0.325209 0.304600 0.098297 0.173666
H73   H     H_    0.431730 0.273240 0.021782 0.184772
H74   H     H_    0.670215 0.572551 0.898878 0.260715
H75   H     H_    0.634127 0.613923 0.827604 0.263714
H76   H     H_    0.745994 0.596317 0.755844 0.247012
H77   H     H_    0.717720 0.737012 0.795896 0.190917
H78   H     H_    0.749509 0.695599 0.867901 0.195736
H79   H     H_    0.580892 0.682654 0.038358 0.173507
H80   H     H_    0.098164 0.243292 0.809826 0.122731
H81   H     H_    0.564542 0.734100 0.961156 0.167028
H82   H     H_    0.629605 0.429675 0.012206 0.260950
H83   H     H_    0.519951 0.399695 0.084425 0.262308
H84   H     H_    0.558290 0.424273 0.159201 0.249830
H85   H     H_    0.547145 0.280536 0.151892 0.191162
H86   H     H_    0.656079 0.310681 0.079584 0.205117
H87   H     H_    0.674799 0.304592 0.901692 0.173668
H88   H     H_    0.568277 0.273240 0.978202 0.184761
H89   H     H_    0.329776 0.572556 0.101127 0.260716
H90   H     H_    0.365875 0.613926 0.172390 0.263716
H91   H     H_    0.830932 0.725876 0.208321 0.104389
H92   H     H_    0.254005 0.596330 0.244162 0.247009
H93   H     H_    0.282279 0.737021 0.204104 0.190909
H94   H     H_    0.250489 0.695608 0.132101 0.195739
H95   H     H_    0.419106 0.682653 0.961643 0.173503
H96   H     H_    0.435457 0.734099 0.038844 0.167026
H97   H     H_    0.870390 0.929678 0.987784 0.260951
H98   H     H_    0.980044 0.899694 0.915572 0.262306
H99   H     H_    0.941710 0.924267 0.840789 0.249829
H100  H     H_    0.952850 0.780532 0.848104 0.191168
H101  H     H_    0.843916 0.810681 0.920418 0.205115
H102  H     H_    0.366487 0.915504 0.833913 0.107215
H103  H     H_    0.825202 0.804597 0.098304 0.173666
H104  H     H_    0.931723 0.773241 0.021792 0.184766
H105  H     H_    0.170222 0.072551 0.898876 0.260723
H106  H     H_    0.134143 0.113924 0.827593 0.263723
H107  H     H_    0.246008 0.096318 0.755843 0.247015
H108  H     H_    0.217732 0.237014 0.795898 0.190900
H109  H     H_    0.249514 0.195599 0.867908 0.195746
H110  H     H_    0.080895 0.182654 0.038356 0.173485
H111  H     H_    0.064552 0.234099 0.961145 0.167031
H112  H     H_    0.129579 0.929679 0.012228 0.260954
N1    N     N_R   0.408680 0.130810 0.995780 -0.061469
N2    N     N_R   0.578590 0.132790 0.846380 -0.044582
N3    N     N_R   0.578590 0.867210 0.846380 -0.039300
N4    N     N_R   0.421410 0.132790 0.153620 -0.044606
N5    N     N_R   0.921410 0.367210 0.153620 -0.039303
N6    N     N_R   0.078590 0.632790 0.846380 -0.044600
N7    N     N_R   0.078590 0.367210 0.846380 -0.039294
N8    N     N_R   0.921410 0.632790 0.153620 -0.044599
N9    N     N_R   0.403840 0.921910 0.935760 -0.045405
N10   N     N_R   0.596160 0.078090 0.064240 -0.047328
N11   N     N_R   0.596160 0.921910 0.064240 -0.045404
N12   N     N_R   0.591320 0.869190 0.004220 -0.063214
N13   N     N_R   0.403840 0.078090 0.935760 -0.047321
N14   N     N_R   0.903840 0.421910 0.935760 -0.045406
N15   N     N_R   0.096160 0.578090 0.064240 -0.047323
N16   N     N_R   0.096160 0.421910 0.064240 -0.045400
N17   N     N_R   0.903840 0.578090 0.935760 -0.047324
N18   N     N_R   0.426250 0.076100 0.213650 -0.038521
N19   N     N_R   0.573750 0.923900 0.786350 -0.031815
N20   N     N_R   0.573750 0.076100 0.786350 -0.038505
N21   N     N_R   0.426250 0.923900 0.213650 -0.031801
N22   N     N_R   0.926250 0.576100 0.213650 -0.038520
N23   N     N_R   0.591320 0.130810 0.004220 -0.061481
N24   N     N_R   0.073750 0.423900 0.786350 -0.031800
N25   N     N_R   0.073750 0.576100 0.786350 -0.038516
N26   N     N_R   0.926250 0.423900 0.213650 -0.031820
N27   N     N_R   0.408680 0.869190 0.995780 -0.063212
N28   N     N_R   0.908680 0.630810 0.995780 -0.061473
N29   N     N_R   0.091320 0.369190 0.004220 -0.063206
N30   N     N_R   0.091320 0.630810 0.004220 -0.061472
N31   N     N_R   0.908680 0.369190 0.995780 -0.063215
N32   N     N_R   0.421410 0.867210 0.153620 -0.039294
Ni1   Ni    Ni4+2 0.500000 0.131570 0.000000 0.192896
Ni2   Ni    Ni4+2 0.500000 0.868430 0.000000 0.194794
Ni3   Ni    Ni4+2 0.000000 0.631570 0.000000 0.192895
Ni4   Ni    Ni4+2 0.000000 0.368430 0.000000 0.194794
Ni5   Ni    Ni4+2 0.488900 1.000000 0.862310 0.202486
Ni6   Ni    Ni4+2 0.511100 0.000000 0.137690 0.202474
Ni7   Ni    Ni4+2 0.988900 0.500000 0.862310 0.202479
Ni8   Ni    Ni4+2 0.011100 0.500000 0.137690 0.202471

loop_
_geom_bond_atom_site_label_1
_geom_bond_atom_site_label_2
_ccdc_geom_bond_type
C9    H106  S    
C58   C62   A    
C31   C66   A    
C83   C87   S    
C49   H22   S    
C16   H9    S    
C13   C99   S    
C55   H29   S    
C87   H34   S    
C39   H91   S    
N12   Ni2   S    
C36   C108  S    
C103  H70   S    
N1    N13   A    
C105  H79   S    
C79   C98   S    
C58   N28   A    
N7    N24   A    
C76   C93   S    
N22   Ni8   S    
C41   H2    S    
C90   H38   S    
C2    C76   S    
C52   N21   A    
C2    H50   S    
C49   N18   A    
C109  H86   S    
C3    C112  S    
C7    C8    S    
C74   C98   S    
C6    H97   S    
C104  H68   S    
C40   N9    A    
C2    C98   S    
C73   C97   S    
C20   C92   S    
C107  H74   S    
N9    N27   A    
N16   N29   A    
C21   H56   S    
C80   N30   A    
C31   N32   A    
C103  H71   S    
C70   C94   S    
C16   H11   S    
C112  H93   S    
C75   C94   S    
C20   C82   S    
C50   H23   S    
N27   Ni2   S    
N3    N19   A    
C5    C6    S    
C77   H42   S    
C78   H43   S    
C104  H67   S    
C41   N10   A    
C3    H90   S    
C44   H18   S    
C15   C16   S    
C107  H75   S    
C76   H41   S    
C14   H16   S    
C108  C109  S    
C27   H62   S    
C51   N20   A    
C85   C94   S    
C39   C74   A    
C20   H55   S    
C16   H10   S    
C53   N22   A    
C12   H112  S    
C10   H7    S    
C43   N13   A    
N3    Ni2   S    
C79   H44   S    
C2    C84   S    
C88   H35   S    
C104  H66   S    
C83   H48   S    
C111  C112  S    
C25   N12   A    
C18   C79   S    
C15   H14   S    
N32   Ni2   S    
C109  H85   S    
C110  H82   S    
C75   C102  S    
C52   H26   S    
N11   N12   A    
C55   N25   A    
C105  C106  S    
C19   H54   S    
C54   N24   A    
N6    N25   A    
C103  C104  S    
C75   H40   S    
C47   N27   A    
N5    N26   A    
C42   H13   S    
C76   C89   S    
C111  H95   S    
C12   H3    S    
C56   H30   S    
C34   H47   S    
C9    H107  S    
C1    N1    A    
C89   H37   S    
C5    H101  S    
C101  C103  S    
C4    H103  S    
C83   C99   S    
C87   C96   S    
C38   C73   A    
C3    H92   S    
C64   C80   A    
N17   Ni7   S    
N14   Ni7   S    
N17   N28   A    
N16   Ni8   S    
C101  H73   S    
N21   Ni6   S    
N2    Ni1   S    
C42   N11   A    
N23   Ni1   S    
C18   H53   S    
C13   H51   S    
C13   C77   S    
C21   C90   S    
C37   N6    A    
N21   N32   A    
C54   H28   S    
C77   C90   S    
C22   C64   S    
C81   H45   S    
C15   H12   S    
N13   Ni5   S    
C17   C86   S    
C22   H57   S    
C21   C83   S    
C48   H21   S    
C43   H17   S    
C19   C88   S    
C25   C105  S    
C7    H110  S    
C10   C80   S    
N4    Ni1   S    
C8    C9    S    
C6    H99   S    
C84   H31   S    
C78   C92   S    
C82   C86   S    
C71   C99   S    
C107  H76   S    
N8    Ni3   S    
C36   N23   A    
C14   H15   S    
C56   N26   A    
C35   N5    A    
C108  H88   S    
C34   N4    A    
C26   C63   S    
C45   N15   A    
C7    C69   S    
C8    H108  S    
C17   H52   S    
C1    C57   A    
N10   N23   A    
C91   N31   A    
C54   C73   A    
C7    H111  S    
C51   H24   S    
N2    N20   A    
C63   C69   A    
C78   C95   S    
C18   C93   S    
C56   C71   A    
C37   H69   S    
C30   C59   S    
C13   C87   S    
C92   H39   S    
N18   Ni6   S    
C43   C57   A    
N4    N18   A    
C82   H46   S    
C51   C67   A    
N25   Ni7   S    
C101  H72   S    
N26   Ni8   S    
C19   C94   S    
C32   C67   A    
C32   H25   S    
C20   C95   S    
C29   C57   S    
C50   N19   A    
N11   Ni6   S    
C23   C27   D    
C49   C70   A    
C110  H84   S    
C67   C96   S    
C3    H89   S    
N15   Ni8   S    
C106  H78   S    
C29   H64   S    
C40   H102  S    
C11   H5    S    
C86   H33   S    
C1    C101  S    
C90   C99   S    
C110  H83   S    
C52   C66   A    
C92   C100  S    
N9    Ni5   S    
C72   C100  S    
C9    H105  S    
C65   C91   A    
C5    H100  S    
C34   C70   A    
N31   Ni4   S    
C69   N29   A    
C24   C62   S    
C45   C64   A    
C53   H27   S    
C18   C89   S    
C82   C100  S    
C55   C72   A    
C41   C60   A    
C32   N2    A    
C48   N17   A    
C33   N3    A    
C44   N14   A    
C42   C59   A    
C47   C61   A    
C11   C12   S    
C28   H63   S    
C45   H19   S    
C38   N7    A    
C6    H98   S    
C21   C96   S    
N19   Ni5   S    
N7    Ni4   S    
N14   N31   A    
C77   C96   S    
C38   H80   S    
C68   C93   S    
C26   H61   S    
C8    H109  S    
C89   C98   S    
C27   C60   S    
C33   H36   S    
N24   Ni7   S    
C108  H87   S    
C48   C62   A    
C88   C97   S    
C112  H94   S    
C39   N8    A    
C109  C110  S    
C28   C61   S    
C46   H20   S    
C105  H81   S    
N29   Ni4   S    
C23   C65   S    
C79   C84   S    
C46   C63   A    
C81   C97   S    
N30   Ni3   S    
N1    Ni1   S    
C102  H49   S    
C47   C111  S    
C4    C5    S    
C111  H96   S    
C44   C65   A    
C17   C78   S    
C30   H65   S    
C46   N16   A    
N8    N22   A    
C84   C93   S    
C24   H60   S    
C17   C100  S    
C24   C30   D    
C14   C91   S    
C85   H32   S    
C10   H8    S    
C10   C11   S    
C40   C61   A    
C35   C71   A    
N5    Ni4   S    
C75   C88   S    
N10   Ni6   S    
C23   H59   S    
N6    Ni3   S    
N28   Ni3   S    
C26   C29   D    
C106  C107  S    
C37   C72   A    
C4    C58   S    
C4    H104  S    
C35   H58   S    
C36   C60   A    
C14   C15   S    
C106  H77   S    
C22   C28   D    
N20   Ni5   S    
C25   C59   A    
N15   N30   A    
C86   C95   S    
C19   C81   S    
C11   H6    S    
C50   C68   A    
C97   C102  S    
C31   H1    S    
C81   C85   S    
C85   C102  S    
C33   C68   A    
C66   C95   S    
C12   H4    S    
C53   C74   A    
