data_mof_unit_48246.cif
_audit_creation_date              2012-12-10T18:57:09-0500
_audit_creation_method            fapswitch 2.2
_symmetry_space_group_name_H-M    P1
_symmetry_Int_Tables_number       1
_space_group_crystal_system       triclinic
_cell_length_a                    10.745814
_cell_length_b                    9.887527
_cell_length_c                    10.982208
_cell_angle_alpha                 89.999905
_cell_angle_beta                  93.205652
_cell_angle_gamma                 89.993081
_cell_volume                      1165.02855438

loop_
_atom_site_label
_atom_site_type_symbol
_atom_type_description
_atom_site_fract_x
_atom_site_fract_y
_atom_site_fract_z
_atom_type_partial_charge
C1    C     C_R   0.261038 0.499411 0.513272 0.884992
C2    C     C_R   0.496003 0.611293 0.938510 0.019238
C3    C     C_R   0.506457 0.493245 0.129248 -0.174156
C4    C     C_R   0.493500 0.493247 0.870746 -0.174131
C5    C     C_R   0.505470 0.368041 0.064254 -0.070471
C6    C     C_R   0.494457 0.368044 0.935738 -0.070481
C7    C     C_3   0.488923 0.762388 0.929124 0.313924
C8    C     C_3   0.511006 0.762388 0.070865 0.313911
C9    C     C_R   0.062942 0.372268 0.517914 -0.055477
C10   C     C_R   0.937140 0.372233 0.482492 -0.055464
C11   C     C_R   0.872678 0.496547 0.473663 -0.175680
C12   C     C_R   0.738979 0.499394 0.486783 0.884956
C13   C     C_R   0.127362 0.496592 0.526519 -0.175732
C14   C     C_R   0.938847 0.618767 0.477410 -0.038748
C15   C     C_R   0.061158 0.618798 0.522657 -0.038732
C16   C     C_1   0.519710 0.238485 0.126143 0.226569
C17   C     C_1   0.480171 0.238498 0.873845 0.226572
C18   C     C_3   0.592812 0.827626 0.860444 -0.799210
C19   C     C_3   0.407104 0.827629 0.139544 -0.799208
C20   C     C_3   0.357886 0.805730 0.877711 -0.830697
C21   C     C_3   0.642035 0.805725 0.122275 -0.830695
C22   C     C_1   0.120519 0.245753 0.557994 0.210587
C23   C     C_R   0.598044 0.073065 0.551629 -0.049753
C24   C     C_1   0.879638 0.245626 0.442596 0.210620
C25   C     C_1   0.889679 0.739735 0.417850 0.231375
C26   C     C_1   0.110286 0.739816 0.582136 0.231379
C27   C     C_1   0.708289 0.866001 0.606441 0.215765
C28   C     C_1   0.291702 0.866046 0.393582 0.215708
C29   C     C_R   0.401943 0.073089 0.448391 -0.049753
C30   C     C_R   0.600294 0.930227 0.548945 0.022787
C31   C     C_R   0.399700 0.930251 0.451067 0.022756
C32   C     C_R   0.503355 0.499044 0.260561 0.891430
C33   C     C_R   0.496632 0.499045 0.739437 0.891358
C34   C     C_R   0.503952 0.611293 0.061484 0.019228
H1    H     H_    0.675066 0.128735 0.595132 0.141312
H2    H     H_    0.344461 0.916011 0.889341 0.256133
H3    H     H_    0.346874 0.782363 0.778982 0.262583
H4    H     H_    0.717114 0.751131 0.077009 0.224710
H5    H     H_    0.655443 0.916003 0.110634 0.256116
H6    H     H_    0.653047 0.782368 0.221006 0.262608
H7    H     H_    0.324903 0.128777 0.404917 0.141296
H8    H     H_    0.557213 0.843836 0.766129 0.259595
H9    H     H_    0.617033 0.928665 0.898536 0.237221
H10   H     H_    0.677505 0.763119 0.862190 0.231502
H11   H     H_    0.442712 0.843871 0.233846 0.259588
H12   H     H_    0.382843 0.928656 0.101435 0.237227
H13   H     H_    0.322435 0.763113 0.137824 0.231508
H14   H     H_    0.282817 0.751147 0.922984 0.224711
N1    N     N_R   0.500000 0.857200 0.500000 -0.136255
N2    N     N_1   0.204731 0.817502 0.344305 -0.210586
N3    N     N_R   0.500000 0.142810 0.500000 -0.095597
N4    N     N_1   0.531565 0.135794 0.175895 -0.218512
N5    N     N_1   0.468279 0.135816 0.824091 -0.218466
N6    N     N_1   0.165230 0.145013 0.591428 -0.186349
N7    N     N_1   0.835003 0.144798 0.409306 -0.186486
N8    N     N_1   0.852114 0.836374 0.369108 -0.197163
N9    N     N_1   0.147818 0.836494 0.630817 -0.197165
N10   N     N_1   0.795259 0.817440 0.655725 -0.210602
O1    O     O_R   0.316770 0.614620 0.499990 -0.614636
O2    O     O_R   0.683230 0.614620 0.500010 -0.614621
O3    O     O_R   0.316800 0.385290 0.500000 -0.622386
O4    O     O_R   0.683200 0.385290 0.500000 -0.622375
O5    O     O_R   0.500000 0.614690 0.316780 -0.625448
O6    O     O_R   0.500000 0.614690 0.683220 -0.625479
O7    O     O_R   0.500020 0.385360 0.316780 -0.614370
O8    O     O_R   0.499980 0.385360 0.683220 -0.614399
Zn1   Zn    Zn3+2 0.500000 0.653120 0.500000 0.958208
Zn2   Zn    Zn3+2 0.500000 0.346880 0.500000 0.981809

loop_
_geom_bond_atom_site_label_1
_geom_bond_atom_site_label_2
_ccdc_geom_bond_type
C3    C32   S    
O8    Zn2   S    
C11   C12   S    
C19   H11   S    
C18   H10   S    
C12   O4    A    
C9    C10   A    
C2    C4    A    
C2    C7    S    
C21   H5    S    
C25   N8    T    
O4    Zn2   S    
C3    C5    A    
O7    Zn2   S    
C10   C24   S    
C7    C18   S    
C1    O1    A    
C8    C21   S    
C19   H12   S    
C5    C16   S    
C7    C8    S    
C29   C31   A    
C8    C34   S    
C18   H9    S    
C24   N7    T    
C20   H3    S    
O3    Zn2   S    
C2    C34   A    
C20   H14   S    
C21   H6    S    
C28   N2    T    
C31   N1    A    
C33   O6    A    
C4    C6    A    
C26   N9    T    
C30   N1    A    
C33   O8    A    
C23   H1    S    
N3    Zn2   S    
C13   C15   A    
C14   C25   S    
C5    C6    A    
C11   C14   A    
O5    Zn1   S    
C9    C22   S    
C8    C19   S    
C1    C13   S    
C10   C11   A    
C12   O2    A    
O6    Zn1   S    
C17   N5    T    
O1    Zn1   S    
C23   C30   A    
C32   O5    A    
C22   N6    T    
C7    C20   S    
C29   N3    A    
C19   H13   S    
C6    C17   S    
C9    C13   A    
C4    C33   S    
C15   C26   S    
N1    Zn1   S    
C18   H8    S    
C29   H7    S    
C3    C34   A    
C14   C15   A    
C23   N3    A    
C28   C31   S    
C21   H4    S    
C16   N4    T    
O2    Zn1   S    
C1    O3    A    
C32   O7    A    
C27   C30   S    
C27   N10   T    
C20   H2    S    
