data_mof_unit_53852.cif
_audit_creation_date              2012-12-10T17:25:28-0500
_audit_creation_method            fapswitch 2.2
_symmetry_space_group_name_H-M    P1
_symmetry_Int_Tables_number       1
_space_group_crystal_system       triclinic
_cell_length_a                    10.090627
_cell_length_b                    10.905242
_cell_length_c                    23.261226
_cell_angle_alpha                 89.484554
_cell_angle_beta                  81.901583
_cell_angle_gamma                 95.31159
_cell_volume                      2522.6437079

loop_
_atom_site_label
_atom_site_type_symbol
_atom_type_description
_atom_site_fract_x
_atom_site_fract_y
_atom_site_fract_z
_atom_type_partial_charge
C1    C     C_R   0.556344 0.732385 0.496723 0.989858
C2    C     C_R   0.369199 0.467804 0.309129 -0.359551
C3    C     C_R   0.366743 0.385417 0.761513 0.544763
C4    C     C_R   0.352714 0.466375 0.250949 0.503790
C5    C     C_R   0.465301 0.437296 0.792830 0.030583
C6    C     C_R   0.464180 0.495917 0.208880 0.048793
C7    C     C_2   0.588564 0.863836 0.497012 -0.332054
C8    C     C_2   0.411794 0.136027 0.509262 -0.356627
C9    C     C_2   0.487371 0.934320 0.508316 -0.139174
C10   C     C_2   0.513385 0.065430 0.506559 -0.133032
C11   C     C_2   0.928557 0.514278 0.502276 -0.046593
C12   C     C_R   0.443721 0.267590 0.504550 0.921703
C13   C     C_2   0.073374 0.491827 0.494440 -0.124823
C14   C     C_R   0.500675 0.498778 0.610800 1.028795
C15   C     C_R   0.499817 0.503260 0.388981 0.976063
C16   C     C_R   0.463792 0.372425 0.124075 0.656770
C17   C     C_R   0.405490 0.544228 0.880576 0.660093
C18   C     C_R   0.405582 0.579508 0.120982 0.563914
C19   C     C_R   0.448202 0.333079 0.885971 0.608205
C20   C     C_R   0.391284 0.570486 0.062022 -0.171040
C21   C     C_R   0.429458 0.334941 0.946939 -0.187888
C22   C     C_R   0.412610 0.457655 0.034429 -0.140913
C23   C     C_R   0.584013 0.502272 0.764574 0.371779
C24   C     C_R   0.410708 0.448479 0.974228 -0.147665
C25   C     C_R   0.439096 0.354671 0.066727 -0.210632
C26   C     C_R   0.395543 0.554002 0.941042 -0.187475
C27   C     C_R   0.360587 0.671496 0.029576 0.439258
C28   C     C_R   0.432144 0.227860 0.981310 0.464728
C29   C     C_R   0.374134 0.666444 0.968932 0.405965
C30   C     C_R   0.439635 0.237820 0.040788 0.437761
C31   C     C_3   0.183550 0.771627 0.067419 -0.230264
C32   C     C_3   0.296279 0.072153 0.948112 -0.192985
C33   C     C_3   0.497571 0.835090 0.926258 -0.099409
C34   C     C_R   0.591421 0.534394 0.224445 0.398722
C35   C     C_3   0.322411 0.089859 0.101931 -0.113747
C36   C     C_3   0.771364 0.463254 0.802150 -0.188786
C37   C     C_3   0.707190 0.668146 0.154113 -0.139945
C38   C     C_3   0.231065 0.204106 0.772333 -0.245286
C39   C     C_3   0.136468 0.507751 0.248673 -0.135304
C40   C     C_R   0.597853 0.528301 0.704544 0.361331
C41   C     C_R   0.607199 0.540942 0.283709 0.292853
C42   C     C_R   0.495450 0.479368 0.673228 -0.302125
C43   C     C_R   0.494363 0.504749 0.326252 -0.312090
C44   C     C_R   0.382012 0.407989 0.701801 -0.388468
H1    H     H_    0.119931 0.614932 0.552394 0.195995
H2    H     H_    0.893850 0.586932 0.530424 0.193039
H3    H     H_    0.153199 0.854122 0.091426 0.165931
H4    H     H_    0.141418 0.689623 0.095267 0.170580
H5    H     H_    0.138781 0.770420 0.026325 0.157213
H6    H     H_    0.297410 0.046746 0.901981 0.214937
H7    H     H_    0.221033 0.140724 0.958070 0.104958
H8    H     H_    0.260497 0.988111 0.975100 0.205114
H9    H     H_    0.573566 0.774092 0.906495 0.149430
H10   H     H_    0.528205 0.875382 0.966690 0.193133
H11   H     H_    0.496966 0.911400 0.894521 0.225702
H12   H     H_    0.878556 0.380258 0.450109 0.179386
H13   H     H_    0.248890 0.069028 0.071220 0.107315
H14   H     H_    0.283145 0.157218 0.134087 0.160386
H15   H     H_    0.331037 0.003586 0.126162 0.225696
H16   H     H_    0.721526 0.378718 0.825962 0.158750
H17   H     H_    0.822839 0.439194 0.758770 0.193098
H18   H     H_    0.849702 0.503363 0.827329 0.201447
H19   H     H_    0.664870 0.657643 0.112807 0.150203
H20   H     H_    0.813986 0.704832 0.142447 0.182508
H21   H     H_    0.655990 0.738209 0.181511 0.164732
H22   H     H_    0.777042 0.757692 0.598443 0.366455
H23   H     H_    0.303068 0.372297 0.677670 0.200882
H24   H     H_    0.690215 0.760576 0.342799 0.332160
H25   H     H_    0.324779 0.156633 0.770115 0.187617
H26   H     H_    0.193228 0.201159 0.729735 0.160310
H27   H     H_    0.153834 0.151750 0.804218 0.192666
H28   H     H_    0.173651 0.601286 0.230340 0.183920
H29   H     H_    0.107758 0.511543 0.296492 0.185552
H30   H     H_    0.044407 0.477436 0.229634 0.236544
H31   H     H_    0.283550 0.436807 0.341095 0.200154
H32   H     H_    0.617860 0.104066 0.501333 0.192885
H33   H     H_    0.383051 0.895637 0.517471 0.192433
H34   H     H_    0.307558 0.097001 0.514452 0.155595
H35   H     H_    0.692668 0.902849 0.487878 0.156406
H36   H     H_    0.109590 0.424017 0.463685 0.161447
N1    N     N_R   0.446990 0.483217 0.149400 -0.315159
N2    N     N_R   0.438118 0.437269 0.854697 -0.312738
N3    N     N_2   0.842710 0.448880 0.476480 -0.178463
N4    N     N_2   0.157290 0.551120 0.523520 -0.188848
O1    O     O_R   0.431060 0.692470 0.504730 -0.625280
O2    O     O_2   0.384133 0.640536 0.847311 -0.489005
O3    O     O_2   0.384153 0.684725 0.149451 -0.548149
O4    O     O_2   0.481152 0.230150 0.857863 -0.551887
O5    O     O_3   0.325255 0.778989 0.056106 -0.550624
O6    O     O_3   0.429160 0.112088 0.957473 -0.567905
O7    O     O_3   0.367047 0.773027 0.937359 -0.582932
O8    O     O_3   0.450746 0.132179 0.072474 -0.536227
O9    O     O_3   0.679308 0.551217 0.797372 -0.560937
O10   O     O_3   0.703040 0.551954 0.182100 -0.563332
O11   O     O_2   0.795985 0.709476 0.714187 -0.221490
O12   O     O_R   0.568940 0.307530 0.495270 -0.625089
O13   O     O_2   0.843872 0.548526 0.643725 -0.350137
O14   O     O_3   0.691837 0.716120 0.618979 -0.577734
O15   O     O_2   0.831288 0.490390 0.324817 -0.283378
O16   O     O_2   0.858823 0.660167 0.253877 -0.303851
O17   O     O_3   0.743317 0.698307 0.357560 -0.530635
O18   O     O_3   0.249067 0.326378 0.791202 -0.592002
O19   O     O_3   0.231435 0.422047 0.234055 -0.624418
O20   O     O_R   0.651120 0.659650 0.489640 -0.580244
O21   O     O_R   0.348880 0.340350 0.510360 -0.622240
O22   O     O_R   0.389950 0.516450 0.591390 -0.612853
O23   O     O_R   0.610050 0.483550 0.408610 -0.521025
O24   O     O_R   0.610020 0.483630 0.576300 -0.572851
O25   O     O_R   0.389980 0.516370 0.423700 -0.636313
O26   O     O_2   0.505826 0.280995 0.154390 -0.492008
S1    S     S_3+6 0.738030 0.627028 0.670696 0.040737
S2    S     S_3+6 0.765808 0.597165 0.303694 0.044252
Zn1   Zn    Zn3+2 0.353060 0.521920 0.510080 0.965146
Zn2   Zn    Zn3+2 0.646940 0.478080 0.489920 1.043189

loop_
_geom_bond_atom_site_label_1
_geom_bond_atom_site_label_2
_ccdc_geom_bond_type
C33   H11   S    
C38   H26   S    
N4    Zn1   S    
C27   C29   A    
C15   O25   A    
C16   O26   S    
C32   H7    S    
O17   S2    S    
C13   N4    D    
C35   H14   S    
C17   C26   A    
O21   Zn1   S    
C19   C21   A    
C24   C26   A    
C33   O7    S    
C12   O21   A    
O13   S1    D    
C15   O23   A    
C23   C40   A    
C4    O19   S    
C25   C30   A    
C18   N1    A    
C35   H15   S    
C17   N2    A    
C39   H30   S    
O24   Zn2   S    
C32   H8    S    
C10   H32   S    
C36   O9    S    
C32   O6    S    
C31   O5    S    
C22   C25   A    
C37   H21   S    
C39   H28   S    
C19   N2    A    
C9    C10   S    
O25   Zn1   S    
C14   C42   S    
C35   O8    S    
C14   O24   A    
C38   H25   S    
C6    N1    S    
C31   H3    S    
C8    H34   S    
C41   C43   A    
N3    Zn2   S    
O12   Zn2   S    
C34   C41   A    
C42   C44   A    
C31   H5    S    
C36   H18   S    
C37   H19   S    
C40   S1    S    
C33   H9    S    
C3    C44   A    
C44   H23   S    
O22   Zn1   S    
C17   O2    S    
H24   O17   S    
C4    C6    A    
C19   O4    S    
C36   H16   S    
C41   S2    S    
C23   O9    S    
C2    C4    A    
O23   Zn2   S    
C5    C23   A    
C2    C43   A    
C8    C12   S    
C9    H33   S    
C1    O20   A    
C32   H6    S    
O20   Zn2   S    
C3    O18   S    
C30   O8    S    
C21   C28   A    
C20   C22   A    
O16   S2    D    
C31   H4    S    
C22   C24   A    
C1    O1    A    
C36   H17   S    
C29   O7    S    
C37   H20   S    
H12   N3    S    
C7    H35   S    
C16   C25   A    
C7    C9    D    
C38   H27   S    
O14   S1    S    
C1    C7    S    
C34   O10   S    
C40   C42   A    
C3    C5    A    
C39   O19   S    
C20   C27   A    
C18   O3    S    
C35   H13   S    
C11   N3    D    
H22   O14   S    
O1    Zn1   S    
C15   C43   S    
C38   O18   S    
O11   S1    D    
C5    N2    S    
C11   C13   S    
C33   H10   S    
O15   S2    D    
C28   C30   A    
C16   N1    A    
C37   O10   S    
C27   O5    S    
C18   C20   A    
C39   H29   S    
C13   H36   S    
H1    N4    S    
C6    C34   A    
C14   O22   A    
C26   C29   A    
C8    C10   D    
C21   C24   A    
C12   O12   A    
C11   H2    S    
C28   O6    S    
C2    H31   S    
