data_mof_unit_61663.cif
_audit_creation_date              2012-12-10T16:55:24-0500
_audit_creation_method            fapswitch 2.2
_symmetry_space_group_name_H-M    P1
_symmetry_Int_Tables_number       1
_space_group_crystal_system       triclinic
_cell_length_a                    29.33838
_cell_length_b                    30.837553
_cell_length_c                    21.0888
_cell_angle_alpha                 89.732817
_cell_angle_beta                  133.700291
_cell_angle_gamma                 90.38399
_cell_volume                      13793.5040495

loop_
_atom_site_label
_atom_site_type_symbol
_atom_type_description
_atom_site_fract_x
_atom_site_fract_y
_atom_site_fract_z
_atom_type_partial_charge
C1    C     C_R   0.307008 0.190869 0.119508 0.844311
C2    C     C_R   0.692992 0.809131 0.880492 0.844318
C3    C     C_R   0.696764 0.190939 0.880906 0.824201
C4    C     C_R   0.303236 0.809061 0.119094 0.824199
C5    C     C_R   0.807010 0.690869 0.119509 0.844300
C6    C     C_R   0.192992 0.309131 0.880492 0.844312
C7    C     C_R   0.196764 0.690939 0.880906 0.824197
C8    C     C_R   0.803257 0.309060 0.119103 0.824282
C9    C     C_R   0.338657 0.098987 0.261153 -0.017569
C10   C     C_R   0.661343 0.901012 0.738845 -0.017558
C11   C     C_R   0.647356 0.081427 0.775606 -0.038498
C12   C     C_R   0.352649 0.918572 0.224396 -0.038494
C13   C     C_R   0.838670 0.599010 0.261199 -0.017429
C14   C     C_R   0.161343 0.401012 0.738846 -0.017554
C15   C     C_R   0.147352 0.581427 0.775604 -0.038492
C16   C     C_R   0.852555 0.418575 0.224397 -0.038518
C17   C     C_R   0.317261 0.140025 0.221233 0.028632
C18   C     C_R   0.682737 0.859973 0.778765 0.028629
C19   C     C_R   0.690787 0.113730 0.836030 0.059069
C20   C     C_R   0.309216 0.886270 0.163971 0.059064
C21   C     C_R   0.817289 0.640050 0.221282 0.028611
C22   C     C_R   0.182738 0.359974 0.778766 0.028633
C23   C     C_R   0.190784 0.613730 0.836029 0.059064
C24   C     C_R   0.809168 0.386245 0.164013 0.059046
C25   C     C_R   0.342250 0.157987 0.188430 -0.138311
C26   C     C_R   0.657750 0.842013 0.811570 -0.138312
C27   C     C_R   0.672699 0.157910 0.812439 -0.184254
C28   C     C_R   0.327302 0.842090 0.187561 -0.184256
C29   C     C_R   0.842254 0.657987 0.188431 -0.138290
C30   C     C_R   0.157749 0.342013 0.811570 -0.138315
C31   C     C_R   0.172699 0.657910 0.812438 -0.184258
C32   C     C_R   0.827357 0.342079 0.187596 -0.184218
C33   C     C_R   0.393844 0.138426 0.206967 0.153520
C34   C     C_R   0.606157 0.861575 0.793034 0.153518
C35   C     C_R   0.624911 0.169124 0.722244 0.163489
C36   C     C_R   0.375088 0.830874 0.277756 0.163506
C37   C     C_R   0.893818 0.638403 0.206921 0.153500
C38   C     C_R   0.106157 0.361575 0.793035 0.153513
C39   C     C_R   0.124911 0.669126 0.722244 0.163512
C40   C     C_R   0.875266 0.330874 0.277785 0.163370
C41   C     C_R   0.419990 0.100049 0.257361 0.167253
C42   C     C_R   0.580012 0.899952 0.742641 0.167251
C43   C     C_R   0.583398 0.136677 0.660417 0.147239
C44   C     C_R   0.416601 0.863322 0.339584 0.147226
C45   C     C_R   0.919958 0.600027 0.257317 0.167208
C46   C     C_R   0.080011 0.399952 0.742641 0.167248
C47   C     C_R   0.083398 0.636678 0.660416 0.147223
C48   C     C_R   0.916752 0.363342 0.339559 0.147262
C49   C     C_R   0.396532 0.083524 0.292989 -0.174358
C50   C     C_R   0.603469 0.916476 0.707011 -0.174349
C51   C     C_R   0.594872 0.093106 0.687876 -0.127718
C52   C     C_R   0.405130 0.906893 0.312127 -0.127718
C53   C     C_R   0.896523 0.583524 0.292988 -0.174298
C54   C     C_R   0.103469 0.416476 0.707011 -0.174379
C55   C     C_R   0.094870 0.593108 0.687873 -0.127720
C56   C     C_R   0.905126 0.406915 0.312097 -0.127690
C57   C     C_R   0.939364 0.440547 0.378781 0.845920
C58   C     C_R   0.060619 0.559474 0.621182 0.845942
C59   C     C_R   0.064955 0.445784 0.630185 0.826019
C60   C     C_R   0.935044 0.554217 0.369815 0.825892
C61   C     C_R   0.439381 0.940526 0.378817 0.845943
C62   C     C_R   0.560621 0.059472 0.621185 0.845938
C63   C     C_R   0.564955 0.945784 0.630185 0.825974
C64   C     C_R   0.435045 0.054216 0.369815 0.825983
C65   C     C_R   0.335338 0.249270 0.001499 0.785813
C66   C     C_R   0.664664 0.750728 0.998505 0.785783
C67   C     C_R   0.665483 0.249773 0.000215 0.796794
C68   C     C_R   0.334516 0.750226 0.999784 0.796739
C69   C     C_R   0.835338 0.749270 0.001499 0.785806
C70   C     C_R   0.164662 0.250730 0.998501 0.785812
C71   C     C_R   0.165483 0.749774 0.000217 0.796740
C72   C     C_R   0.834517 0.250226 0.999784 0.796708
C73   C     C_1   0.386891 0.249140 0.002044 -0.200836
C74   C     C_1   0.613113 0.750856 0.997965 -0.200800
C75   C     C_1   0.614550 0.249591 0.000884 -0.192299
C76   C     C_1   0.385449 0.750408 0.999114 -0.192299
C77   C     C_1   0.886891 0.749140 0.002044 -0.200832
C78   C     C_1   0.113108 0.250860 0.997956 -0.200836
C79   C     C_1   0.114551 0.749592 0.000887 -0.192299
C80   C     C_1   0.885448 0.250408 0.999113 -0.192304
C81   C     C_1   0.429383 0.249169 0.002058 0.002238
C82   C     C_1   0.570621 0.750827 0.997950 0.002234
C83   C     C_1   0.572257 0.249489 0.001280 -0.000529
C84   C     C_1   0.427743 0.750509 0.998721 -0.000538
C85   C     C_1   0.929383 0.749169 0.002058 0.002239
C86   C     C_1   0.070617 0.250831 0.997941 0.002238
C87   C     C_1   0.072258 0.749490 0.001282 -0.000537
C88   C     C_1   0.927742 0.250510 0.998718 -0.000544
C89   C     C_1   0.479670 0.249270 0.001868 -0.000621
C90   C     C_1   0.520332 0.750726 0.998138 -0.000624
C91   C     C_1   0.522046 0.249371 0.001633 0.000183
C92   C     C_1   0.477956 0.750627 0.998371 0.000187
C93   C     C_1   0.979671 0.749271 0.001868 -0.000620
C94   C     C_1   0.020329 0.250730 0.998131 -0.000621
C95   C     C_1   0.022047 0.749371 0.001634 0.000186
C96   C     C_1   0.977953 0.250629 0.998366 0.000183
C97   C     C_R   0.270728 0.160471 0.214674 0.116792
C98   C     C_R   0.729268 0.839526 0.785320 0.116785
C99   C     C_R   0.751288 0.100101 0.916036 0.172002
C100  C     C_R   0.248715 0.899901 0.083965 0.172009
C101  C     C_R   0.770791 0.660521 0.214775 0.116731
C102  C     C_R   0.229269 0.339527 0.785322 0.116794
C103  C     C_R   0.251285 0.600099 0.916035 0.172009
C104  C     C_R   0.748610 0.399833 0.084053 0.171945
C105  C     C_R   0.234368 0.135437 0.221822 -0.121191
C106  C     C_R   0.765627 0.864558 0.778168 -0.121188
C107  C     C_R   0.760009 0.056986 0.943621 -0.146302
C108  C     C_R   0.239998 0.943017 0.056382 -0.146301
C109  C     C_R   0.734446 0.635511 0.221978 -0.121161
C110  C     C_R   0.265629 0.364560 0.778173 -0.121194
C111  C     C_R   0.260004 0.556983 0.943617 -0.146303
C112  C     C_R   0.739777 0.442954 0.056445 -0.146283
C113  C     C_R   0.247457 0.091598 0.243631 0.191340
C114  C     C_R   0.752539 0.908397 0.756357 0.191336
C115  C     C_R   0.712550 0.026127 0.889128 0.195153
C116  C     C_R   0.287460 0.973874 0.110876 0.195154
C117  C     C_R   0.747512 0.591672 0.243787 0.191304
C118  C     C_R   0.252541 0.408399 0.756364 0.191335
C119  C     C_R   0.212543 0.526125 0.889122 0.195154
C120  C     C_R   0.787183 0.473852 0.110883 0.195186
C121  C     C_R   0.300662 0.073921 0.266081 -0.156266
C122  C     C_R   0.699337 0.926076 0.733913 -0.156269
C123  C     C_R   0.657888 0.037891 0.803973 -0.184220
C124  C     C_R   0.342121 0.962108 0.196030 -0.184225
C125  C     C_R   0.800685 0.573969 0.266181 -0.156403
C126  C     C_R   0.199337 0.426078 0.733916 -0.156276
C127  C     C_R   0.157881 0.537891 0.803968 -0.184220
C128  C     C_R   0.841907 0.462116 0.196014 -0.184147
Cu1   Cu    Cu3+1 0.280720 0.280980 0.061500 0.947578
Cu2   Cu    Cu3+1 0.719280 0.719020 0.938500 0.947574
Cu3   Cu    Cu3+1 0.719280 0.280980 0.938500 0.933550
Cu4   Cu    Cu3+1 0.280720 0.719020 0.061500 0.933525
Cu5   Cu    Cu3+1 0.780720 0.780980 0.061500 0.947567
Cu6   Cu    Cu3+1 0.219280 0.219020 0.938500 0.947574
Cu7   Cu    Cu3+1 0.219280 0.780980 0.938500 0.933524
Cu8   Cu    Cu3+1 0.780720 0.219020 0.061500 0.933464
Cu9   Cu    Cu3+1 0.042420 0.500000 0.499930 0.936326
Cu10  Cu    Cu3+1 0.957580 0.500000 0.500070 0.936387
Cu11  Cu    Cu3+1 0.542420 0.000000 0.499930 0.936352
Cu12  Cu    Cu3+1 0.457580 0.000000 0.500070 0.936352
H1    H     H_    0.197277 0.150607 0.213484 0.141848
H2    H     H_    0.802716 0.849386 0.786503 0.141849
H3    H     H_    0.805138 0.047070 0.006206 0.138923
H4    H     H_    0.194869 0.952935 0.993798 0.138923
H5    H     H_    0.697382 0.650701 0.213680 0.141841
H6    H     H_    0.302718 0.349389 0.786509 0.141849
H7    H     H_    0.305132 0.547065 0.006202 0.138925
H8    H     H_    0.694606 0.452841 0.993888 0.138923
H9    H     H_    0.310464 0.039932 0.283719 0.162101
H10   H     H_    0.689536 0.960065 0.716274 0.162103
H11   H     H_    0.623288 0.012939 0.760749 0.116337
H12   H     H_    0.376722 0.987060 0.239256 0.116343
H13   H     H_    0.810463 0.539978 0.283807 0.162141
H14   H     H_    0.189537 0.460067 0.716279 0.162103
H15   H     H_    0.123281 0.512939 0.760742 0.116337
H16   H     H_    0.876468 0.487093 0.239199 0.116221
O1    O     O_R   0.321010 0.231060 0.142100 -0.587308
O2    O     O_R   0.678990 0.768940 0.857900 -0.587304
O3    O     O_R   0.678990 0.231060 0.857900 -0.574882
O4    O     O_R   0.321010 0.768940 0.142100 -0.574883
O5    O     O_R   0.821010 0.731060 0.142100 -0.587299
O6    O     O_R   0.178990 0.268940 0.857900 -0.587309
O7    O     O_R   0.178990 0.731060 0.857900 -0.574883
O8    O     O_R   0.821010 0.268940 0.142100 -0.574984
O9    O     O_R   0.269040 0.178650 0.038140 -0.570800
O10   O     O_R   0.730960 0.821350 0.961860 -0.570795
O11   O     O_R   0.730960 0.178650 0.961860 -0.568179
O12   O     O_R   0.269040 0.821350 0.038140 -0.568180
O13   O     O_R   0.769040 0.678650 0.038140 -0.570808
O14   O     O_R   0.230960 0.321350 0.961860 -0.570800
O15   O     O_R   0.230960 0.678650 0.961860 -0.568179
O16   O     O_R   0.769040 0.321350 0.038140 -0.568160
O17   O     O_R   0.337910 0.276140 0.051940 -0.559348
O18   O     O_R   0.662090 0.723860 0.948060 -0.559342
O19   O     O_R   0.662090 0.276140 0.948060 -0.570867
O20   O     O_R   0.337910 0.723860 0.051940 -0.570851
O21   O     O_R   0.837910 0.776140 0.051940 -0.559347
O22   O     O_R   0.162090 0.223860 0.948060 -0.559349
O23   O     O_R   0.162090 0.776140 0.948060 -0.570851
O24   O     O_R   0.837910 0.223860 0.051940 -0.570876
O25   O     O_R   0.285940 0.223740 0.947980 -0.566625
O26   O     O_R   0.714060 0.776260 0.052020 -0.566654
O27   O     O_R   0.714060 0.223740 0.052020 -0.564183
O28   O     O_R   0.285940 0.776260 0.947980 -0.564222
O29   O     O_R   0.785940 0.723740 0.947980 -0.566625
O30   O     O_R   0.214060 0.276260 0.052020 -0.566623
O31   O     O_R   0.214060 0.723740 0.052020 -0.564221
O32   O     O_R   0.785940 0.276260 0.947980 -0.564220
O33   O     O_R   0.990910 0.454660 0.410130 -0.590897
O34   O     O_R   0.009090 0.545340 0.589870 -0.590847
O35   O     O_R   0.009090 0.454660 0.589870 -0.576743
O36   O     O_R   0.990910 0.545340 0.410130 -0.576776
O37   O     O_R   0.490910 0.954660 0.410130 -0.590845
O38   O     O_R   0.509090 0.045340 0.589870 -0.590844
O39   O     O_R   0.509090 0.954660 0.589870 -0.576796
O40   O     O_R   0.490910 0.045340 0.410130 -0.576796
O41   O     O_R   0.919170 0.454670 0.410130 -0.584861
O42   O     O_R   0.080830 0.545330 0.589870 -0.584922
O43   O     O_R   0.080830 0.454670 0.589870 -0.587586
O44   O     O_R   0.919170 0.545330 0.410130 -0.587613
O45   O     O_R   0.419170 0.954670 0.410130 -0.584922
O46   O     O_R   0.580830 0.045330 0.589870 -0.584920
O47   O     O_R   0.580830 0.954670 0.589870 -0.587575
O48   O     O_R   0.419170 0.045330 0.410130 -0.587571
C129  C     C_3   0.420669 0.159442 0.173173 -0.849420
H17   H     H_    0.468597 0.147971 0.207240 0.237449
H18   H     H_    0.388764 0.153244 0.101782 0.233632
H19   H     H_    0.425456 0.194989 0.184595 0.227167
C130  C     C_3   0.579333 0.840560 0.826831 -0.849422
H20   H     H_    0.531406 0.852032 0.792764 0.237448
H21   H     H_    0.574545 0.805013 0.815408 0.227168
H22   H     H_    0.611239 0.846758 0.898221 0.233636
C131  C     C_3   0.622872 0.213992 0.690634 -0.803439
H23   H     H_    0.610989 0.212133 0.628027 0.223309
H24   H     H_    0.587667 0.234381 0.681531 0.238925
H25   H     H_    0.669946 0.229846 0.736595 0.234850
C132  C     C_3   0.377125 0.786006 0.309364 -0.803432
H26   H     H_    0.389010 0.787863 0.371971 0.223306
H27   H     H_    0.330050 0.770153 0.263404 0.234840
H28   H     H_    0.412326 0.765615 0.318461 0.238925
C133  C     C_3   0.920621 0.659396 0.173077 -0.849407
H29   H     H_    0.968535 0.647908 0.207111 0.237451
H30   H     H_    0.888690 0.653193 0.101683 0.233663
H31   H     H_    0.925430 0.694943 0.184496 0.227126
C134  C     C_3   0.079332 0.340560 0.826831 -0.849419
H32   H     H_    0.031406 0.352032 0.792766 0.237452
H33   H     H_    0.074544 0.305013 0.815408 0.227165
H34   H     H_    0.111239 0.346757 0.898223 0.233634
C135  C     C_3   0.122874 0.713994 0.690635 -0.803432
H35   H     H_    0.110992 0.712137 0.628030 0.223302
H36   H     H_    0.087669 0.734384 0.681532 0.238921
H37   H     H_    0.169947 0.729849 0.736597 0.234845
C136  C     C_3   0.877482 0.285977 0.309462 -0.803297
H38   H     H_    0.889696 0.287765 0.372311 0.223320
H39   H     H_    0.830389 0.270142 0.263748 0.234819
H40   H     H_    0.912504 0.265602 0.318104 0.239002
C137  C     C_3   0.267681 0.208774 0.219691 -0.839189
H41   H     H_    0.261806 0.217029 0.264940 0.222856
H42   H     H_    0.312031 0.224867 0.247291 0.251261
H43   H     H_    0.226740 0.221516 0.154592 0.231309
C138  C     C_3   0.732311 0.791223 0.780302 -0.839181
H44   H     H_    0.738187 0.782967 0.735054 0.222855
H45   H     H_    0.773252 0.778480 0.845400 0.231312
H46   H     H_    0.687960 0.775131 0.752700 0.251261
C139  C     C_3   0.810086 0.127499 0.965693 -0.804863
H47   H     H_    0.845787 0.109493 0.972142 0.211413
H48   H     H_    0.801271 0.158112 0.931001 0.212659
H49   H     H_    0.830412 0.134506 0.032609 0.249642
C140  C     C_3   0.189917 0.872505 0.034309 -0.804865
H50   H     H_    0.154215 0.890510 0.027860 0.211415
H51   H     H_    0.169589 0.865497 0.967392 0.249639
H52   H     H_    0.198730 0.841891 0.068998 0.212655
C141  C     C_3   0.767778 0.708828 0.219791 -0.839109
H53   H     H_    0.761887 0.717103 0.265016 0.222822
H54   H     H_    0.812149 0.724897 0.247421 0.251260
H55   H     H_    0.726859 0.721578 0.154686 0.231366
C142  C     C_3   0.232313 0.291224 0.780303 -0.839195
H56   H     H_    0.238187 0.282969 0.735054 0.222852
H57   H     H_    0.273254 0.278481 0.845401 0.231313
H58   H     H_    0.187963 0.275132 0.752703 0.251259
C143  C     C_3   0.310084 0.627496 0.965691 -0.804863
H59   H     H_    0.345785 0.609491 0.972140 0.211416
H60   H     H_    0.301269 0.658110 0.931001 0.212655
H61   H     H_    0.330411 0.634504 0.032607 0.249640
C144  C     C_3   0.689877 0.372373 0.034480 -0.804943
H62   H     H_    0.654166 0.390323 0.028089 0.211444
H63   H     H_    0.669515 0.365381 0.967540 0.249710
H64   H     H_    0.698782 0.341752 0.069204 0.212571
C145  C     C_3   0.207531 0.064105 0.248461 -0.882030
H65   H     H_    0.167470 0.082733 0.229796 0.230901
H66   H     H_    0.188209 0.036117 0.203106 0.236548
H67   H     H_    0.236663 0.051831 0.316381 0.237118
C146  C     C_3   0.792462 0.935887 0.751520 -0.882029
H68   H     H_    0.832520 0.917257 0.770180 0.230904
H69   H     H_    0.763327 0.948161 0.683599 0.237120
H70   H     H_    0.811788 0.963875 0.796875 0.236548
C147  C     C_3   0.721414 0.980126 0.919320 -0.864688
H71   H     H_    0.765377 0.976362 0.989637 0.229896
H72   H     H_    0.680964 0.969921 0.910535 0.242169
H73   H     H_    0.724280 0.958544 0.880398 0.240704
C148  C     C_3   0.278600 0.019875 0.080686 -0.864681
H74   H     H_    0.234634 0.023642 0.010370 0.229896
H75   H     H_    0.275745 0.041459 0.119615 0.240701
H76   H     H_    0.319049 0.030077 0.089466 0.242167
C149  C     C_3   0.707598 0.564205 0.248673 -0.882023
H77   H     H_    0.667564 0.582851 0.230050 0.230907
H78   H     H_    0.688238 0.536215 0.203313 0.236543
H79   H     H_    0.736750 0.551933 0.316598 0.237125
C150  C     C_3   0.292467 0.435890 0.751532 -0.882034
H80   H     H_    0.332526 0.417262 0.770194 0.230902
H81   H     H_    0.263334 0.448165 0.683612 0.237116
H82   H     H_    0.311791 0.463879 0.796887 0.236549
C151  C     C_3   0.221404 0.480124 0.919311 -0.864682
H83   H     H_    0.265364 0.476359 0.989631 0.229898
H84   H     H_    0.180949 0.469917 0.910513 0.242168
H85   H     H_    0.224274 0.458542 0.880394 0.240702
C152  C     C_3   0.778200 0.519859 0.080653 -0.864735
H86   H     H_    0.734209 0.523594 0.010344 0.229897
H87   H     H_    0.775314 0.541408 0.119589 0.240689
H88   H     H_    0.818609 0.530129 0.089389 0.242188
C153  C     C_3   0.467160 0.074405 0.264197 -0.825400
H89   H     H_    0.466420 0.039450 0.276104 0.229592
H90   H     H_    0.454532 0.075035 0.200979 0.226767
H91   H     H_    0.515308 0.087910 0.317089 0.239528
C154  C     C_3   0.532843 0.925597 0.735806 -0.825406
H92   H     H_    0.533583 0.960551 0.723899 0.229591
H93   H     H_    0.484695 0.912092 0.682915 0.239530
H94   H     H_    0.545472 0.924967 0.799024 0.226769
C155  C     C_3   0.526553 0.147694 0.564940 -0.835178
H95   H     H_    0.484015 0.130727 0.542519 0.237464
H96   H     H_    0.514726 0.182643 0.553798 0.234017
H97   H     H_    0.535031 0.137293 0.523488 0.233789
C156  C     C_3   0.473443 0.852304 0.435061 -0.835187
H98   H     H_    0.515981 0.869272 0.457486 0.237465
H99   H     H_    0.464960 0.862704 0.476509 0.233791
H100  H     H_    0.485271 0.817354 0.446203 0.234021
C157  C     C_3   0.967097 0.574361 0.264115 -0.825397
H101  H     H_    0.966357 0.539412 0.276054 0.229584
H102  H     H_    0.954435 0.574973 0.200874 0.226787
H103  H     H_    0.015252 0.587863 0.316972 0.239524
C158  C     C_3   0.032842 0.425597 0.735807 -0.825389
H104  H     H_    0.033581 0.460551 0.723897 0.229584
H105  H     H_    0.984695 0.412092 0.682917 0.239539
H106  H     H_    0.045473 0.424968 0.799026 0.226764
C159  C     C_3   0.026553 0.647697 0.564940 -0.835177
H107  H     H_    0.984015 0.630733 0.542526 0.237466
H108  H     H_    0.014730 0.682647 0.553796 0.234018
H109  H     H_    0.035029 0.637291 0.523487 0.233792
C160  C     C_3   0.973736 0.352337 0.434981 -0.835165
H110  H     H_    0.016161 0.369452 0.457324 0.237624
H111  H     H_    0.965304 0.362562 0.476564 0.233732
H112  H     H_    0.985735 0.317417 0.446006 0.233992

loop_
_geom_bond_atom_site_label_1
_geom_bond_atom_site_label_2
_ccdc_geom_bond_type
C160  H111  S    
C59   O35   A    
C34   C42   A    
C110  C118  A    
C79   C87   T    
C68   O20   A    
C153  H89   S    
Cu2   O18   S    
C148  H76   S    
C39   C135  S    
C52   C61   S    
C134  H34   S    
C56   C57   S    
C30   C38   A    
C23   C103  A    
C9    C121  A    
Cu7   O12   S    
C160  H110  S    
C13   C125  A    
C155  H96   S    
C64   O48   A    
C15   C127  A    
C139  H47   S    
Cu1   O17   S    
C116  C148  S    
C45   C157  S    
C106  H2    S    
C131  H24   S    
C115  C123  A    
C112  C120  A    
C19   C99   A    
C20   C28   A    
C27   C35   A    
C21   C29   A    
C4    O12   A    
C23   C31   A    
C157  H103  S    
C101  C141  S    
C24   C32   A    
C135  H35   S    
C90   C92   T    
C12   C20   A    
C103  C143  S    
Cu6   O9    S    
C13   C21   A    
C2    C26   S    
C94   C96   T    
C126  H14   S    
C6    C30   S    
C100  C140  S    
C145  H66   S    
C36   C44   A    
C62   O38   A    
C37   C45   A    
C69   O29   A    
C108  H4    S    
C83   C91   S    
C39   C47   A    
Cu8   O8    S    
C153  H91   S    
C40   C48   A    
C68   O28   A    
C57   O41   A    
Cu7   O7    S    
C109  H5    S    
C71   O31   A    
C40   C136  S    
C10   C122  A    
C14   C126  A    
C36   C132  S    
Cu11  Cu12  S    
C151  H85   S    
C97   C137  S    
C98   C106  A    
C17   C25   A    
C37   C133  S    
C80   C88   T    
Cu5   O10   S    
C108  C116  A    
C10   C18   A    
Cu8   O27   S    
C121  H9    S    
C60   O44   A    
Cu6   O6    S    
C149  H78   S    
C158  H104  S    
C139  H49   S    
C142  H57   S    
C66   O18   A    
C24   C104  A    
C130  H22   S    
Cu11  O37   S    
C114  C146  S    
C69   C77   S    
Cu10  O35   S    
Cu5   O21   S    
C146  H70   S    
C71   C79   S    
C3    O11   A    
C33   C129  S    
C140  H50   S    
C133  H29   S    
C63   O47   A    
C105  C113  A    
C113  C145  S    
C135  H37   S    
Cu12  O48   S    
C143  H59   S    
C156  H99   S    
Cu2   O13   S    
C66   C74   S    
C111  C119  A    
C138  H44   S    
Cu3   O19   S    
C159  H108  S    
C85   C93   S    
C48   C160  S    
Cu9   O43   S    
C154  H93   S    
C87   C95   S    
C58   O34   A    
C118  C150  S    
C89   C91   T    
C35   C43   A    
C136  H38   S    
C44   C52   A    
C77   C85   T    
C93   C95   T    
C49   C64   S    
C147  H71   S    
C3    O3    A    
C50   C63   S    
C152  H87   S    
C51   C62   S    
C53   C60   S    
C150  H80   S    
C54   C59   S    
C129  H18   S    
C100  C108  A    
C42   C154  S    
Cu1   O14   S    
C9    C49   A    
C104  C144  S    
Cu3   Cu8   S    
C8    O8    A    
C104  C112  A    
C128  H16   S    
C132  H26   S    
C15   C55   A    
C16   C56   A    
C57   O33   A    
C151  H83   S    
C16   C128  A    
C60   O36   A    
C158  H106  S    
C130  H20   S    
Cu3   O3    S    
C144  H63   S    
C67   O27   A    
C42   C50   A    
C55   C58   S    
C67   C75   S    
C72   O24   A    
C117  C149  S    
C61   O37   A    
C6    O14   A    
C140  H52   S    
C22   C30   A    
Cu11  O46   S    
C143  H61   S    
Cu8   O11   S    
C148  H75   S    
C142  H58   S    
C14   C22   A    
C137  H42   S    
C97   C105  A    
C72   C80   S    
C64   O40   A    
C134  H33   S    
C66   O26   A    
Cu12  O39   S    
C120  C152  S    
C38   C46   A    
C70   O30   A    
Cu10  O41   S    
C113  C121  A    
C147  H73   S    
C84   C92   S    
Cu1   O30   S    
C17   C97   A    
C25   C33   A    
C119  C127  A    
C88   C96   S    
C7    O15   A    
C119  C151  S    
C18   C26   A    
C44   C156  S    
C76   C84   T    
Cu2   O29   S    
C109  C117  A    
C131  H23   S    
C132  H28   S    
C11   C19   A    
C122  H10   S    
C133  H31   S    
C155  H97   S    
C101  C109  A    
C150  H82   S    
C103  C111  A    
Cu4   O20   S    
C73   C81   T    
C157  H102  S    
C62   O46   A    
C69   O21   A    
C75   C83   T    
C47   C159  S    
C67   O19   A    
C99   C139  S    
C2    O10   A    
C81   C89   S    
C145  H65   S    
C74   C82   T    
Cu4   O31   S    
C12   C52   A    
C13   C53   A    
C153  H90   S    
C123  H11   S    
Cu3   O16   S    
C127  H15   S    
C129  H17   S    
C149  H77   S    
C111  H7    S    
C141  H55   S    
Cu9   O36   S    
C20   C100  A    
C2    O2    A    
C46   C54   A    
Cu6   O22   S    
C35   C131  S    
C38   C134  S    
C139  H48   S    
C63   O39   A    
C102  C110  A    
Cu2   Cu5   S    
C68   C76   S    
C10   C50   A    
Cu11  O40   S    
C131  H25   S    
C116  C124  A    
C11   C123  A    
C120  C128  A    
C41   C49   A    
C99   C107  A    
C82   C90   S    
Cu2   O2    S    
C33   C41   A    
C138  H46   S    
C135  H36   S    
Cu11  O47   S    
Cu12  O45   S    
C160  H112  S    
C43   C51   A    
C156  H98   S    
C141  H53   S    
C7    O7    A    
C3    C27   S    
C159  H107  S    
Cu1   Cu6   S    
Cu9   O42   S    
C28   C36   A    
C46   C158  S    
C133  H30   S    
C154  H92   S    
C145  H67   S    
C29   C37   A    
C5    O13   A    
C150  H81   S    
Cu12  O38   S    
C8    O16   A    
C5    O5    A    
Cu10  O44   S    
C70   C78   S    
C152  H86   S    
Cu1   O1    S    
C65   O25   A    
C155  H95   S    
Cu4   O4    S    
C106  C114  A    
C142  H56   S    
C149  H79   S    
C105  H1    S    
C65   C73   S    
C71   O23   A    
C72   O32   A    
C98   C138  S    
C86   C94   S    
C61   O45   A    
C26   C34   A    
C6    O6    A    
C59   O43   A    
C158  H105  S    
C146  H69   S    
Cu4   O15   S    
C19   C27   A    
C144  H62   S    
C21   C101  A    
Cu3   O32   S    
C115  C147  S    
C15   C23   A    
C124  H12   S    
C16   C24   A    
C1    C25   S    
Cu10  O34   S    
Cu7   O28   S    
C4    C28   S    
C125  H13   S    
C5    C29   S    
C140  H51   S    
C7    C31   S    
C8    C32   S    
C143  H60   S    
C41   C153  S    
C70   O22   A    
C156  H100  S    
C148  H74   S    
C112  H8    S    
C138  H45   S    
C159  H109  S    
C34   C130  S    
C136  H40   S    
C141  H54   S    
C12   C124  A    
C1    O9    A    
C154  H94   S    
C134  H32   S    
C136  H39   S    
C107  C115  A    
Cu9   O33   S    
C9    C17   A    
C14   C54   A    
C147  H72   S    
C152  H88   S    
C137  H43   S    
Cu6   O25   S    
C47   C55   A    
C129  H19   S    
C48   C56   A    
C58   O42   A    
C65   O17   A    
C43   C155  S    
Cu5   O5    S    
C132  H27   S    
C118  C126  A    
Cu9   Cu10  S    
Cu8   O24   S    
C22   C102  A    
C102  C142  S    
C1    O1    A    
Cu7   O23   S    
C151  H84   S    
C110  H6    S    
C78   C86   T    
C4    O4    A    
C117  C125  A    
Cu4   Cu7   S    
C130  H21   S    
C31   C39   A    
C32   C40   A    
C157  H101  S    
C144  H64   S    
C11   C51   A    
C45   C53   A    
C114  C122  A    
Cu5   O26   S    
C18   C98   A    
C137  H41   S    
C107  H3    S    
C146  H68   S    
