data_mof_unit_51499.cif
_audit_creation_date              2012-12-10T18:09:08-0500
_audit_creation_method            fapswitch 2.2
_symmetry_space_group_name_H-M    P1
_symmetry_Int_Tables_number       1
_space_group_crystal_system       triclinic
_cell_length_a                    12.73823
_cell_length_b                    13.906598
_cell_length_c                    27.659924
_cell_angle_alpha                 89.901239
_cell_angle_beta                  93.949222
_cell_angle_gamma                 97.700622
_cell_volume                      4843.97220252

loop_
_atom_site_label
_atom_site_type_symbol
_atom_type_description
_atom_site_fract_x
_atom_site_fract_y
_atom_site_fract_z
_atom_type_partial_charge
C1    C     C_R   0.483827 0.315995 0.498185 0.832634
C2    C     C_R   0.433241 0.412336 0.869679 -0.073899
C3    C     C_R   0.180487 0.235849 0.958193 -0.163575
C4    C     C_R   0.121696 0.153457 0.976589 -0.130186
C5    C     C_R   0.173479 0.078894 0.996724 -0.108376
C6    C     C_R   0.284173 0.086670 0.998553 -0.133080
C7    C     C_R   0.343271 0.168953 0.980190 -0.126585
C8    C     C_R   0.826095 0.452267 0.037973 0.107408
C9    C     C_R   0.910398 0.528287 0.045739 -0.163379
C10   C     C_R   0.007189 0.523731 0.025521 -0.135087
C11   C     C_R   0.020561 0.443842 0.997171 -0.124373
C12   C     C_R   0.937114 0.368286 0.988986 -0.142449
C13   C     C_R   0.498142 0.496808 0.352958 -0.185507
C14   C     C_R   0.840298 0.372240 0.009355 -0.131645
C15   C     C_R   0.500803 0.494349 0.645726 -0.188027
C16   C     C_R   0.438184 0.386018 0.971187 -0.007447
C17   C     C_R   0.625581 0.449155 0.030255 -0.006833
C18   C     C_R   0.619779 0.471142 0.979737 0.023742
C19   C     C_R   0.434616 0.391180 0.022285 0.026219
C20   C     C_R   0.527460 0.435651 0.950070 0.054943
C21   C     C_R   0.529277 0.419078 0.051759 0.058394
C22   C     C_R   0.356656 0.332008 0.940685 -0.069790
C23   C     C_R   0.516344 0.684113 0.499547 0.840072
C24   C     C_R   0.722779 0.455343 0.059952 -0.062351
C25   C     C_R   0.351457 0.348803 0.890174 -0.043892
C26   C     C_R   0.720551 0.449724 0.111221 -0.045908
C27   C     C_R   0.499573 0.499312 0.406902 0.808290
C28   C     C_R   0.500139 0.499480 0.592651 0.839937
C29   C     C_R   0.337904 0.373943 0.044498 -0.244921
C30   C     C_R   0.700341 0.532679 0.958555 -0.248702
C31   C     C_1   0.526105 0.787121 0.496793 -0.189608
C32   C     C_1   0.475279 0.213384 0.493383 -0.182733
C33   C     C_2   0.546304 0.977994 0.493309 0.102247
C34   C     C_R   0.526945 0.416073 0.102806 -0.116663
C35   C     C_2   0.458983 0.023211 0.485916 0.105846
C36   C     C_1   0.467605 0.126863 0.489332 0.016276
C37   C     C_1   0.535973 0.874000 0.494669 0.010596
C38   C     C_2   0.027942 0.463575 0.492667 -0.124624
C39   C     C_2   0.971224 0.537175 0.503875 -0.123405
C40   C     C_1   0.854361 0.522982 0.506541 0.173022
C41   C     C_1   0.145438 0.477205 0.492461 0.162068
C42   C     C_R   0.431098 0.382599 0.174555 0.618609
C43   C     C_R   0.609205 0.512402 0.827261 0.590636
C44   C     C_R   0.612635 0.431233 0.183980 0.593213
C45   C     C_R   0.524309 0.450382 0.899288 -0.111840
C46   C     C_R   0.430295 0.435082 0.819823 0.533350
C47   C     C_R   0.588058 0.527299 0.277732 0.130490
C48   C     C_R   0.513076 0.399167 0.719416 0.119501
C49   C     C_R   0.586806 0.539636 0.328526 -0.101512
C50   C     C_R   0.499792 0.403570 0.668671 -0.050083
C51   C     C_R   0.405686 0.456667 0.324791 -0.116352
C52   C     C_R   0.507935 0.580018 0.673737 -0.105692
C53   C     C_R   0.406163 0.453800 0.273973 0.126180
C54   C     C_R   0.514432 0.574453 0.724815 0.152774
C55   C     C_R   0.504176 0.466573 0.251795 0.270977
C56   C     C_R   0.429858 0.388474 0.124022 -0.029044
C57   C     C_R   0.518035 0.484421 0.747495 0.290311
C58   C     C_R   0.310096 0.409068 0.347221 0.162464
C59   C     C_R   0.220542 0.456978 0.350675 -0.141646
C60   C     C_R   0.129125 0.408674 0.369637 -0.141125
C61   C     C_R   0.127134 0.312917 0.385446 -0.106378
C62   C     C_R   0.216801 0.265770 0.383110 -0.126830
C63   C     C_R   0.308043 0.313522 0.363936 -0.114009
C64   C     C_R   0.503001 0.674879 0.650016 0.094776
C65   C     C_R   0.405509 0.698735 0.630101 -0.122390
C66   C     C_R   0.399717 0.790270 0.609950 -0.144858
C67   C     C_R   0.612142 0.503796 0.878181 -0.025741
C68   C     C_R   0.491069 0.858165 0.609651 -0.114798
C69   C     C_R   0.588662 0.834219 0.628620 -0.127346
C70   C     C_R   0.594801 0.742738 0.648767 -0.153743
C71   C     C_R   0.025078 0.637479 0.513376 0.127857
C72   C     C_R   0.005958 0.687708 0.555259 -0.133595
C73   C     C_R   0.052921 0.783582 0.563394 -0.145467
C74   C     C_R   0.118233 0.830435 0.529586 -0.135644
C75   C     C_R   0.137054 0.781313 0.487680 -0.141122
C76   C     C_R   0.090967 0.685306 0.479567 -0.146059
C77   C     C_R   0.973889 0.363653 0.481796 0.122682
C78   C     C_R   0.334781 0.369402 0.094617 0.179491
C79   C     C_R   0.011768 0.283858 0.505159 -0.142958
C80   C     C_R   0.965044 0.189302 0.493436 -0.141360
C81   C     C_R   0.880458 0.173418 0.458234 -0.127385
C82   C     C_R   0.841838 0.252070 0.434911 -0.150290
C83   C     C_R   0.888654 0.346786 0.446322 -0.145166
C84   C     C_R   0.471371 0.311755 0.640818 0.131569
C85   C     C_R   0.543436 0.243973 0.639142 -0.099230
C86   C     C_R   0.510313 0.151994 0.618795 -0.157777
C87   C     C_R   0.405303 0.127333 0.600103 -0.106888
C88   C     C_R   0.334100 0.195376 0.600438 -0.135214
C89   C     C_R   0.699133 0.547199 0.908610 0.173137
C90   C     C_R   0.366808 0.287223 0.620821 -0.122905
C91   C     C_R   0.676396 0.601042 0.355227 0.151859
C92   C     C_R   0.776433 0.569150 0.361735 -0.141369
C93   C     C_R   0.859746 0.625724 0.388235 -0.156702
C94   C     C_R   0.843511 0.713963 0.408694 -0.098312
C95   C     C_R   0.744005 0.745894 0.402561 -0.116204
C96   C     C_R   0.660625 0.689803 0.375841 -0.141235
C97   C     C_R   0.268257 0.289509 0.858674 0.183145
C98   C     C_R   0.168934 0.320970 0.848290 -0.082225
C99   C     C_R   0.090968 0.264716 0.818602 -0.128483
C100  C     C_R   0.621746 0.433695 0.132926 -0.085357
C101  C     C_R   0.111894 0.177220 0.798996 -0.106185
C102  C     C_R   0.210826 0.145823 0.809052 -0.121040
C103  C     C_R   0.288937 0.201742 0.838812 -0.134047
C104  C     C_R   0.822458 0.461288 0.141476 0.187066
C105  C     C_R   0.858998 0.549717 0.165379 -0.112866
C106  C     C_R   0.954800 0.560500 0.193936 -0.150412
C107  C     C_R   0.014808 0.483461 0.198545 -0.097781
C108  C     C_R   0.979220 0.395487 0.174593 -0.122931
C109  C     C_R   0.883164 0.384179 0.146195 -0.097467
C110  C     C_R   0.291959 0.244344 0.959790 0.117496
Cu1   Cu    Cu3+1 0.395330 0.493960 0.496930 0.976695
Cu2   Cu    Cu3+1 0.604670 0.506040 0.503070 0.988588
H1    H     H_    0.262973 0.367459 0.023299 0.150259
H2    H     H_    0.486624 0.928863 0.594097 0.121185
H3    H     H_    0.659410 0.886688 0.627845 0.132236
H4    H     H_    0.670576 0.725051 0.663800 0.137052
H5    H     H_    0.954868 0.652591 0.581633 0.127435
H6    H     H_    0.038113 0.821763 0.595774 0.129848
H7    H     H_    0.153667 0.904943 0.535765 0.128784
H8    H     H_    0.186353 0.817746 0.461114 0.135803
H9    H     H_    0.104922 0.649081 0.446448 0.116041
H10   H     H_    0.077760 0.294795 0.532325 0.124609
H11   H     H_    0.994972 0.128278 0.511404 0.131961
H12   H     H_    0.763548 0.574063 0.980604 0.155913
H13   H     H_    0.845497 0.100073 0.448755 0.138094
H14   H     H_    0.776666 0.239594 0.407445 0.136061
H15   H     H_    0.860035 0.406584 0.426693 0.128959
H16   H     H_    0.252918 0.397541 0.254190 0.258306
H17   H     H_    0.278285 0.520239 0.253803 0.187722
H18   H     H_    0.580770 0.708692 0.747823 0.235294
H19   H     H_    0.445962 0.690663 0.744343 0.223493
H20   H     H_    0.188272 0.404874 0.103388 0.212570
H21   H     H_    0.195296 0.284403 0.102100 0.226814
H22   H     H_    0.855881 0.580093 0.899522 0.223210
H23   H     H_    0.221324 0.530987 0.338337 0.110516
H24   H     H_    0.790931 0.677260 0.905779 0.208380
H25   H     H_    0.624085 0.261499 0.654726 0.136658
H26   H     H_    0.565683 0.099503 0.618097 0.121644
H27   H     H_    0.379098 0.055945 0.584819 0.125367
H28   H     H_    0.253142 0.176459 0.585538 0.126107
H29   H     H_    0.309798 0.338158 0.622413 0.138353
H30   H     H_    0.789477 0.500292 0.346603 0.130911
H31   H     H_    0.936622 0.600759 0.393130 0.117741
H32   H     H_    0.907868 0.757582 0.429364 0.139262
H33   H     H_    0.731391 0.813985 0.418619 0.134450
H34   H     H_    0.059734 0.445245 0.371898 0.121553
H35   H     H_    0.583646 0.714920 0.371548 0.105469
H36   H     H_    0.452590 0.287720 0.761564 0.249956
H37   H     H_    0.587184 0.313316 0.766254 0.212657
H38   H     H_    0.656715 0.660323 0.258044 0.205261
H39   H     H_    0.741292 0.576426 0.264196 0.253271
H40   H     H_    0.152213 0.388812 0.863214 0.117312
H41   H     H_    0.014399 0.288994 0.810744 0.130708
H42   H     H_    0.051497 0.133805 0.775973 0.123670
H43   H     H_    0.226964 0.078154 0.793787 0.130074
H44   H     H_    0.365355 0.176883 0.846428 0.115166
H45   H     H_    0.056127 0.274875 0.399337 0.154830
H46   H     H_    0.813037 0.609801 0.161982 0.123881
H47   H     H_    0.982505 0.628551 0.212509 0.124738
H48   H     H_    0.088777 0.491933 0.220719 0.128170
H49   H     H_    0.025979 0.336034 0.178118 0.147922
H50   H     H_    0.856073 0.315707 0.127842 0.118750
H51   H     H_    0.139402 0.293771 0.943692 0.109962
H52   H     H_    0.035986 0.147593 0.975446 0.121473
H53   H     H_    0.127847 0.015190 0.011012 0.121667
H54   H     H_    0.324227 0.028918 0.014220 0.128055
H55   H     H_    0.429039 0.173991 0.981803 0.122526
H56   H     H_    0.215215 0.191884 0.395702 0.137322
H57   H     H_    0.900611 0.591439 0.066926 0.124016
H58   H     H_    0.071706 0.582394 0.031647 0.129575
H59   H     H_    0.095474 0.440867 0.981413 0.115297
H60   H     H_    0.947347 0.306622 0.966842 0.119568
H61   H     H_    0.776437 0.312993 0.002940 0.123183
H62   H     H_    0.339025 0.926028 0.507442 0.207045
H63   H     H_    0.354392 0.925473 0.447021 0.214959
H64   H     H_    0.664819 0.081138 0.475416 0.219581
H65   H     H_    0.650838 0.069571 0.535658 0.217949
H66   H     H_    0.376750 0.275927 0.361677 0.117595
H67   H     H_    0.334088 0.646950 0.630754 0.141094
H68   H     H_    0.324466 0.808729 0.594754 0.136898
N1    N     N_R   0.515114 0.429936 0.202528 -0.441250
N2    N     N_3   0.664840 0.587769 0.251457 -0.572534
N3    N     N_3   0.354740 0.970106 0.477433 -0.607185
N4    N     N_3   0.650268 0.031061 0.503184 -0.594757
N5    N     N_R   0.519280 0.478063 0.799519 -0.447603
N6    N     N_1   0.238040 0.484880 0.492320 -0.152287
N7    N     N_1   0.761960 0.515120 0.507680 -0.152122
N8    N     N_3   0.308152 0.456372 0.245311 -0.547277
N9    N     N_3   0.514180 0.659120 0.754367 -0.558934
N10   N     N_3   0.233928 0.351205 0.115368 -0.534834
N11   N     N_3   0.785785 0.608788 0.889536 -0.516848
N12   N     N_3   0.519595 0.307015 0.742189 -0.593079
O1    O     O_R   0.399110 0.356330 0.497030 -0.566638
O2    O     O_2   0.695182 0.553807 0.805360 -0.511602
O3    O     O_2   0.339613 0.414956 0.791414 -0.542472
O4    O     O_2   0.697732 0.421864 0.214428 -0.538339
O5    O     O_R   0.600890 0.643670 0.502970 -0.562051
O6    O     O_R   0.575890 0.366530 0.502210 -0.573306
O7    O     O_R   0.424110 0.633470 0.497790 -0.573068
O8    O     O_R   0.411620 0.494910 0.427670 -0.567076
O9    O     O_R   0.588380 0.505090 0.572330 -0.567858
O10   O     O_R   0.588400 0.505120 0.432860 -0.563489
O11   O     O_R   0.411600 0.494880 0.567140 -0.582317
O12   O     O_2   0.356094 0.320839 0.194693 -0.509718

loop_
_geom_bond_atom_site_label_1
_geom_bond_atom_site_label_2
_ccdc_geom_bond_type
H36   N12   S    
C66   C68   A    
C87   C88   A    
C6    H54   S    
C34   C56   A    
C93   C94   A    
C8    C24   S    
C54   N9    S    
C85   H25   S    
C27   O10   A    
C73   C74   A    
C9    H57   S    
C1    O6    A    
C95   H33   S    
Cu2   O10   S    
Cu2   N7    S    
C81   C82   A    
C15   C28   S    
C50   C84   S    
C46   O3    S    
H38   N2    S    
C40   N7    T    
C98   H40   S    
C85   C86   A    
C2    C46   A    
C11   H59   S    
C74   H7    S    
C101  C102  A    
C63   H66   S    
C84   C90   A    
C43   O2    S    
C5    C6    A    
C76   H9    S    
C32   C36   T    
C47   C55   A    
C19   C21   A    
C53   N8    S    
C24   C26   A    
C14   H61   S    
C109  H50   S    
C47   N2    S    
C104  C109  A    
Cu1   N6    S    
C106  C107  A    
C43   N5    A    
C3    C110  A    
C35   N3    S    
C106  H47   S    
C98   C99   A    
C23   O7    A    
C67   C89   A    
C56   C78   A    
C108  C109  A    
C15   C50   A    
C88   H28   S    
C29   H1    S    
C42   C56   A    
C91   C96   A    
C13   C51   A    
C42   O12   S    
C82   H14   S    
C29   C78   A    
Cu1   Cu2   S    
C8    C9    A    
C22   C110  S    
C22   C25   A    
C78   N10   S    
C72   H5    S    
C45   C67   A    
C34   C100  A    
C107  C108  A    
C4    H52   S    
C18   C30   A    
C5    H53   S    
C92   H30   S    
C9    C10   A    
C57   N5    S    
C20   C45   A    
C93   H31   S    
H18   N9    S    
C3    H51   S    
C26   C104  S    
C53   C55   A    
C30   H12   S    
C59   C60   A    
C2    C45   A    
C39   C71   S    
C102  C103  A    
C60   H34   S    
Cu2   O9    S    
C49   C91   S    
C30   C89   A    
Cu2   O6    S    
C104  C105  A    
C52   C54   A    
H21   N10   S    
C97   C98   A    
C77   C79   A    
C42   N1    A    
C55   N1    S    
C79   H10   S    
C44   O4    S    
C17   C24   A    
C74   C75   A    
C75   H8    S    
H24   N11   S    
C48   C57   A    
C84   C85   A    
C38   C41   S    
C12   H60   S    
C52   C64   S    
C83   H15   S    
C39   C40   S    
C86   C87   A    
C72   C73   A    
C21   C34   A    
C65   H67   S    
C70   H4    S    
C58   C59   A    
C66   H68   S    
C1    C32   S    
C33   C37   S    
C31   C37   T    
C60   C61   A    
C51   C53   A    
C35   C36   S    
C23   C31   S    
H22   N11   S    
C1    O1    A    
C75   C76   A    
C62   C63   A    
C61   H45   S    
Cu1   O8    S    
C105  H46   S    
C16   C20   A    
C102  H43   S    
C33   N4    S    
C17   C18   A    
C89   N11   S    
H19   N9    S    
C94   C95   A    
C51   C58   S    
C15   C52   A    
C48   C50   A    
C97   C103  A    
Cu1   O1    S    
C13   C49   A    
C25   C97   S    
C99   C101  A    
C88   C90   A    
C65   C66   A    
C64   C70   A    
C8    C14   A    
C28   O9    A    
Cu1   O11   S    
C3    C4    A    
C19   C29   A    
H20   N10   S    
Cu2   O5    S    
C91   C92   A    
H39   N2    S    
H63   N3    S    
C108  H49   S    
C58   C63   A    
H64   N4    S    
C96   H35   S    
C7    H55   S    
C69   H3    S    
H37   N12   S    
C16   C22   A    
C73   H6    S    
C81   H13   S    
H16   N8    S    
C28   O11   A    
C68   C69   A    
C27   O8    A    
C87   H27   S    
C80   C81   A    
H62   N3    S    
C11   C12   A    
C6    C7    A    
C38   C77   S    
C10   H58   S    
H65   N4    S    
C105  C106  A    
C23   O5    A    
C7    C110  A    
C94   H32   S    
C64   C65   A    
C12   C14   A    
C71   C72   A    
C107  H48   S    
C47   C49   A    
C44   C100  A    
C62   H56   S    
C38   C39   D    
C101  H42   S    
C16   C19   A    
C99   H41   S    
C59   H23   S    
C92   C93   A    
C33   C35   D    
C41   N6    T    
C2    C25   A    
C18   C20   A    
C46   N5    A    
C61   C62   A    
C69   C70   A    
C48   N12   S    
C90   H29   S    
C10   C11   A    
C86   H26   S    
C79   C80   A    
C71   C76   A    
C103  H44   S    
C4    C5    A    
Cu1   O7    S    
C43   C67   A    
C82   C83   A    
H17   N8    S    
C26   C100  A    
C95   C96   A    
C77   C83   A    
C13   C27   S    
C44   N1    A    
C54   C57   A    
C68   H2    S    
C80   H11   S    
C17   C21   A    
