data_mof_unit_27441.cif
_audit_creation_date              2012-12-10T18:23:03-0500
_audit_creation_method            fapswitch 2.2
_symmetry_space_group_name_H-M    P1
_symmetry_Int_Tables_number       1
_space_group_crystal_system       triclinic
_cell_length_a                    14.981485
_cell_length_b                    14.011671
_cell_length_c                    10.507899
_cell_angle_alpha                 89.849964
_cell_angle_beta                  90.102903
_cell_angle_gamma                 89.85657
_cell_volume                      2205.75427464

loop_
_atom_site_label
_atom_site_type_symbol
_atom_type_description
_atom_site_fract_x
_atom_site_fract_y
_atom_site_fract_z
_atom_type_partial_charge
C1    C     C_R   0.326542 0.500094 0.500953 0.900733
C2    C     C_R   0.673453 0.499873 0.499858 0.866255
C3    C     C_R   0.953575 0.500336 0.504374 0.054380
C4    C     C_R   0.046397 0.500618 0.505597 0.059550
C5    C     C_R   0.906953 0.584235 0.470287 0.117027
C6    C     C_R   0.093094 0.416778 0.539773 0.116868
C7    C     C_R   0.954083 0.333517 0.572152 -0.215093
C8    C     C_R   0.045842 0.667647 0.438550 -0.219668
C9    C     C_R   0.046842 0.333880 0.573757 -0.215664
C10   C     C_R   0.953145 0.667477 0.437848 -0.217966
C11   C     C_R   0.556736 0.798142 0.421115 -0.041027
C12   C     C_R   0.443642 0.201883 0.579485 -0.039785
C13   C     C_R   0.443290 0.798133 0.578948 -0.070240
C14   C     C_R   0.556648 0.201852 0.420986 -0.071972
C15   C     C_R   0.441818 0.898799 0.580705 0.015584
C16   C     C_R   0.558207 0.101190 0.419432 0.016006
C17   C     C_R   0.558249 0.898798 0.419473 0.000282
C18   C     C_R   0.442178 0.101215 0.581285 0.006927
C19   C     C_R   0.500071 0.949386 0.500162 0.088471
C20   C     C_R   0.500132 0.050617 0.500273 0.085117
C21   C     C_R   0.383797 0.949852 0.660662 -0.218964
C22   C     C_R   0.616274 0.050112 0.339585 -0.210169
C23   C     C_R   0.616343 0.949846 0.339635 -0.216123
C24   C     C_R   0.384266 0.050161 0.661426 -0.199915
C25   C     C_R   0.500080 0.500250 0.257391 0.983625
C26   C     C_R   0.499923 0.499819 0.742499 0.934432
C27   C     C_3   0.504642 0.589960 0.038734 0.505774
C28   C     C_3   0.496894 0.409917 0.961241 0.463269
C29   C     C_3   0.575495 0.540215 0.958221 0.448447
C30   C     C_3   0.425912 0.459836 0.041089 0.443053
C31   C     C_3   0.427639 0.550335 0.956921 -0.539505
C32   C     C_3   0.573870 0.450463 0.043781 -0.530384
C33   C     C_3   0.499773 0.499617 0.876676 -0.262549
C34   C     C_3   0.501201 0.500746 0.123014 -0.208942
C35   C     C_R   0.814721 0.583314 0.468954 -0.260782
C36   C     C_R   0.185428 0.417290 0.538526 -0.267359
C37   C     C_R   0.769223 0.499691 0.500671 -0.079893
C38   C     C_R   0.230775 0.500377 0.503595 -0.066574
C39   C     C_R   0.815039 0.416369 0.534492 -0.275526
C40   C     C_R   0.184793 0.583896 0.471397 -0.261216
C41   C     C_R   0.907369 0.416124 0.536900 0.112744
C42   C     C_R   0.092534 0.584627 0.471941 0.115237
H1    H     H_    0.370016 0.590314 0.916778 0.161220
H2    H     H_    0.631272 0.411388 0.085897 0.170102
H3    H     H_    0.778439 0.647453 0.442305 0.161228
H4    H     H_    0.221891 0.353210 0.564929 0.155440
H5    H     H_    0.778952 0.352200 0.560477 0.162296
H6    H     H_    0.220704 0.647939 0.444348 0.164221
H7    H     H_    0.918923 0.268866 0.598191 0.146383
H8    H     H_    0.080970 0.732378 0.412753 0.147111
H9    H     H_    0.082363 0.269444 0.600781 0.144083
H10   H     H_    0.917629 0.732107 0.411641 0.146354
H11   H     H_    0.600772 0.757914 0.359583 0.151043
H12   H     H_    0.399757 0.242149 0.641199 0.145367
H13   H     H_    0.399250 0.757884 0.640453 0.129033
H14   H     H_    0.600593 0.242078 0.359300 0.130297
H15   H     H_    0.338282 0.912191 0.722947 0.138356
H16   H     H_    0.661944 0.087640 0.277593 0.145518
H17   H     H_    0.661928 0.912263 0.277383 0.141350
H18   H     H_    0.339205 0.087770 0.724454 0.142127
N1    N     N_R   0.500000 0.750030 0.500000 -0.102307
N2    N     N_R   0.500000 0.249970 0.500000 -0.104049
O1    O     O_R   0.367850 0.580280 0.500030 -0.635551
O2    O     O_R   0.632150 0.419720 0.499970 -0.636998
O3    O     O_R   0.632150 0.580280 0.499970 -0.629830
O4    O     O_R   0.367850 0.419720 0.500030 -0.623522
O5    O     O_R   0.499970 0.580260 0.313950 -0.586417
O6    O     O_R   0.500030 0.419740 0.686050 -0.594288
O7    O     O_R   0.500030 0.580260 0.686050 -0.624763
O8    O     O_R   0.499970 0.419740 0.313950 -0.618532
Zn1   Zn    Zn3+2 0.500000 0.607200 0.500000 0.960574
Zn2   Zn    Zn3+2 0.500000 0.392800 0.500000 0.957329
O9    O     O_3   0.513482 0.682158 0.090942 -0.621173
C43   C     C_3   0.493176 0.751494 0.997815 0.113423
H19   H     H_    0.420574 0.749804 0.975280 0.130826
H20   H     H_    0.532350 0.739624 0.909109 0.176683
C44   C     C_3   0.516309 0.849871 0.050651 -0.330365
H21   H     H_    0.480125 0.861261 0.141670 0.236651
H22   H     H_    0.589179 0.853327 0.070021 0.224494
C45   C     C_3   0.490887 0.929173 0.957654 -0.965673
H23   H     H_    0.527563 0.920568 0.866591 0.278238
H24   H     H_    0.508228 0.999361 0.999417 0.261949
H25   H     H_    0.417930 0.928038 0.939021 0.262234
O10   O     O_3   0.485380 0.317760 0.909146 -0.641498
C46   C     C_3   0.531318 0.248325 0.981677 0.117784
H26   H     H_    0.492062 0.181266 0.977772 0.152812
H27   H     H_    0.536636 0.266808 0.084651 0.145871
C47   C     C_3   0.623121 0.229178 0.922747 -0.347322
H28   H     H_    0.614175 0.195663 0.827789 0.230614
H29   H     H_    0.659485 0.297336 0.909059 0.220425
C48   C     C_3   0.679506 0.163754 0.006811 -0.988378
H30   H     H_    0.692778 0.198680 0.099683 0.257124
H31   H     H_    0.744354 0.149253 0.959580 0.271666
H32   H     H_    0.644840 0.094884 0.023064 0.269391
O11   O     O_3   0.650456 0.590225 0.911739 -0.638908
C49   C     C_3   0.711559 0.527670 0.852223 0.109084
H33   H     H_    0.735133 0.563276 0.763994 0.170293
H34   H     H_    0.682006 0.458278 0.822217 0.109036
C50   C     C_3   0.792057 0.510660 0.939410 -0.348287
H35   H     H_    0.821162 0.580431 0.967426 0.236849
H36   H     H_    0.770576 0.473081 0.027177 0.217213
C51   C     C_3   0.863719 0.451214 0.873487 -0.946009
H37   H     H_    0.835757 0.381953 0.841352 0.263420
H38   H     H_    0.919372 0.436844 0.940841 0.268297
H39   H     H_    0.890632 0.490755 0.790366 0.275529
O12   O     O_3   0.350631 0.415029 0.095128 -0.632429
C52   C     C_3   0.284434 0.403777 0.000659 0.104880
H40   H     H_    0.311627 0.366541 0.915416 0.164191
H41   H     H_    0.257451 0.474722 0.971875 0.138365
C53   C     C_3   0.207842 0.344417 0.054441 -0.319313
H42   H     H_    0.233413 0.272982 0.083169 0.227545
H43   H     H_    0.180231 0.380297 0.140094 0.234569
C54   C     C_3   0.133455 0.332018 0.956290 -0.979132
H44   H     H_    0.105848 0.402588 0.927769 0.270246
H45   H     H_    0.078826 0.288678 0.997977 0.269519
H46   H     H_    0.159231 0.294864 0.870541 0.261626

loop_
_geom_bond_atom_site_label_1
_geom_bond_atom_site_label_2
_ccdc_geom_bond_type
C14   H14   S    
C28   O10   S    
O9    C43   S    
C19   C20   A    
C25   O5    A    
C2    O3    A    
C10   H10   S    
C6    C9    A    
C39   C41   A    
C44   H21   S    
C23   H17   S    
C17   C23   A    
C43   H20   S    
C18   C24   A    
C35   C37   A    
C8    C42   A    
C29   C32   S    
C30   C31   S    
C44   C45   S    
C27   C29   S    
O12   C52   S    
C14   N2    A    
C49   C50   S    
C29   C33   S    
C51   H39   S    
C40   H6    S    
O7    Zn1   S    
C53   H42   S    
O4    Zn2   S    
O11   C49   S    
C43   C44   S    
C49   H34   S    
C52   H40   S    
C31   C33   S    
C36   H4    S    
C18   C20   A    
C11   H11   S    
C16   C20   A    
C25   C34   S    
C54   H46   S    
N1    Zn1   S    
C40   C42   A    
C30   O12   S    
C52   H41   S    
C45   H25   S    
C1    O1    A    
C2    O2    A    
C44   H22   S    
C27   C34   S    
C43   H19   S    
C30   C34   S    
C46   H27   S    
C27   C31   S    
C28   C32   S    
O10   C46   S    
C7    H7    S    
C4    C6    A    
C48   H30   S    
C29   O11   S    
C3    C5    A    
C46   H26   S    
O6    Zn2   S    
C32   C34   S    
C15   C19   A    
C21   H15   S    
C48   H31   S    
C12   N2    A    
C26   C33   S    
C50   H35   S    
C47   C48   S    
C24   H18   S    
C49   H33   S    
C1    O4    A    
C32   H2    S    
N2    Zn2   S    
C51   H38   S    
C53   C54   S    
C31   H1    S    
C1    C38   S    
C45   H24   S    
C50   H36   S    
C47   H29   S    
C28   C33   S    
C13   C15   A    
C52   C53   S    
C14   C16   A    
C3    C4    A    
C35   H3    S    
C8    H8    S    
C39   H5    S    
C54   H44   S    
C46   C47   S    
C7    C9    A    
C3    C41   A    
C16   C22   A    
O1    Zn1   S    
C45   H23   S    
C11   N1    A    
C11   C17   A    
C22   H16   S    
C26   O6    A    
C9    H9    S    
C28   C30   S    
C5    C10   A    
C37   C39   A    
O3    Zn1   S    
C48   H32   S    
C38   C40   A    
C2    C37   S    
C4    C42   A    
C5    C35   A    
C36   C38   A    
C17   C19   A    
C6    C36   A    
O5    Zn1   S    
C7    C41   A    
C51   H37   S    
C53   H43   S    
C15   C21   A    
C50   C51   S    
C13   N1    A    
C47   H28   S    
C8    C10   A    
C21   C24   A    
C12   C18   A    
C26   O7    A    
C22   C23   A    
O8    Zn2   S    
C25   O8    A    
C54   H45   S    
C27   O9    S    
C12   H12   S    
O2    Zn2   S    
C13   H13   S    
