data_mof_unit_20523.cif
_audit_creation_date              2012-12-11T16:05:01-0500
_audit_creation_method            fapswitch 2.2
_symmetry_space_group_name_H-M    P1
_symmetry_Int_Tables_number       1
_space_group_crystal_system       triclinic
_cell_length_a                    10.663395
_cell_length_b                    10.617154
_cell_length_c                    16.864357
_cell_angle_alpha                 98.978044
_cell_angle_beta                  98.932903
_cell_angle_gamma                 61.494846
_cell_volume                      1650.08776818

loop_
_atom_site_label
_atom_site_type_symbol
_atom_type_description
_atom_site_fract_x
_atom_site_fract_y
_atom_site_fract_z
_atom_type_partial_charge
C1    C     C_R   0.355967 0.771974 0.397193 0.564527
C2    C     C_3   0.766360 0.294587 0.248113 -0.160661
C3    C     C_3   0.835239 0.343472 0.325607 0.070880
C4    C     C_3   0.983563 0.234754 0.303367 0.062020
C5    C     C_3   0.994513 0.346107 0.259772 -0.110506
C6    C     C_3   0.843128 0.454497 0.281209 0.104901
C7    C     C_3   0.772452 0.408927 0.204147 -0.091720
C8    C     C_3   0.923796 0.297254 0.182947 0.010770
C9    C     C_3   0.479853 0.770373 0.218117 -0.119549
C10   C     C_3   0.426495 0.676519 0.250764 -0.134252
C11   C     C_3   0.351498 0.800904 0.315557 0.092764
C12   C     C_R   0.406194 0.374314 0.357376 0.551616
C13   C     C_3   0.405000 0.890521 0.283670 0.114694
C14   C     C_3   0.266411 0.955339 0.228937 -0.043467
C15   C     C_3   0.212759 0.861533 0.259896 -0.112119
C16   C     C_3   0.285930 0.738712 0.194414 -0.149405
C17   C     C_3   0.338747 0.832079 0.163745 0.016715
C18   C     C_3   0.450417 0.223878 0.766778 -0.114147
C19   C     C_3   0.430726 0.360595 0.734734 -0.162875
C20   C     C_3   0.334295 0.336124 0.662499 0.037935
C21   C     C_3   0.353436 0.200535 0.694270 -0.159387
C22   C     C_3   0.219038 0.295922 0.740502 -0.093293
C23   C     C_R   0.777478 0.377010 0.402230 0.558818
C24   C     C_3   0.202784 0.431230 0.708315 0.283429
C25   C     C_3   0.297404 0.455803 0.781266 -0.127222
C26   C     C_3   0.317045 0.319369 0.812076 0.013301
C27   C     C_1   0.771395 0.366948 0.715293 -0.018494
C28   C     C_1   0.815346 0.329053 0.781955 -0.030462
C29   C     C_1   0.358261 0.764202 0.714503 -0.028240
C30   C     C_1   0.326303 0.810629 0.782134 -0.025743
C31   C     C_R   0.962643 0.283004 0.102342 0.551796
C32   C     C_R   0.322133 0.303023 0.119224 0.532918
C33   C     C_R   0.300002 0.881454 0.084382 0.525747
C34   C     C_R   0.379744 0.715565 0.631543 0.530659
C35   C     C_R   0.878955 0.302151 0.862163 0.553594
C36   C     C_R   0.307171 0.292790 0.891126 0.552263
C37   C     C_R   0.282249 0.879957 0.859816 0.543954
C38   C     C_R   0.366682 0.345947 0.584916 0.562932
C39   C     C_R   0.719573 0.410221 0.635768 0.533967
C40   C     C_1   0.374884 0.362068 0.272591 -0.072798
C41   C     C_1   0.349537 0.343955 0.201410 -0.071092
C42   C     C_3   0.918280 0.181449 0.225534 -0.111430
Cr1   Cr    Cr6+3 0.608340 0.611040 0.520430 1.070109
Cr2   Cr    Cr6+3 0.287650 0.601120 0.489350 1.073731
Cr3   Cr    Cr6+3 0.604040 0.287870 0.490280 1.029714
Cr4   Cr    Cr6+3 0.054020 0.052700 0.970850 1.038438
Cr5   Cr    Cr6+3 0.059230 0.375120 0.993390 1.035177
Cr6   Cr    Cr6+3 0.374950 0.061200 0.992340 1.021888
H1    H     H_    0.673172 0.273591 0.244842 0.118288
H2    H     H_    0.209843 0.069835 0.216721 0.131783
H3    H     H_    0.105659 0.894581 0.279096 0.130570
H4    H     H_    0.238663 0.674448 0.155718 0.132157
H5    H     H_    0.516529 0.388997 0.730783 0.098223
H6    H     H_    0.554012 0.139935 0.792370 0.154468
H7    H     H_    0.375310 0.097277 0.657305 0.147403
H8    H     H_    0.130452 0.271133 0.745070 0.144548
H9    H     H_    0.274934 0.559028 0.818373 0.136699
H10   H     H_    0.946931 0.070363 0.198219 0.129701
H11   H     H_    0.087923 0.366890 0.263584 0.125986
H12   H     H_    0.686975 0.479612 0.161197 0.127601
H13   H     H_    0.491390 0.562030 0.262885 0.105854
H14   H     H_    0.585863 0.737187 0.197521 0.128969
O1    O     O_R   0.751220 0.499230 0.435170 -0.470777
O2    O     O_R   0.297880 0.469080 0.560050 -0.465002
O3    O     O_R   0.489720 0.254590 0.564810 -0.513493
O4    O     O_R   0.725220 0.304230 0.585080 -0.488200
O5    O     O_3   0.500010 0.500010 0.500020 -0.334497
O6    O     O_R   0.171830 0.913880 0.057510 -0.527007
O7    O     O_R   0.940690 0.186050 0.054730 -0.498444
O8    O     O_R   0.920470 0.405720 0.075010 -0.518187
O9    O     O_R   0.196690 0.370460 0.084120 -0.519244
O10   O     O_R   0.412990 0.180750 0.091610 -0.506654
O11   O     O_R   0.366620 0.943130 0.065760 -0.505116
O12   O     O_R   0.477220 0.727600 0.436870 -0.490544
O13   O     O_R   0.160510 0.906330 0.879210 -0.488241
O14   O     O_R   0.930190 0.179050 0.889450 -0.486010
O15   O     O_R   0.909140 0.398170 0.896710 -0.487298
O16   O     O_R   0.186190 0.363460 0.918830 -0.488342
O17   O     O_R   0.401670 0.173200 0.913310 -0.515441
O18   O     O_R   0.356120 0.936130 0.900470 -0.497360
O19   O     O_3   0.162740 0.163010 0.985530 -0.279829
O20   O     O_R   0.258650 0.745120 0.411470 -0.530294
O21   O     O_R   0.297070 0.467240 0.395960 -0.491370
O22   O     O_R   0.488830 0.252610 0.387790 -0.494263
O23   O     O_R   0.724400 0.302390 0.420980 -0.524365
O24   O     O_R   0.752100 0.501210 0.612190 -0.431833
O25   O     O_R   0.478040 0.729440 0.600970 -0.515138
O26   O     O_R   0.259530 0.747110 0.588490 -0.446662
S1    S     S_3+6 0.037961 0.570577 0.669722 0.028986
O27   O     O_2   0.056178 0.701333 0.666046 -0.275535
O28   O     O_2   0.995308 0.520376 0.586579 -0.266225
O29   O     O_3   0.911553 0.611648 0.731506 -0.515185
H15   H     H_    0.828051 0.699692 0.712368 0.365820
N1    N     N_3   0.093741 0.146704 0.362307 -0.619386
H16   H     H_    0.114530 0.216118 0.407070 0.258868
H17   H     H_    0.050535 0.096311 0.389784 0.235767
N2    N     N_3   0.803341 0.603754 0.311424 -0.611548
H18   H     H_    0.822383 0.650157 0.267391 0.214716
H19   H     H_    0.875202 0.602762 0.361410 0.258262
N3    N     N_3   0.467091 0.974909 0.333906 -0.570995
H20   H     H_    0.497624 0.020739 0.294957 0.243173
H21   H     H_    0.561354 0.903037 0.364694 0.252247

loop_
_geom_bond_atom_site_label_1
_geom_bond_atom_site_label_2
_ccdc_geom_bond_type
C18   C21   S    
C3    C23   S    
C2    C7    S    
C1    C11   S    
C3    C6    S    
C24   S1    S    
C42   H10   S    
Cr4   O14   S    
N2    H18   S    
Cr1   O1    S    
C7    C8    S    
C32   O10   A    
Cr2   O2    S    
C25   H9    S    
C1    O12   A    
Cr6   O17   S    
C8    C42   S    
Cr2   O20   S    
C5    C6    S    
C15   C16   S    
C26   C36   S    
Cr6   O19   S    
C12   O22   A    
C18   C19   S    
C9    C13   S    
N3    H20   S    
Cr4   O7    S    
C11   C15   S    
C31   O8    A    
C20   C24   S    
C28   C35   S    
C27   C39   S    
C16   C17   S    
C18   C26   S    
Cr3   O5    S    
C32   C41   S    
C15   H3    S    
S1    O28   D    
C9    C10   S    
Cr2   O21   S    
Cr1   O12   S    
C23   O1    A    
C37   O13   A    
C13   C14   S    
Cr1   O24   S    
C14   C17   S    
C17   C33   S    
Cr6   O10   S    
Cr4   O13   S    
N2    H19   S    
C32   O9    A    
C38   O2    A    
C37   O18   A    
C35   O14   A    
C5    H11   S    
C9    H14   S    
C6    N2    S    
C24   C25   S    
C21   H7    S    
C22   H8    S    
C1    O20   A    
C29   C34   S    
C35   O15   A    
C12   O21   A    
C12   C40   S    
Cr3   O23   S    
Cr5   O8    S    
Cr4   O6    S    
C29   C30   T    
C2    H1    S    
Cr4   O19   S    
C20   C38   S    
C38   O3    A    
C2    C42   S    
N3    H21   S    
C34   O26   A    
S1    O29   S    
N1    H17   S    
Cr5   O9    S    
C4    N1    S    
C33   O11   A    
C40   C41   T    
Cr3   O3    S    
C39   O4    A    
C22   C24   S    
C10   H13   S    
Cr5   O15   S    
C3    C4    S    
C7    H12   S    
Cr3   O4    S    
C9    C17   S    
C8    C31   S    
Cr6   O11   S    
C16   H4    S    
C4    C5    S    
C36   O17   A    
C5    C8    S    
C6    C7    S    
C39   O24   A    
Cr1   O25   S    
Cr6   O18   S    
C19   C20   S    
C2    C3    S    
C25   C26   S    
C23   O23   A    
C36   O16   A    
C11   C13   S    
C19   H5    S    
C14   H2    S    
C4    C42   S    
C13   N3    S    
O29   H15   S    
Cr2   O26   S    
C34   O25   A    
Cr5   O19   S    
N1    H16   S    
C19   C25   S    
C10   C11   S    
C18   H6    S    
Cr3   O22   S    
C31   O7    A    
C20   C21   S    
C30   C37   S    
Cr1   O5    S    
C22   C26   S    
C27   C28   T    
C14   C15   S    
Cr2   O5    S    
C10   C16   S    
Cr5   O16   S    
S1    O27   D    
C21   C22   S    
C33   O6    A    
