data_mof_unit_57182.cif
_audit_creation_date              2012-12-10T19:01:22-0500
_audit_creation_method            fapswitch 2.2
_symmetry_space_group_name_H-M    P1
_symmetry_Int_Tables_number       1
_space_group_crystal_system       triclinic
_cell_length_a                    9.551098
_cell_length_b                    10.894751
_cell_length_c                    15.509568
_cell_angle_alpha                 88.686912
_cell_angle_beta                  73.719371
_cell_angle_gamma                 88.417474
_cell_volume                      1548.37579727

loop_
_atom_site_label
_atom_site_type_symbol
_atom_type_description
_atom_site_fract_x
_atom_site_fract_y
_atom_site_fract_z
_atom_type_partial_charge
C1    C     C_R   0.000266 0.262436 0.502902 0.818310
C2    C     C_R   0.668096 0.485307 0.907107 0.122097
C3    C     C_R   0.758308 0.534802 0.955835 0.140276
C4    C     C_R   0.520021 0.459168 0.952015 -0.001060
C5    C     C_R   0.471141 0.466704 0.047017 0.056593
C6    C     C_R   0.565547 0.511983 0.093559 -0.210154
C7    C     C_R   0.705629 0.547825 0.048554 -0.249472
C8    C     C_R   0.416653 0.434894 0.904960 -0.314166
C9    C     C_R   0.268354 0.426918 0.949416 0.467867
C10   C     C_R   0.220147 0.441140 0.042891 0.027668
C11   C     C_R   0.323224 0.444554 0.092465 0.004289
C12   C     C_R   0.917299 0.500755 0.672009 0.784461
C13   C     C_R   0.071590 0.455479 0.088082 -0.199000
C14   C     C_R   0.028342 0.479347 0.179789 -0.254940
C15   C     C_R   0.273278 0.428182 0.186621 0.053423
C16   C     C_R   0.108244 0.055795 0.526557 0.029818
C17   C     C_R   0.996857 0.129381 0.509351 -0.162304
C18   C     C_R   0.872400 0.069342 0.500491 -0.301015
C19   C     C_R   0.867989 0.940279 0.499031 0.495399
C20   C     C_R   0.988787 0.869484 0.510146 -0.202771
C21   C     C_R   0.103012 0.931749 0.527160 -0.033368
C22   C     C_3   0.250706 0.909031 0.540068 -0.080049
C23   C     C_R   0.996653 0.737139 0.502980 0.827966
C24   C     C_3   0.261561 0.052016 0.534880 -0.108572
C25   C     C_R   0.598285 0.573582 0.441234 0.297533
C26   C     C_R   0.545831 0.443988 0.567042 -0.084464
C27   C     C_R   0.396793 0.444361 0.567208 -0.104401
C28   C     C_R   0.450666 0.574604 0.441792 0.259803
C29   C     C_3   0.490206 0.573191 0.342156 -0.531288
C30   C     C_3   0.648867 0.569389 0.341579 -0.536238
C31   C     C_R   0.082751 0.489896 0.328187 0.790300
C32   C     C_R   0.868468 0.506836 0.770029 -0.074507
C33   C     C_R   0.129082 0.467519 0.230431 -0.066462
C34   C     C_R   0.899267 0.573649 0.910807 -0.149974
C35   C     C_R   0.953882 0.560196 0.818263 -0.136385
C36   C     C_R   0.728215 0.467554 0.814607 -0.260201
Cu1   Cu    Cu3+1 0.140670 0.499980 0.500000 0.916936
Cu2   Cu    Cu3+1 0.859330 0.500020 0.500000 0.951878
H1    H     H_    0.772200 0.587434 0.086541 0.138320
H2    H     H_    0.989917 0.455205 0.052119 0.178849
H3    H     H_    0.778354 0.122045 0.493526 0.173725
H4    H     H_    0.325465 0.863222 0.480775 0.143275
H5    H     H_    0.338574 0.084261 0.470880 0.137321
H6    H     H_    0.579122 0.396574 0.620152 0.152559
H7    H     H_    0.318030 0.399336 0.621480 0.150467
H8    H     H_    0.457983 0.487419 0.317209 0.214945
H9    H     H_    0.456569 0.659620 0.313231 0.193415
H10   H     H_    0.703165 0.480119 0.317725 0.210957
H11   H     H_    0.708867 0.652733 0.310988 0.191247
H12   H     H_    0.915526 0.502909 0.211072 0.156321
H13   H     H_    0.966726 0.615985 0.946996 0.143372
H14   H     H_    0.061527 0.593188 0.784329 0.160550
H15   H     H_    0.668565 0.422094 0.775476 0.142627
H16   H     H_    0.528052 0.528720 0.164546 0.156841
H17   H     H_    0.444921 0.431050 0.832744 0.160116
N1    N     N_R   0.648210 0.500930 0.499430 -0.184478
N2    N     N_R   0.352300 0.500890 0.499430 -0.185206
O1    O     O_R   0.118810 0.319640 0.500000 -0.590288
O2    O     O_R   0.881230 0.319680 0.499990 -0.587842
O3    O     O_R   0.055580 0.499970 0.629840 -0.598510
O4    O     O_R   0.818000 0.500010 0.629830 -0.586257
O5    O     O_R   0.118770 0.680320 0.500010 -0.599544
O6    O     O_R   0.881190 0.680360 0.500000 -0.519447
O7    O     O_R   0.182000 0.499990 0.370170 -0.589069
O8    O     O_R   0.944420 0.500030 0.370160 -0.581868
O9    O     O_3   0.742162 0.883969 0.494103 -0.575267
C37   C     C_3   0.721475 0.905850 0.408478 -0.367498
H18   H     H_    0.629099 0.850083 0.402890 0.177557
H19   H     H_    0.819510 0.877412 0.353917 0.162911
H20   H     H_    0.691355 0.003486 0.399213 0.152674
C38   C     C_3   0.237605 0.837876 0.630101 -0.358375
C39   C     C_3   0.385773 0.805598 0.646294 -0.330367
C40   C     C_3   0.371427 0.708116 0.720512 -0.846786
H21   H     H_    0.297328 0.741951 0.784656 0.248764
H22   H     H_    0.327774 0.622269 0.702143 0.256662
H23   H     H_    0.480295 0.686932 0.730499 0.257339
H24   H     H_    0.463366 0.770811 0.583624 0.243230
H25   H     H_    0.431135 0.887721 0.667966 0.242335
H26   H     H_    0.165044 0.885848 0.688721 0.179588
H27   H     H_    0.183029 0.750151 0.627933 0.228754
C41   C     C_3   0.282318 0.118604 0.616606 -0.339954
C42   C     C_3   0.445834 0.131924 0.606995 -0.361245
C43   C     C_3   0.473232 0.165707 0.695731 -0.890967
H28   H     H_    0.414112 0.252478 0.721207 0.247578
H29   H     H_    0.435990 0.091470 0.746634 0.254284
H30   H     H_    0.591834 0.178170 0.685475 0.249789
H31   H     H_    0.507715 0.046253 0.582208 0.248756
H32   H     H_    0.490851 0.202990 0.555156 0.212880
H33   H     H_    0.230868 0.211213 0.619327 0.199503
H34   H     H_    0.226676 0.073118 0.681042 0.199486
C44   C     C_3   0.343697 0.323678 0.228253 -0.436298
C45   C     C_3   0.297685 0.199051 0.202029 -0.322834
C46   C     C_3   0.355672 0.092868 0.249037 -0.879886
H35   H     H_    0.476472 0.095340 0.232922 0.253186
H36   H     H_    0.307538 0.098348 0.322817 0.249341
H37   H     H_    0.324851 0.004269 0.226243 0.242755
H38   H     H_    0.176597 0.195152 0.220875 0.219607
H39   H     H_    0.340102 0.187568 0.128138 0.221474
H40   H     H_    0.464397 0.327490 0.205425 0.195786
H41   H     H_    0.312059 0.326742 0.302408 0.224964
O10   O     O_3   0.171009 0.414845 0.899175 -0.591441
C47   C     C_3   0.138855 0.289543 0.897632 -0.360146
H42   H     H_    0.077713 0.255505 0.965552 0.165752
H43   H     H_    0.239313 0.232167 0.870960 0.162095
H44   H     H_    0.068418 0.278794 0.852402 0.197796

loop_
_geom_bond_atom_site_label_1
_geom_bond_atom_site_label_2
_ccdc_geom_bond_type
C46   H35   S    
C40   H21   S    
C19   C20   A    
C25   N1    A    
C4    C8    A    
C14   C33   A    
C38   H26   S    
C41   C42   S    
C45   H39   S    
C14   H12   S    
C28   N2    A    
C25   C28   A    
C26   C27   A    
Cu1   Cu2   S    
C29   H9    S    
C47   H44   S    
C32   C36   A    
C30   H10   S    
C28   C29   S    
C5    C11   A    
C3    C7    A    
C1    O2    A    
C5    C6    A    
C16   C17   A    
C42   H31   S    
C19   O9    S    
C34   C35   A    
C13   H2    S    
C39   H25   S    
C36   H15   S    
C11   C15   A    
C23   O5    A    
C8    C9    A    
C31   C33   S    
C44   H41   S    
C29   C30   S    
C9    C10   A    
Cu1   O1    S    
Cu2   O4    S    
C41   H33   S    
C27   H7    S    
C23   O6    A    
O9    C37   S    
C46   H36   S    
C21   C22   S    
C12   C32   S    
C40   H22   S    
C6    H16   S    
C8    H17   S    
C38   H27   S    
C45   H38   S    
Cu1   O5    S    
C26   H6    S    
C37   H18   S    
O10   C47   S    
C27   N2    A    
C18   H3    S    
C44   C45   S    
C18   C19   A    
C3    C34   A    
C37   H19   S    
C2    C4    A    
C24   C41   S    
C32   C35   A    
C39   H24   S    
C43   H28   S    
C20   C23   S    
C17   C18   A    
C34   H13   S    
C47   H43   S    
C41   H34   S    
C9    O10   S    
C43   H29   S    
C30   H11   S    
C46   H37   S    
C40   H23   S    
C22   C24   S    
C22   C38   S    
Cu1   O7    S    
Cu2   O6    S    
C2    C36   A    
C25   C30   S    
C31   O8    A    
C31   O7    A    
C39   C40   S    
C10   C13   A    
C26   N1    A    
C16   C21   A    
C6    C7    A    
C1    C17   S    
C29   H8    S    
C37   H20   S    
C2    C3    A    
C38   C39   S    
C1    O1    A    
C12   O4    A    
C22   H4    S    
C42   H32   S    
C45   C46   S    
C47   H42   S    
Cu1   O3    S    
C10   C11   A    
C15   C44   S    
Cu2   O2    S    
C12   O3    A    
C4    C5    A    
C43   H30   S    
Cu2   N1    S    
C20   C21   A    
C16   C24   S    
C42   C43   S    
C35   H14   S    
C24   H5    S    
C7    H1    S    
C44   H40   S    
C13   C14   A    
Cu2   O8    S    
C15   C33   A    
Cu1   N2    S    
