data_mof_unit_37142.cif
_audit_creation_date              2012-12-11T15:54:44-0500
_audit_creation_method            fapswitch 2.2
_symmetry_space_group_name_H-M    P1
_symmetry_Int_Tables_number       1
_space_group_crystal_system       triclinic
_cell_length_a                    6.96369
_cell_length_b                    14.508493
_cell_length_c                    16.12813
_cell_angle_alpha                 90.081151
_cell_angle_beta                  89.870659
_cell_angle_gamma                 89.985195
_cell_volume                      1629.46183304

loop_
_atom_site_label
_atom_site_type_symbol
_atom_type_description
_atom_site_fract_x
_atom_site_fract_y
_atom_site_fract_z
_atom_type_partial_charge
O1    O     O_R   0.638180 0.333920 0.163320 -0.544832
O2    O     O_R   0.361820 0.666080 0.836680 -0.546842
O3    O     O_R   0.308470 0.344960 0.336080 -0.516949
O4    O     O_R   0.691530 0.655040 0.663920 -0.514433
O5    O     O_R   0.138140 0.166110 0.336680 -0.540587
O6    O     O_R   0.861860 0.833890 0.663320 -0.535456
C1    C     C_R   0.477034 0.365607 0.366115 0.721544
C2    C     C_R   0.522837 0.631301 0.636360 0.734718
O7    O     O_R   0.308460 0.344950 0.163930 -0.515808
O8    O     O_R   0.691540 0.655050 0.836070 -0.517909
O9    O     O_R   0.138140 0.166100 0.163310 -0.525136
O10   O     O_R   0.861860 0.833900 0.836690 -0.529239
C3    C     C_R   0.477540 0.369165 0.136702 0.730345
C4    C     C_R   0.522953 0.634834 0.866400 0.718746
O11   O     O_R   0.638180 0.333930 0.336700 -0.548618
O12   O     O_R   0.361820 0.666070 0.663300 -0.547373
O13   O     O_3   0.471670 0.191340 0.250000 -0.376182
O14   O     O_3   0.528330 0.808660 0.750000 -0.375896
V1    V     V_3+5 0.196830 0.260900 0.250000 1.480483
V2    V     V_3+5 0.803170 0.739100 0.750000 1.480679
O15   O     O_R   0.808420 0.155070 0.163920 -0.555383
O16   O     O_R   0.191580 0.844930 0.836080 -0.555826
C5    C     C_R   0.977638 0.132050 0.135790 0.748572
C6    C     C_R   0.022368 0.867628 0.864449 0.732471
O17   O     O_R   0.808420 0.155080 0.336070 -0.542382
O18   O     O_R   0.191580 0.844920 0.663930 -0.542074
C7    C     C_R   0.976650 0.133463 0.364982 0.680452
C8    C     C_R   0.022902 0.866784 0.635374 0.692276
V3    V     V_3+5 0.696830 0.239130 0.250000 1.405410
V4    V     V_3+5 0.303170 0.760870 0.750000 1.403526
O19   O     O_3   0.971850 0.308690 0.250010 -0.360535
O20   O     O_3   0.028150 0.691310 0.749990 -0.360631
H1    H     H_    0.357520 0.864749 0.278365 0.138186
H2    H     H_    0.630685 0.131625 0.720572 0.138597
C9    C     C_R   0.767878 0.159493 0.520492 -0.164650
C10   C     C_R   0.209522 0.834343 0.476766 -0.129827
C11   C     C_R   0.676402 0.177047 0.595705 -0.159800
C12   C     C_R   0.300603 0.816439 0.401515 -0.139268
C13   C     C_R   0.699589 0.117002 0.661767 -0.101248
C14   C     C_R   0.288594 0.879518 0.337139 -0.112909
C15   C     C_R   0.811925 0.038254 0.652604 -0.122369
C16   C     C_R   0.185080 0.960867 0.347505 -0.124284
C17   C     C_R   0.902588 0.017020 0.576185 0.054637
C18   C     C_R   0.093694 0.982104 0.423745 0.055087
C19   C     C_R   0.884336 0.080263 0.509106 0.080511
C20   C     C_R   0.106590 0.917420 0.489983 0.074741
C21   C     C_R   0.012717 0.935260 0.566623 -0.190815
C22   C     C_R   0.984640 0.064294 0.433439 -0.193280
H3    H     H_    0.746417 0.209762 0.472240 0.120318
H4    H     H_    0.219066 0.781393 0.523597 0.122560
H5    H     H_    0.588914 0.238270 0.602973 0.106649
H6    H     H_    0.378910 0.752653 0.392815 0.117833
H7    H     H_    0.828130 0.995019 0.706540 0.154918
H8    H     H_    0.174949 0.005696 0.294371 0.157635
C23   C     C_R   0.141130 0.931275 0.999461 -0.339150
C24   C     C_R   0.858249 0.067799 0.001150 -0.324887
H9    H     H_    0.246141 0.876222 0.000768 0.133851
H10   H     H_    0.752860 0.122682 0.999872 0.141969
C25   C     C_R   0.132819 0.994593 0.065939 0.467730
C26   C     C_R   0.866612 0.004523 0.934694 0.466836
C27   C     C_R   0.988631 0.063044 0.067353 -0.186212
C28   C     C_R   0.011116 0.936263 0.933133 -0.187755
C29   C     C_R   0.320779 0.462204 0.478922 0.498260
C30   C     C_R   0.679380 0.515716 0.538746 0.496811
C31   C     C_R   0.334359 0.531292 0.539449 -0.304957
C32   C     C_R   0.666036 0.458162 0.469036 -0.302615
H11   H     H_    0.204139 0.559367 0.565508 0.215852
H12   H     H_    0.795898 0.431520 0.441665 0.216075
C33   C     C_R   0.513115 0.559609 0.570133 -0.244960
C34   C     C_R   0.487241 0.430832 0.437604 -0.243690
C35   C     C_R   0.321358 0.484660 0.039315 0.495538
C36   C     C_R   0.680012 0.540925 0.980686 0.498275
C37   C     C_R   0.334705 0.542173 0.969674 -0.298792
C38   C     C_R   0.666678 0.471700 0.041198 -0.297441
H13   H     H_    0.204662 0.567765 0.941955 0.217213
H14   H     H_    0.796696 0.444148 0.067428 0.216432
C39   C     C_R   0.513347 0.570562 0.938576 -0.240918
C40   C     C_R   0.487855 0.441686 0.071047 -0.242254
O21   O     O_3   0.249481 0.983081 0.134538 -0.572445
C41   C     C_3   0.441515 0.002207 0.112838 -0.218872
H15   H     H_    0.502173 0.947326 0.072473 0.112345
H16   H     H_    0.528532 0.003674 0.170349 0.165644
H17   H     H_    0.455624 0.071037 0.082994 0.136702
O22   O     O_3   0.749347 0.015898 0.866279 -0.570617
C42   C     C_3   0.557974 0.995506 0.888125 -0.213223
H18   H     H_    0.496319 0.049777 0.928866 0.117646
H19   H     H_    0.545741 0.926408 0.917649 0.129466
H20   H     H_    0.470584 0.993945 0.830726 0.167114
O23   O     O_3   0.144421 0.422723 0.464236 -0.542619
C43   C     C_3   0.134479 0.340054 0.510356 -0.199146
H21   H     H_    0.169510 0.350848 0.577019 0.111394
H22   H     H_    0.230170 0.286023 0.484154 0.123109
H23   H     H_    0.986154 0.313759 0.507221 0.137994
O24   O     O_3   0.855922 0.527098 0.575910 -0.542378
C44   C     C_3   0.866384 0.466254 0.644214 -0.183825
H24   H     H_    0.012418 0.470396 0.671261 0.144669
H25   H     H_    0.840435 0.393485 0.625436 0.107457
H26   H     H_    0.762824 0.485442 0.693868 0.119860
O25   O     O_3   0.144450 0.472593 0.076250 -0.542309
C45   C     C_3   0.131656 0.533858 0.144354 -0.183576
H27   H     H_    0.156187 0.606615 0.125273 0.106869
H28   H     H_    0.234972 0.515489 0.194121 0.118920
H29   H     H_    0.985402 0.529242 0.171380 0.142975
O26   O     O_3   0.856793 0.580016 0.964821 -0.541527
C46   C     C_3   0.867591 0.664497 0.008527 -0.199829
H30   H     H_    0.841670 0.654965 0.076092 0.110784
H31   H     H_    0.764413 0.716140 0.984056 0.112142
H32   H     H_    0.013629 0.693731 0.000631 0.133715

loop_
_geom_bond_atom_site_label_1
_geom_bond_atom_site_label_2
_ccdc_geom_bond_type
C7    C22   S    
C32   H12   S    
C29   C31   A    
C8    C21   S    
C23   C25   A    
O13   V3    S    
C44   H24   S    
O4    C2    A    
V1    O19   S    
C1    C34   S    
C44   H26   S    
C13   C15   A    
C42   H18   S    
C46   H31   S    
O9    V1    S    
C2    C33   S    
C38   H14   S    
C9    C11   A    
O3    C1    A    
C11   H5    S    
C19   C22   A    
C12   H6    S    
O12   V4    S    
C23   C28   A    
C26   C28   A    
C4    C39   S    
O7    C3    A    
C3    C40   S    
O7    V1    S    
O6    C8    A    
O8    V2    S    
C31   H11   S    
C9    H3    S    
O3    V1    S    
O14   V4    S    
V4    O20   S    
C14   C16   A    
C2    O12   A    
O5    C7    A    
C15   C17   A    
O10   V2    S    
C16   C18   A    
C41   H17   S    
O1    V3    S    
O26   C46   S    
C18   C20   A    
O11   V3    S    
C42   H19   S    
O17   V3    S    
C46   H32   S    
C25   C27   A    
H1    C14   S    
H2    C13   S    
O22   C42   S    
C36   C38   A    
O8    C4    A    
C25   O21   S    
C35   C37   A    
C1    O11   A    
C36   O26   S    
C35   O25   S    
C45   H29   S    
C24   C26   A    
C30   C32   A    
C36   C39   A    
C43   H22   S    
O25   C45   S    
C29   C34   A    
C29   O23   S    
C45   H28   S    
C30   C33   A    
C10   C20   A    
C17   C19   A    
C15   H7    S    
C41   H16   S    
O18   V4    S    
C23   H9    S    
O16   C6    A    
O1    C3    A    
C37   H13   S    
C10   C12   A    
C9    C19   A    
C10   H4    S    
C43   H23   S    
V2    O20   S    
C42   H20   S    
C20   C21   A    
C6    C28   S    
O16   V4    S    
C41   H15   S    
C44   H25   S    
O5    V1    S    
O17   C7    A    
O6    V2    S    
C46   H30   S    
O10   C6    A    
O18   C8    A    
O2    V4    S    
O15   C5    A    
C30   O24   S    
V3    O19   S    
C16   H8    S    
C12   C14   A    
C26   O22   S    
C43   H21   S    
C32   C34   A    
O15   V3    S    
C31   C33   A    
O9    C5    A    
C45   H27   S    
O13   V1    S    
C24   H10   S    
O14   V2    S    
O24   C44   S    
O2    C4    A    
O21   C41   S    
O4    V2    S    
C5    C27   S    
C11   C13   A    
C38   C40   A    
C37   C39   A    
C24   C27   A    
O23   C43   S    
C17   C21   A    
C35   C40   A    
C18   C22   A    
