data_mof_unit_55845.cif
_audit_creation_date              2012-12-11T17:14:11-0500
_audit_creation_method            fapswitch 2.2
_symmetry_space_group_name_H-M    P1
_symmetry_Int_Tables_number       1
_space_group_crystal_system       triclinic
_cell_length_a                    18.202388
_cell_length_b                    7.101259
_cell_length_c                    13.049535
_cell_angle_alpha                 89.999913
_cell_angle_beta                  72.341211
_cell_angle_gamma                 90.000069
_cell_volume                      1607.29994582

loop_
_atom_site_label
_atom_site_type_symbol
_atom_type_description
_atom_site_fract_x
_atom_site_fract_y
_atom_site_fract_z
_atom_type_partial_charge
O1    O     O_R   0.453880 0.506200 0.150010 -0.536859
O2    O     O_R   0.546120 0.006200 0.849990 -0.536858
O3    O     O_R   0.604080 0.177770 0.007280 -0.542084
O4    O     O_R   0.395920 0.677770 0.992720 -0.542087
C1    C     C_R   0.635969 0.344460 0.001717 0.731125
C2    C     C_R   0.364031 0.844460 0.998283 0.731124
O5    O     O_R   0.458010 0.176640 0.159130 -0.530439
O6    O     O_R   0.541990 0.676640 0.840870 -0.530439
O7    O     O_R   0.399010 0.004010 0.002930 -0.539450
O8    O     O_R   0.600990 0.504010 0.997070 -0.539451
C3    C     C_R   0.443171 0.345322 0.201268 0.707947
C4    C     C_R   0.556829 0.845323 0.798732 0.707948
O9    O     O_3   0.480810 0.338440 0.948570 -0.371534
O10   O     O_3   0.519190 0.838440 0.051430 -0.371533
V1    V     V_3+5 0.503560 0.064490 0.009540 1.468967
V2    V     V_3+5 0.496440 0.564490 0.990460 1.468963
C5    C     C_R   0.576904 0.893451 0.506123 0.332568
C6    C     C_R   0.423096 0.393442 0.493878 0.332568
H1    H     H_    0.482143 0.883346 0.651864 0.145990
H2    H     H_    0.517857 0.383346 0.348136 0.145990
H3    H     H_    0.655093 0.953245 0.300896 0.177455
H4    H     H_    0.344907 0.453221 0.699106 0.177459
C7    C     C_R   0.591063 0.855270 0.682629 -0.070303
C8    C     C_R   0.408937 0.355268 0.317371 -0.070303
C9    C     C_R   0.951783 0.830564 0.383105 0.272018
C10   C     C_R   0.048216 0.330565 0.616895 0.272020
C11   C     C_R   0.918100 0.810940 0.494088 -0.177902
C12   C     C_R   0.081900 0.310935 0.505912 -0.177904
C13   C     C_R   0.838818 0.818464 0.540200 -0.217397
C14   C     C_R   0.161182 0.318453 0.459800 -0.217395
C15   C     C_R   0.788509 0.851344 0.478114 0.060430
C16   C     C_R   0.211490 0.351333 0.521887 0.060432
C17   C     C_R   0.821231 0.874419 0.364421 -0.010173
C18   C     C_R   0.178769 0.374410 0.635580 -0.010181
C19   C     C_R   0.706616 0.861258 0.526289 0.053188
C20   C     C_R   0.293384 0.361247 0.473712 0.053189
C21   C     C_R   0.658102 0.890239 0.460449 0.030712
C22   C     C_R   0.341898 0.390225 0.539553 0.030707
C23   C     C_R   0.691088 0.919569 0.350724 -0.199138
C24   C     C_R   0.308912 0.419548 0.649278 -0.199133
C25   C     C_R   0.770617 0.912322 0.301976 0.216493
C26   C     C_R   0.229383 0.412305 0.698026 0.216494
C27   C     C_R   0.670945 0.845171 0.638493 -0.196915
C28   C     C_R   0.329054 0.345166 0.361508 -0.196915
C29   C     C_R   0.544260 0.878278 0.616897 -0.093960
C30   C     C_R   0.455740 0.378275 0.383104 -0.093958
C31   C     C_R   0.903317 0.859442 0.317868 -0.146959
C32   C     C_R   0.096682 0.359441 0.682132 -0.146958
H5    H     H_    0.703031 0.828032 0.694876 0.098570
H6    H     H_    0.296968 0.328031 0.305125 0.098569
H7    H     H_    0.819212 0.797288 0.625792 0.132272
H8    H     H_    0.180788 0.297272 0.374210 0.132272
H9    H     H_    0.952702 0.786621 0.547100 0.148622
H10   H     H_    0.047298 0.286614 0.452900 0.148621
C33   C     C_1   0.216141 0.858571 0.000999 -0.207738
C34   C     C_1   0.783859 0.358571 0.999001 -0.207739
C35   C     C_1   0.283512 0.852399 0.999543 -0.185540
C36   C     C_1   0.716488 0.352399 0.000457 -0.185537
O11   O     O_R   0.899030 0.205490 0.002790 -0.534097
O12   O     O_R   0.100970 0.705490 0.997210 -0.534102
O13   O     O_R   0.042000 0.536370 0.840840 -0.531038
O14   O     O_R   0.958000 0.036370 0.159160 -0.531033
C37   C     C_R   0.059723 0.368549 0.798898 0.791228
C38   C     C_R   0.940276 0.868550 0.201102 0.791231
O15   O     O_R   0.895930 0.535070 0.992690 -0.542690
O16   O     O_R   0.104070 0.035070 0.007310 -0.542683
O17   O     O_R   0.953870 0.707520 0.150040 -0.546355
O18   O     O_R   0.046130 0.207520 0.849960 -0.546350
C39   C     C_R   0.864287 0.366691 0.998147 0.716131
C40   C     C_R   0.135713 0.866692 0.001853 0.716136
O19   O     O_3   0.019200 0.374340 0.051340 -0.376243
O20   O     O_3   0.980800 0.874340 0.948660 -0.376244
V3    V     V_3+5 0.996440 0.648350 0.990470 1.430598
V4    V     V_3+5 0.003560 0.148350 0.009530 1.430615
Br1   Br    Br    0.506727 0.910671 0.421948 -0.588236
Br2   Br    Br    0.493273 0.410666 0.578052 -0.588237
N1    N     N_2   0.033988 0.823163 0.334958 -0.535654
H11   H     H_    0.053240 0.747275 0.264521 0.245294
C41   C     C_3   0.084626 0.814209 0.401585 -0.548804
H12   H     H_    0.145453 0.827841 0.350345 0.201519
H13   H     H_    0.077726 0.677438 0.444203 0.208959
H14   H     H_    0.072121 0.931202 0.460574 0.213275
N2    N     N_2   0.966011 0.323170 0.665041 -0.535650
H15   H     H_    0.946758 0.247281 0.735479 0.245288
C42   C     C_3   0.915374 0.314221 0.598412 -0.548793
H16   H     H_    0.854548 0.327862 0.649651 0.201519
H17   H     H_    0.922271 0.177447 0.555796 0.208956
H18   H     H_    0.927883 0.431212 0.539420 0.213271
N3    N     N_2   0.798601 0.956959 0.190696 -0.523289
H19   H     H_    0.789231 0.096070 0.175923 0.256230
C43   C     C_3   0.774487 0.830402 0.120101 -0.466432
H20   H     H_    0.810481 0.855080 0.035880 0.209431
H21   H     H_    0.713343 0.856024 0.124889 0.173085
H22   H     H_    0.781330 0.681836 0.142075 0.197102
N4    N     N_2   0.201397 0.456953 0.809305 -0.523281
H23   H     H_    0.210754 0.596079 0.824070 0.256228
C44   C     C_3   0.225524 0.330437 0.879908 -0.466426
H24   H     H_    0.189521 0.355102 0.964125 0.209432
H25   H     H_    0.286663 0.356121 0.875129 0.173082
H26   H     H_    0.218704 0.181855 0.857936 0.197095

loop_
_geom_bond_atom_site_label_1
_geom_bond_atom_site_label_2
_ccdc_geom_bond_type
C25   N3    S    
C10   N2    S    
C7    C29   A    
C11   C13   A    
O12   V3    S    
N4    H23   S    
O1    C3    A    
O2    C4    A    
C2    O7    A    
C44   H24   S    
O15   V3    S    
C23   C25   A    
N1    H11   S    
O5    C3    A    
C4    C7    S    
C1    C36   S    
C9    N1    S    
C16   C20   A    
C19   C21   A    
C5    C29   A    
O18   V4    S    
O16   V4    S    
C3    C8    S    
C7    C27   A    
O13   C37   A    
O14   C38   A    
O19   V4    S    
N4    C44   S    
C18   C26   A    
C15   C17   A    
O17   V3    S    
N3    C43   S    
C19   C27   A    
C9    C31   A    
C10   C32   A    
C24   C26   A    
O6    V2    S    
C2    C35   S    
C6    C30   A    
C44   H25   S    
N1    C41   S    
C42   H17   S    
C26   N4    S    
C14   C16   A    
C38   O17   A    
O20   V4    S    
C31   C38   S    
C41   H13   S    
C12   H10   S    
C27   H5    S    
C32   C37   S    
O13   V3    S    
C42   H16   S    
C16   C18   A    
O4    V2    S    
C43   H21   S    
N2    H15   S    
H3    C23   S    
O12   C40   A    
O6    C4    A    
H4    C24   S    
H1    C29   S    
O1    V2    S    
C5    C21   A    
O2    V1    S    
O11   V4    S    
O11   C39   A    
O4    C2    A    
N2    C42   S    
C8    C28   A    
C33   C35   T    
C17   C31   A    
C15   C19   A    
C20   C28   A    
C18   C32   A    
C20   C22   A    
C43   H20   S    
C44   H26   S    
O3    V1    S    
O19   V3    S    
C13   H7    S    
C42   H18   S    
C28   H6    S    
C14   H8    S    
C37   O18   A    
C6    Br2   S    
O20   V3    S    
O3    C1    A    
C41   H14   S    
C11   H9    S    
C9    C11   A    
C10   C12   A    
C8    C30   A    
C12   C14   A    
C6    C22   A    
C17   C25   A    
C1    O8    A    
C21   C23   A    
O8    V2    S    
C43   H22   S    
C22   C24   A    
O16   C40   A    
O15   C39   A    
O5    V1    S    
C34   C36   T    
O7    V1    S    
C33   C40   S    
C41   H12   S    
C13   C15   A    
C34   C39   S    
O9    V2    S    
C5    Br1   S    
O10   V1    S    
O14   V4    S    
N3    H19   S    
H2    C30   S    
