data_mof_unit_14287.cif
_audit_creation_date              2012-12-11T15:17:38-0500
_audit_creation_method            fapswitch 2.2
_symmetry_space_group_name_H-M    P1
_symmetry_Int_Tables_number       1
_space_group_crystal_system       triclinic
_cell_length_a                    7.17112
_cell_length_b                    18.947791
_cell_length_c                    23.212281
_cell_angle_alpha                 90.103243
_cell_angle_beta                  89.91185
_cell_angle_gamma                 89.924651
_cell_volume                      3154.00079738

loop_
_atom_site_label
_atom_site_type_symbol
_atom_type_description
_atom_site_fract_x
_atom_site_fract_y
_atom_site_fract_z
_atom_type_partial_charge
O1    O     O_R   0.620180 0.810610 0.187990 -0.537942
O2    O     O_R   0.379820 0.189390 0.812010 -0.539915
O3    O     O_R   0.379820 0.189390 0.687990 -0.537442
O4    O     O_R   0.620180 0.810610 0.312010 -0.536648
O5    O     O_R   0.120180 0.689390 0.312010 -0.540307
O6    O     O_R   0.879820 0.310610 0.687990 -0.536413
O7    O     O_R   0.879820 0.310610 0.812010 -0.537383
O8    O     O_R   0.120180 0.689390 0.187990 -0.555252
O9    O     O_R   0.290420 0.818570 0.311590 -0.551879
O10   O     O_R   0.709580 0.181430 0.688410 -0.553476
O11   O     O_R   0.709580 0.181430 0.811590 -0.540793
O12   O     O_R   0.290420 0.818570 0.188410 -0.542261
O13   O     O_R   0.790420 0.681430 0.188410 -0.535389
O14   O     O_R   0.209580 0.318570 0.811590 -0.546103
O15   O     O_R   0.209580 0.318570 0.688410 -0.555925
O16   O     O_R   0.790420 0.681430 0.311590 -0.548712
C1    C     C_R   0.457856 0.832443 0.332477 0.690878
C2    C     C_R   0.542112 0.167560 0.667496 0.689545
C3    C     C_R   0.541505 0.168356 0.833321 0.674149
C4    C     C_R   0.458895 0.831289 0.166841 0.673818
C5    C     C_R   0.958494 0.667321 0.167586 0.685857
C6    C     C_R   0.041013 0.334009 0.831421 0.680639
C7    C     C_R   0.042042 0.332354 0.667377 0.700457
C8    C     C_R   0.958089 0.667551 0.332468 0.680654
O17   O     O_3   0.453640 0.707610 0.250000 -0.377273
O18   O     O_3   0.546360 0.292390 0.750000 -0.373660
O19   O     O_3   0.953640 0.792390 0.250000 -0.371547
O20   O     O_3   0.046360 0.207610 0.750000 -0.374380
V1    V     V_3+5 0.178800 0.757860 0.250000 1.368845
V2    V     V_3+5 0.821200 0.242140 0.750000 1.387740
V3    V     V_3+5 0.678800 0.742140 0.250000 1.393611
V4    V     V_3+5 0.321200 0.257860 0.750000 1.375264
C9    C     C_R   0.018592 0.351514 0.558732 0.357218
C10   C     C_R   0.977604 0.647631 0.440619 0.360053
C11   C     C_R   0.935110 0.646563 0.058819 0.368888
C12   C     C_R   0.041488 0.352922 0.939775 0.376714
C13   C     C_R   0.572077 0.142907 0.941424 0.346707
C14   C     C_R   0.433393 0.851599 0.058180 0.370059
C15   C     C_R   0.478076 0.851873 0.440774 0.357536
C16   C     C_R   0.519240 0.148068 0.559196 0.358419
C17   C     C_R   0.035523 0.378443 0.615996 -0.302359
C18   C     C_R   0.965153 0.620722 0.383198 -0.303730
C19   C     C_R   0.968587 0.621281 0.116152 -0.304578
C20   C     C_R   0.028627 0.380086 0.882469 -0.294216
C21   C     C_R   0.528652 0.120155 0.883877 -0.291673
C22   C     C_R   0.474518 0.876544 0.115209 -0.291571
C23   C     C_R   0.463915 0.878815 0.383535 -0.300673
C24   C     C_R   0.535734 0.121185 0.616399 -0.300888
C25   C     C_R   0.048062 0.451676 0.625623 0.325735
C26   C     C_R   0.959067 0.547186 0.373213 0.331555
C27   C     C_R   0.004046 0.548917 0.125994 0.328361
C28   C     C_R   0.984250 0.451911 0.873249 0.293078
C29   C     C_R   0.462409 0.050481 0.874544 0.304008
C30   C     C_R   0.553145 0.944347 0.122710 0.296275
C31   C     C_R   0.454155 0.952134 0.373808 0.331704
C32   C     C_R   0.546496 0.047889 0.626125 0.328326
C33   C     C_R   0.033810 0.500428 0.579550 0.011768
C34   C     C_R   0.964942 0.498918 0.419822 0.019771
C35   C     C_R   0.000368 0.499730 0.080053 0.003414
C36   C     C_R   0.946219 0.496958 0.920227 -0.029976
C37   C     C_R   0.439456 0.003705 0.921416 -0.035425
C38   C     C_R   0.584613 0.988047 0.074775 -0.035674
C39   C     C_R   0.463265 0.000627 0.420251 0.017308
C40   C     C_R   0.534346 0.999250 0.579830 0.016381
C41   C     C_R   0.005205 0.475109 0.522870 -0.149078
C42   C     C_R   0.991531 0.524276 0.476586 -0.151920
C43   C     C_R   0.972499 0.523536 0.023035 -0.156165
C44   C     C_R   0.981414 0.473963 0.976759 -0.143312
C45   C     C_R   0.510553 0.021805 0.976067 -0.135843
C46   C     C_R   0.509016 0.970498 0.020857 -0.140039
C47   C     C_R   0.491364 0.975330 0.476894 -0.151144
C48   C     C_R   0.505533 0.024535 0.523206 -0.150733
C49   C     C_R   0.994837 0.400631 0.512330 -0.072478
C50   C     C_R   0.001213 0.598716 0.487107 -0.074135
C51   C     C_R   0.932904 0.596382 0.012181 -0.079726
C52   C     C_R   0.020408 0.401179 0.987018 -0.081201
C53   C     C_R   0.576029 0.091802 0.986853 -0.076748
C54   C     C_R   0.438694 0.901173 0.011365 -0.080506
C55   C     C_R   0.501474 0.900881 0.487301 -0.073334
C56   C     C_R   0.495038 0.098985 0.512766 -0.074007
C57   C     C_R   0.055456 0.574056 0.589413 0.210791
C58   C     C_R   0.937424 0.425590 0.410240 0.214876
C59   C     C_R   0.019079 0.426315 0.090569 0.234839
C60   C     C_R   0.873254 0.565428 0.911091 0.253932
C61   C     C_R   0.352974 0.937032 0.913628 0.255604
C62   C     C_R   0.682398 0.051953 0.081207 0.248138
C63   C     C_R   0.437162 0.074015 0.410699 0.214097
C64   C     C_R   0.557994 0.925715 0.589461 0.213465
C65   C     C_R   0.036360 0.623910 0.543990 0.377462
C66   C     C_R   0.956976 0.375661 0.455574 0.373931
C67   C     C_R   0.030044 0.377148 0.044764 0.385646
C68   C     C_R   0.882837 0.617277 0.954933 0.390225
C69   C     C_R   0.372904 0.883227 0.955317 0.383972
C70   C     C_R   0.648662 0.108367 0.042786 0.387642
C71   C     C_R   0.457153 0.123980 0.456075 0.376017
C72   C     C_R   0.537714 0.875800 0.544061 0.375406
O21   O     O_3   0.112277 0.596754 0.642694 -0.633329
H1    H     H_    0.997343 0.598716 0.666554 0.318066
O22   O     O_3   0.868177 0.403904 0.358060 -0.628680
H2    H     H_    0.978858 0.396258 0.333078 0.316448
O23   O     O_3   0.009993 0.401140 0.145907 -0.617469
H3    H     H_    0.139317 0.404095 0.160908 0.302638
O24   O     O_3   0.774894 0.580671 0.861586 -0.638644
H4    H     H_    0.703132 0.538101 0.850356 0.326481
O25   O     O_3   0.233750 0.924958 0.868081 -0.635325
H5    H     H_    0.161065 0.968757 0.861406 0.324725
O26   O     O_3   0.819992 0.059050 0.122436 -0.646098
H6    H     H_    0.875515 0.011966 0.129858 0.322964
O27   O     O_3   0.370911 0.095960 0.358284 -0.633727
H7    H     H_    0.482800 0.101827 0.333526 0.312556
O28   O     O_3   0.620560 0.903335 0.642175 -0.632525
H8    H     H_    0.507380 0.899138 0.666608 0.315987
O29   O     O_3   0.072389 0.476161 0.681081 -0.618440
H9    H     H_    0.177776 0.449787 0.698278 0.292063
O30   O     O_3   0.954731 0.521043 0.317474 -0.614820
H10   H     H_    0.882592 0.552930 0.292243 0.311796
O31   O     O_3   0.037321 0.524711 0.181257 -0.613841
H11   H     H_    0.112565 0.559650 0.202702 0.298295
O32   O     O_3   0.985282 0.480824 0.818485 -0.612292
H12   H     H_    0.066744 0.452652 0.792955 0.301942
O33   O     O_3   0.428183 0.024490 0.819642 -0.614889
H13   H     H_    0.474428 0.056874 0.789686 0.307581
O34   O     O_3   0.592677 0.971556 0.176865 -0.617606
H14   H     H_    0.523036 0.945954 0.206972 0.305338
O35   O     O_3   0.441609 0.977370 0.318121 -0.624911
H15   H     H_    0.350301 0.948499 0.296560 0.291605
O36   O     O_3   0.564003 0.022904 0.681735 -0.622112
H16   H     H_    0.658624 0.051492 0.702164 0.294124
O37   O     O_3   0.077257 0.696194 0.550428 -0.517223
C73   C     C_3   0.036459 0.726323 0.604955 0.182911
H17   H     H_    0.153203 0.717601 0.635218 0.152800
H18   H     H_    0.906749 0.705045 0.623872 0.094392
C74   C     C_3   0.016762 0.806063 0.599770 -0.686345
H19   H     H_    0.906545 0.819511 0.568778 0.273339
H20   H     H_    0.981248 0.829176 0.642391 0.195135
H21   H     H_    0.147544 0.830439 0.584400 0.195946
O38   O     O_3   0.912664 0.303730 0.449228 -0.516172
C75   C     C_3   0.954985 0.273340 0.394916 0.177380
H22   H     H_    0.084995 0.294550 0.376151 0.087553
H23   H     H_    0.838972 0.281885 0.364349 0.148781
C76   C     C_3   0.974888 0.193660 0.400540 -0.678612
H24   H     H_    0.844289 0.169429 0.416229 0.196531
H25   H     H_    0.009947 0.170179 0.358018 0.192666
H26   H     H_    0.085603 0.180552 0.431485 0.273282
O39   O     O_3   0.021014 0.304763 0.055439 -0.503481
C77   C     C_3   0.160444 0.281708 0.094171 0.174432
H27   H     H_    0.102181 0.279378 0.138421 0.135032
H28   H     H_    0.285457 0.316375 0.093945 0.070229
C78   C     C_3   0.220565 0.207017 0.078914 -0.649711
H29   H     H_    0.306778 0.207155 0.039282 0.249554
H30   H     H_    0.302289 0.184449 0.114772 0.159758
H31   H     H_    0.097980 0.172504 0.072877 0.236279
O40   O     O_3   0.811406 0.685208 0.946622 -0.530400
C79   C     C_3   0.849050 0.716299 0.892409 0.180722
H32   H     H_    0.735721 0.704307 0.861550 0.162154
H33   H     H_    0.982029 0.698512 0.872943 0.124488
C80   C     C_3   0.850382 0.796108 0.899665 -0.710845
H34   H     H_    0.972691 0.812583 0.924584 0.268376
H35   H     H_    0.853294 0.822396 0.856958 0.183399
H36   H     H_    0.726546 0.813823 0.924315 0.228804
O41   O     O_3   0.301355 0.815763 0.945959 -0.528329
C81   C     C_3   0.340914 0.787275 0.890822 0.178183
H37   H     H_    0.470542 0.808320 0.871145 0.115810
H38   H     H_    0.224121 0.798305 0.860945 0.164605
C82   C     C_3   0.356098 0.707470 0.896028 -0.721340
H39   H     H_    0.239313 0.685921 0.921759 0.232341
H40   H     H_    0.358404 0.682594 0.852683 0.184272
H41   H     H_    0.483813 0.693376 0.919156 0.259709
O42   O     O_3   0.699283 0.178178 0.055992 -0.521798
C83   C     C_3   0.700854 0.194385 0.115893 0.207781
H42   H     H_    0.841894 0.184057 0.133498 0.165539
H43   H     H_    0.598422 0.162889 0.141080 0.117649
C84   C     C_3   0.658569 0.272425 0.126211 -0.675169
H44   H     H_    0.652376 0.302222 0.085241 0.263786
H45   H     H_    0.524757 0.278402 0.149649 0.155884
H46   H     H_    0.767435 0.296302 0.153930 0.226374
O43   O     O_3   0.413497 0.196028 0.449843 -0.515924
C85   C     C_3   0.455092 0.226202 0.395486 0.179207
H47   H     H_    0.338999 0.217520 0.364988 0.148355
H48   H     H_    0.585094 0.204938 0.376620 0.089615
C86   C     C_3   0.474123 0.305918 0.401023 -0.680066
H49   H     H_    0.584870 0.319304 0.431871 0.273764
H50   H     H_    0.508657 0.329167 0.358456 0.192673
H51   H     H_    0.343239 0.330121 0.416738 0.196640
O44   O     O_3   0.579664 0.803612 0.550364 -0.516335
C87   C     C_3   0.536922 0.773495 0.604651 0.181894
H52   H     H_    0.407172 0.795106 0.623408 0.090807
H53   H     H_    0.652839 0.781821 0.635282 0.150377
C88   C     C_3   0.516395 0.693842 0.598973 -0.685968
H54   H     H_    0.647389 0.669256 0.583734 0.196765
H55   H     H_    0.479816 0.670624 0.641390 0.192616
H56   H     H_    0.406472 0.680879 0.567697 0.272425
O45   O     O_3   0.063840 0.281497 0.543704 -0.529097
C89   C     C_3   0.991599 0.228228 0.580100 0.201797
H57   H     H_    0.852056 0.241394 0.595582 0.141306
H58   H     H_    0.082969 0.218419 0.617468 0.090524
C90   C     C_3   0.983731 0.158182 0.548345 -0.649119
H59   H     H_    0.122694 0.144744 0.530575 0.214965
H60   H     H_    0.940756 0.115706 0.578465 0.162932
H61   H     H_    0.880834 0.160866 0.513145 0.248003
O46   O     O_3   0.930337 0.717527 0.455453 -0.530244
C91   C     C_3   0.005024 0.771098 0.419816 0.200825
H62   H     H_    0.914990 0.781604 0.382246 0.093834
H63   H     H_    0.144836 0.757791 0.404676 0.142337
C92   C     C_3   0.013168 0.840697 0.452187 -0.648477
H64   H     H_    0.115449 0.837313 0.487515 0.249653
H65   H     H_    0.057395 0.883469 0.422521 0.163268
H66   H     H_    0.874012 0.854192 0.469789 0.214861
O47   O     O_3   0.889314 0.716804 0.044823 -0.528120
C93   C     C_3   0.952330 0.771363 0.081525 0.168240
H67   H     H_    0.093765 0.762100 0.097074 0.152114
H68   H     H_    0.859613 0.777861 0.118817 0.113200
C94   C     C_3   0.945245 0.841720 0.050302 -0.655822
H69   H     H_    0.806302 0.849787 0.030713 0.211463
H70   H     H_    0.973779 0.885419 0.080995 0.158557
H71   H     H_    0.050802 0.843328 0.015971 0.262298
O48   O     O_3   0.102511 0.284125 0.952825 -0.542229
C95   C     C_3   0.037359 0.229203 0.916540 0.174328
H72   H     H_    0.128521 0.222249 0.878870 0.114084
H73   H     H_    0.895834 0.238884 0.901097 0.157664
C96   C     C_3   0.044158 0.158617 0.947322 -0.653679
H74   H     H_    0.959514 0.160788 0.986792 0.282788
H75   H     H_    0.988101 0.116588 0.918802 0.165517
H76   H     H_    0.189443 0.144833 0.958719 0.184587
O49   O     O_3   0.634718 0.210943 0.954681 -0.533386
C97   C     C_3   0.537161 0.266528 0.927617 0.140364
H77   H     H_    0.396268 0.251226 0.915201 0.141587
H78   H     H_    0.612469 0.284191 0.888561 0.112476
C98   C     C_3   0.525319 0.329749 0.967775 -0.645196
H79   H     H_    0.666170 0.344727 0.982815 0.222798
H80   H     H_    0.462382 0.375283 0.944820 0.166369
H81   H     H_    0.437532 0.316936 0.005448 0.228177
O50   O     O_3   0.368485 0.783303 0.045981 -0.530720
C99   C     C_3   0.449610 0.727745 0.078007 0.157070
H82   H     H_    0.370763 0.718304 0.118011 0.114469
H83   H     H_    0.594760 0.738236 0.089075 0.143869
C100  C     C_3   0.439850 0.658973 0.044436 -0.661540
H84   H     H_    0.543063 0.659136 0.009390 0.256861
H85   H     H_    0.471948 0.613870 0.073298 0.162897
H86   H     H_    0.299252 0.651573 0.025855 0.219520
O51   O     O_3   0.431921 0.781949 0.455496 -0.530579
C101  C     C_3   0.505224 0.728423 0.419322 0.200191
H87   H     H_    0.644981 0.741440 0.404081 0.142804
H88   H     H_    0.414621 0.718456 0.381786 0.093419
C102  C     C_3   0.512700 0.658564 0.451164 -0.649329
H89   H     H_    0.373324 0.645234 0.468587 0.213422
H90   H     H_    0.556823 0.615919 0.421194 0.164991
H91   H     H_    0.614658 0.661460 0.486619 0.249390
O52   O     O_3   0.564770 0.217994 0.544286 -0.529567
C103  C     C_3   0.491660 0.271499 0.580516 0.201716
H92   H     H_    0.582423 0.281443 0.618023 0.092088
H93   H     H_    0.351808 0.258526 0.595699 0.141323
C104  C     C_3   0.484141 0.341398 0.548742 -0.651908
H94   H     H_    0.381102 0.338720 0.513585 0.248284
H95   H     H_    0.441396 0.384093 0.578853 0.161569
H96   H     H_    0.623146 0.354514 0.530952 0.216079

loop_
_geom_bond_atom_site_label_1
_geom_bond_atom_site_label_2
_ccdc_geom_bond_type
O17   V3    S    
C25   O29   S    
C30   O34   S    
C64   C72   A    
C102  H90   S    
O18   V4    S    
C82   H39   S    
O12   V1    S    
O19   V1    S    
O31   H11   S    
C8    C18   S    
O42   C83   S    
C45   C53   A    
C62   O26   S    
C10   C18   A    
C24   C32   A    
C41   C42   A    
C14   O50   S    
C47   C55   A    
O39   C77   S    
O44   C87   S    
C65   O37   S    
O34   H14   S    
C86   H49   S    
O16   V3    S    
C38   C62   A    
O11   C3    A    
O52   C103  S    
O23   H3    S    
C91   H63   S    
O7    C6    A    
O8    V1    S    
C9    C49   A    
C50   C65   A    
C23   C31   A    
C35   C59   A    
C49   C66   A    
O37   C73   S    
C96   H76   S    
C45   C46   A    
C34   C58   A    
C70   O42   S    
C104  H94   S    
C85   H48   S    
C92   H66   S    
C89   C90   S    
C46   C54   A    
C83   H42   S    
C10   O46   S    
C103  H93   S    
O30   H10   S    
C42   C50   A    
C53   C70   A    
O1    V3    S    
C41   C49   A    
C38   C46   A    
O3    C2    A    
O2    V4    S    
C26   O30   S    
O46   C91   S    
C32   O36   S    
C88   H55   S    
C96   H74   S    
O29   H9    S    
C62   C70   A    
C35   C43   A    
C5    C19   S    
C64   O28   S    
C29   C37   A    
C34   C42   A    
C80   H34   S    
C6    C20   S    
O40   C79   S    
O28   H8    S    
O11   V2    S    
C91   C92   S    
C12   C52   A    
C74   H21   S    
C101  H88   S    
O26   H6    S    
C16   C56   A    
C68   O40   S    
C11   C19   A    
O50   C99   S    
C102  H91   S    
C79   H33   S    
O9    V1    S    
O4    V3    S    
C57   C65   A    
C20   C28   A    
C103  C104  S    
C13   O49   S    
C89   H57   S    
C9    O45   S    
O16   C8    A    
O7    V2    S    
C102  H89   S    
C78   H30   S    
O12   C4    A    
C82   H40   S    
C99   H83   S    
C88   H56   S    
C61   O25   S    
C17   C25   A    
C71   O43   S    
O21   H1    S    
C77   H28   S    
C92   H65   S    
O17   V1    S    
C83   H43   S    
C101  C102  S    
C14   C22   A    
C91   H62   S    
O19   V3    S    
C43   C44   A    
C26   C34   A    
C31   O35   S    
O20   V4    S    
C79   C80   S    
O47   C93   S    
C86   H50   S    
O14   V4    S    
C104  H95   S    
C30   C38   A    
O48   C95   S    
C84   H44   S    
C13   C53   A    
C76   H26   S    
C48   C56   A    
C31   C39   A    
C56   C71   A    
C99   C100  S    
C15   C55   A    
C80   H35   S    
C90   H61   S    
C73   H18   S    
C98   H79   S    
C104  H96   S    
C77   C78   S    
C76   H25   S    
O10   V2    S    
C95   H73   S    
C90   H59   S    
C69   O41   S    
C11   C51   A    
C22   C30   A    
C32   C40   A    
O8    C5    A    
C79   H32   S    
O13   C5    A    
C97   H77   S    
C44   C52   A    
C90   H60   S    
O33   H13   S    
C39   C47   A    
C84   H45   S    
C37   C61   A    
C51   C68   A    
C18   C26   A    
O4    C1    A    
O9    C1    A    
O6    V2    S    
C10   C50   A    
C93   H67   S    
C82   H41   S    
C97   H78   S    
C14   C54   A    
C100  H85   S    
O35   H15   S    
C75   H23   S    
C33   C57   A    
C59   O23   S    
C78   H31   S    
C73   C74   S    
C43   C51   A    
C99   H82   S    
C13   C21   A    
O36   H16   S    
C97   C98   S    
O5    V1    S    
C89   H58   S    
C67   O39   S    
C66   O38   S    
C59   C67   A    
C95   C96   S    
C15   C23   A    
C77   H27   S    
O25   H5    S    
C94   H71   S    
C37   C45   A    
C88   H54   S    
C16   C24   A    
C92   H64   S    
C63   C71   A    
O1    C4    A    
C86   H51   S    
C39   C63   A    
O2    C3    A    
C81   C82   S    
C58   O22   S    
C72   O44   S    
O13   V3    S    
C1    C23   S    
C33   C41   A    
C75   C76   S    
O15   V4    S    
C12   O48   S    
C25   C33   A    
C2    C24   S    
O32   H12   S    
C3    C21   S    
C84   H46   S    
O18   V2    S    
C63   O27   S    
C80   H36   S    
C81   H37   S    
C93   C94   S    
C60   C68   A    
O38   C75   S    
C93   H68   S    
C58   C66   A    
O22   H2    S    
C96   H75   S    
C9    C17   A    
O14   C6    A    
C87   C88   S    
O20   V2    S    
C73   H17   S    
C7    C17   S    
C94   H70   S    
C47   C48   A    
C98   H80   S    
C81   H38   S    
C29   O33   S    
C78   H29   S    
C16   O52   S    
C36   C60   A    
C19   C27   A    
C95   H72   S    
C74   H19   S    
O5    C8    A    
O41   C81   S    
O10   C2    A    
O51   C101  S    
C94   H69   S    
O6    C7    A    
C101  H87   S    
O15   C7    A    
C27   O31   S    
C40   C48   A    
C11   O47   S    
O3    V4    S    
C100  H84   S    
C103  H92   S    
C85   C86   S    
C12   C20   A    
C75   H22   S    
O43   C85   S    
C52   C67   A    
C21   C29   A    
C98   H81   S    
C28   O32   S    
C55   C72   A    
C61   C69   A    
C27   C35   A    
C36   C44   A    
C28   C36   A    
O45   C89   S    
C100  H86   S    
O27   H7    S    
O24   H4    S    
C74   H20   S    
C60   O24   S    
C57   O21   S    
C54   C69   A    
C15   O51   S    
C87   H52   S    
C76   H24   S    
C87   H53   S    
C40   C64   A    
C4    C22   S    
C85   H47   S    
O49   C97   S    
C83   C84   S    
