data_mof_unit_49410.cif
_audit_creation_date              2012-12-11T19:41:52-0500
_audit_creation_method            fapswitch 2.2
_symmetry_space_group_name_H-M    P1
_symmetry_Int_Tables_number       1
_space_group_crystal_system       triclinic
_cell_length_a                    8.194707
_cell_length_b                    15.12842
_cell_length_c                    27.005453
_cell_angle_alpha                 98.662491
_cell_angle_beta                  92.968839
_cell_angle_gamma                 80.966979
_cell_volume                      3267.3491048

loop_
_atom_site_label
_atom_site_type_symbol
_atom_type_description
_atom_site_fract_x
_atom_site_fract_y
_atom_site_fract_z
_atom_type_partial_charge
Ba1   Ba    Ba6+2 0.860050 0.456430 0.522530 1.650669
Ba2   Ba    Ba6+2 0.329780 0.543490 0.477460 1.660056
C1    C     C_3   0.755579 0.120813 0.647104 -0.370390
C2    C     C_R   0.922027 0.597931 0.182994 0.586079
C3    C     C_2   0.759014 0.567806 0.274791 -0.098212
C4    C     C_3   0.154380 0.266276 0.656217 0.336194
C5    C     C_3   0.732472 0.592882 0.330347 -0.096448
C6    C     C_1   0.984097 0.486558 0.343530 0.048065
C7    C     C_2   0.028236 0.484211 0.296364 -0.066001
C8    C     C_2   0.908340 0.524362 0.258429 0.212005
C9    C     C_R   0.036342 0.514198 0.104873 -0.081236
C10   C     C_R   0.070643 0.436202 0.128597 -0.034464
C11   C     C_R   0.147545 0.355751 0.101191 -0.060907
C12   C     C_3   0.702024 0.213152 0.630653 0.371759
C13   C     C_R   0.958363 0.594963 0.132092 -0.025638
C14   C     C_2   0.842796 0.531831 0.361347 -0.274928
C15   C     C_2   0.350102 0.473080 0.639857 -0.289065
C16   C     C_3   0.133292 0.242965 0.708183 -0.297342
C17   C     C_R   0.176580 0.424508 0.973682 0.033945
C18   C     C_R   0.103140 0.590322 0.981052 -0.016010
C19   C     C_R   0.155351 0.505590 0.951511 0.027723
C20   C     C_R   0.224343 0.341568 0.942653 -0.101323
C21   C     C_R   0.256082 0.338275 0.892377 -0.056449
C22   C     C_R   0.240364 0.417374 0.870310 -0.010897
C23   C     C_3   0.495808 0.666960 0.630860 0.279933
C24   C     C_R   0.189325 0.501530 0.899593 -0.119381
C25   C     C_R   0.174454 0.581055 0.877058 -0.059954
C26   C     C_R   0.203548 0.573634 0.824616 0.625821
C27   C     C_R   0.276173 0.413022 0.819416 0.571343
C28   C     C_3   0.199119 0.257526 0.406694 0.373368
C29   C     C_2   0.437709 0.437407 0.725962 -0.080037
C30   C     C_3   0.458106 0.410455 0.670386 -0.048646
C31   C     C_1   0.208637 0.517978 0.657783 0.027903
C32   C     C_2   0.168873 0.523214 0.705761 -0.106940
C33   C     C_2   0.291808 0.483521 0.743317 0.197971
C34   C     C_3   0.490463 0.686863 0.688132 -0.112748
C35   C     C_R   0.148466 0.428428 0.025806 0.019519
C36   C     C_R   0.078558 0.511354 0.053728 0.053204
C37   C     C_R   0.047616 0.591226 0.030774 0.025482
C38   C     C_R   0.185837 0.351825 0.051098 -0.103072
C39   C     C_R   0.913766 0.670753 0.107431 -0.063476
C40   C     C_3   0.193609 0.157367 0.386227 0.096664
C41   C     C_R   0.114125 0.670329 0.959816 0.097663
C42   C     C_R   0.140542 0.665553 0.908108 0.183036
C43   C     C_R   0.952776 0.667859 0.057536 -0.114400
C44   C     C_R   0.843592 0.833117 0.469792 -0.037113
C45   C     C_3   0.934764 0.791435 0.351824 0.312591
C46   C     C_R   0.780833 0.926497 0.475211 -0.028535
C47   C     C_R   0.648958 0.113832 0.484446 -0.048600
C48   C     C_R   0.788660 0.077745 0.455871 -0.040406
C49   C     C_R   0.855743 0.986648 0.452397 -0.098243
C50   C     C_R   0.580308 0.207134 0.489132 0.038244
C51   C     C_R   0.436600 0.237972 0.516115 -0.285593
C52   C     C_3   0.971791 0.735539 0.588816 0.316700
C53   C     C_R   0.616784 0.806710 0.517793 0.054289
C54   C     C_R   0.555209 0.900727 0.526267 -0.009743
C55   C     C_R   0.636185 0.960300 0.503223 -0.008854
C56   C     C_3   0.953773 0.819867 0.301069 -0.319993
C57   C     C_R   0.415877 0.938597 0.556105 0.140071
C58   C     C_R   0.353680 0.029419 0.558954 -0.120768
C59   C     C_R   0.427117 0.087639 0.535160 -0.043660
C60   C     C_R   0.572600 0.054206 0.508323 -0.000065
C61   C     C_R   0.355949 0.178530 0.537125 0.015916
C62   C     C_R   0.754868 0.774645 0.488391 -0.299596
C63   C     C_3   0.917454 0.835454 0.607674 -0.415457
C64   C     C_3   0.695877 0.341102 0.371000 0.355490
C65   C     C_3   0.647009 0.330934 0.315274 -0.102313
C66   C     C_3   0.494311 0.779911 0.343642 0.326954
C67   C     C_3   0.393903 0.870650 0.334637 -0.112658
C68   C     C_R   0.026327 0.439988 0.179081 0.589684
H1    H     H_    0.745283 0.210347 0.592034 0.073216
H2    H     H_    0.511846 0.328882 0.310429 0.116513
H3    H     H_    0.695889 0.069071 0.622130 0.068597
H4    H     H_    0.372878 0.652119 0.616137 -0.001781
H5    H     H_    0.590201 0.606808 0.620134 0.061848
H6    H     H_    0.453047 0.628663 0.702849 0.073633
H7    H     H_    0.718102 0.122159 0.686174 0.121264
H8    H     H_    0.104342 0.306194 0.734800 0.125054
H9    H     H_    0.922871 0.718654 0.346291 0.019797
H10   H     H_    0.821695 0.832793 0.368703 -0.067527
H11   H     H_    0.061333 0.776889 0.281868 0.158357
H12   H     H_    0.285642 0.135229 0.356067 0.093598
H13   H     H_    0.840322 0.812509 0.277538 0.118578
H14   H     H_    0.972997 0.891793 0.305930 0.088446
H15   H     H_    0.541108 0.786474 0.383335 -0.014379
H16   H     H_    0.340517 0.864743 0.295809 0.115587
H17   H     H_    0.072950 0.331071 0.652326 0.093232
H18   H     H_    0.152066 0.453802 0.285085 0.123421
H19   H     H_    0.531535 0.409068 0.751431 0.112815
H20   H     H_    0.292706 0.272499 0.870591 0.120193
H21   H     H_    0.235085 0.277097 0.955818 0.067917
H22   H     H_    0.247798 0.287598 0.033438 0.069692
H23   H     H_    0.066496 0.728980 0.560174 0.067233
H24   H     H_    0.666407 0.595868 0.248908 0.106720
H25   H     H_    0.844810 0.732504 0.126380 0.118465
H26   H     H_    0.285223 0.274135 0.652552 -0.055715
H27   H     H_    0.047701 0.556564 0.718091 0.116429
H28   H     H_    0.901475 0.725687 0.039993 0.078730
H29   H     H_    0.818224 0.539397 0.400976 0.077382
H30   H     H_    0.378691 0.469335 0.600741 0.081445
H31   H     H_    0.848331 0.119084 0.435659 0.142280
H32   H     H_    0.964450 0.963662 0.430310 0.093824
H33   H     H_    0.245390 0.052909 0.580932 0.111107
H34   H     H_    0.804277 0.844140 0.629883 0.128973
H35   H     H_    0.381331 0.308175 0.518099 0.072638
H36   H     H_    0.029674 0.203902 0.708388 0.145462
H37   H     H_    0.800683 0.702854 0.482639 0.057778
H38   H     H_    0.248055 0.201860 0.720765 0.121211
H39   H     H_    0.326662 0.266088 0.419744 -0.063690
H40   H     H_    0.114616 0.279209 0.438410 0.074305
H41   H     H_    0.363713 0.093955 0.431152 0.148730
H42   H     H_    0.208499 0.037104 0.414343 0.188508
H43   H     H_    0.026714 0.077162 0.352628 0.158067
H44   H     H_    0.010681 0.176610 0.332638 0.220162
H45   H     H_    0.891446 0.874437 0.575851 0.058289
H46   H     H_    0.864319 0.705065 0.572105 -0.001306
H47   H     H_    0.891551 0.101401 0.644932 0.143941
H48   H     H_    0.692488 0.193329 0.296941 0.204492
H49   H     H_    0.714026 0.250543 0.249807 0.193374
H50   H     H_    0.564663 0.226401 0.630405 -0.074325
H51   H     H_    0.396256 0.746994 0.699319 0.134286
H52   H     H_    0.739248 0.646737 0.699756 0.210587
H53   H     H_    0.686227 0.758662 0.697627 0.214113
H54   H     H_    0.599621 0.764778 0.317837 -0.033966
H55   H     H_    0.593002 0.926204 0.317044 0.181044
H56   H     H_    0.016555 0.863343 0.631835 0.129911
H57   H     H_    0.547214 0.947624 0.378450 0.172448
H58   H     H_    0.290854 0.889268 0.360980 0.150689
H59   H     H_    0.178325 0.294804 0.118412 0.120761
H60   H     H_    0.013654 0.797576 0.991437 0.171455
H61   H     H_    0.177252 0.747139 0.026088 0.190174
H62   H     H_    0.235851 0.780993 0.905771 0.198061
H63   H     H_    0.028242 0.789510 0.894973 0.182798
H64   H     H_    0.337356 0.915690 0.622187 0.163950
H65   H     H_    0.208569 0.893470 0.572326 0.178414
H66   H     H_    0.829763 0.343446 0.375553 0.004799
H67   H     H_    0.626268 0.406192 0.388682 0.028188
H68   H     H_    0.674278 0.390738 0.299666 0.063434
N1    N     N_R   0.953118 0.520527 0.206102 -0.422216
N2    N     N_3   0.332576 0.887588 0.584390 -0.450076
N3    N     N_R   0.254316 0.490303 0.796462 -0.428054
N4    N     N_3   0.235536 0.102276 0.426389 -0.495806
N5    N     N_3   0.028708 0.145912 0.365043 -0.472385
N6    N     N_3   0.739338 0.249290 0.288067 -0.490201
N7    N     N_3   0.650947 0.703140 0.710829 -0.469827
N8    N     N_3   0.495923 0.942881 0.342029 -0.532343
N9    N     N_3   0.127796 0.755511 0.990358 -0.519625
N10   N     N_3   0.141503 0.747936 0.887782 -0.426943
O1    O     O_2   0.906480 0.548660 0.619050 -0.467827
O2    O     O_2   0.187027 0.822882 0.472760 -0.471685
O3    O     O_3   0.075123 0.806023 0.381827 -0.577543
O4    O     O_3   0.138490 0.548590 0.558870 -0.493901
O5    O     O_3   0.572560 0.389960 0.472890 -0.487717
O6    O     O_2   0.345660 0.723580 0.528500 -0.440110
O7    O     O_3   0.533036 0.742892 0.612278 -0.635894
O8    O     O_2   0.419510 0.534022 0.324721 -0.492294
O9    O     O_3   0.394900 0.710961 0.333624 -0.561434
O10   O     O_2   0.050823 0.371115 0.198611 -0.598288
O11   O     O_2   0.327546 0.339690 0.795480 -0.625537
O12   O     O_3   0.659616 0.266813 0.391581 -0.636494
O13   O     O_2   0.864240 0.670147 0.206896 -0.625691
O14   O     O_2   0.186595 0.641401 0.804234 -0.561284
O15   O     O_3   0.686300 0.382310 0.585700 -0.482156
O16   O     O_2   0.785654 0.454576 0.676332 -0.501862
O17   O     O_3   0.037131 0.693269 0.629442 -0.631147
O18   O     O_3   0.771263 0.279789 0.663621 -0.593617
O19   O     O_2   0.844040 0.276390 0.471470 -0.467397
O20   O     O_3   0.101510 0.335500 0.560330 -0.492239
O21   O     O_2   0.017256 0.175912 0.525995 -0.466155
O22   O     O_3   0.110068 0.196722 0.620151 -0.616502
O23   O     O_2   0.283210 0.451310 0.380920 -0.452379
O24   O     O_3   0.051220 0.451340 0.441120 -0.506186
O25   O     O_3   0.503410 0.617620 0.414290 -0.455847
O26   O     O_3   0.153991 0.307518 0.367344 -0.652006
O27   O     O_3   0.617150 0.609960 0.527100 -0.484919
O28   O     O_3   0.088210 0.664420 0.439670 -0.463477
P1    P     P_3+3 0.071950 0.575820 0.612140 0.980231
P2    P     P_3+3 0.664370 0.290050 0.457240 0.982339
P3    P     P_3+3 0.146593 0.220409 0.560641 0.950064
P4    P     P_3+3 0.117760 0.424110 0.387850 0.986332
P5    P     P_3+3 0.045830 0.782303 0.441728 0.967347
P6    P     P_3+3 0.676290 0.385653 0.650153 0.944485
P7    P     P_3+3 0.531391 0.721901 0.546684 0.980608
P8    P     P_3+3 0.512387 0.611476 0.349387 0.975161

loop_
_geom_bond_atom_site_label_1
_geom_bond_atom_site_label_2
_ccdc_geom_bond_type
C20   H21   S    
C53   C54   A    
H49   N6    S    
C23   O7    S    
O17   P1    S    
C12   H1    S    
O18   P6    S    
C45   H9    S    
C19   C24   A    
C66   H54   S    
C64   O12   S    
C3    H24   S    
O8    P8    D    
C26   O14   D    
C55   C60   A    
C27   O11   D    
C52   C63   S    
C49   H32   S    
C24   C25   A    
C15   C31   D    
C5    P8    S    
C28   H40   S    
C44   P5    S    
C30   P6    S    
C17   C19   A    
C22   C24   A    
C65   H2    S    
C35   C38   A    
H48   N6    S    
H55   N8    S    
C7    H18   S    
H64   N2    S    
C36   C37   A    
O7    P7    S    
Ba1   O19   S    
C32   H27   S    
C61   P3    S    
C54   C55   A    
Ba1   O4    S    
C32   C33   S    
H52   N7    S    
H42   N4    S    
O4    P1    S    
C59   C61   A    
C65   H68   S    
C22   C27   A    
C52   H23   S    
C34   H6    S    
H41   N4    S    
Ba2   O28   S    
C9    C13   A    
C25   C42   A    
C46   C49   A    
H53   N7    S    
C67   H58   S    
C66   C67   S    
C29   H19   S    
C40   H12   S    
C40   N4    S    
C21   C22   A    
H61   N9    S    
O9    P8    S    
C12   O18   S    
C58   H33   S    
C17   C35   A    
C7    C8    S    
Ba2   O23   S    
C37   C43   A    
O24   P4    S    
C64   C65   S    
C68   N1    Am   
Ba2   O6    S    
O6    P7    D    
O15   P6    S    
C67   N8    S    
C63   H45   S    
H65   N2    S    
Ba2   P4    S    
C45   H10   S    
C4    C16   S    
C65   N6    S    
O3    P5    S    
O2    P5    D    
C16   H38   S    
Ba2   O4    S    
O28   P5    S    
C23   H4    S    
C44   C46   A    
C28   H39   S    
C31   P1    S    
H62   N10   S    
C46   C55   A    
C17   C20   A    
O16   P6    D    
O25   P8    S    
C56   H11   S    
C3    C5    S    
C18   C37   A    
C6    C7    D    
H57   N8    S    
Ba1   O20   S    
C4    H17   S    
H43   N5    S    
C52   H46   S    
C58   C59   A    
C23   H5    S    
C9    C36   A    
Ba1   O5    S    
C41   C42   A    
C16   H36   S    
C35   C36   A    
C56   H14   S    
Ba2   O27   S    
Ba1   P2    S    
C6    P4    S    
C29   C30   S    
C16   H8    S    
C47   C50   A    
C27   N3    Am   
C53   C62   A    
C18   C19   A    
O1    P1    D    
C48   C49   A    
C21   H20   S    
H63   N10   S    
C38   H22   S    
Ba1   O1    S    
O12   P2    S    
C1    C12   S    
C33   N3    S    
C64   H66   S    
C5    C14   S    
C45   O3    S    
Ba2   O5    S    
C12   H50   S    
C29   C33   D    
O23   P4    D    
C8    N1    S    
C52   O17   S    
C66   O9    S    
C1    H7    S    
O26   P4    S    
C25   C26   A    
C18   C41   A    
C50   C51   A    
C62   H37   S    
O27   P7    S    
C4    O22   S    
C10   C68   A    
O5    P2    S    
Ba1   O27   S    
C39   C43   A    
C47   C60   A    
H60   N9    S    
C2    O13   D    
C13   C39   A    
C9    C10   A    
C14   H29   S    
O20   P3    S    
Ba1   O24   S    
C4    H26   S    
C54   C57   A    
O22   P3    S    
C43   H28   S    
C63   H56   S    
C2    C13   A    
C34   H51   S    
C3    C8    D    
Ba2   O25   S    
C56   H13   S    
H44   N5    S    
C2    N1    Am   
C51   C61   A    
C39   H25   S    
C64   H67   S    
C57   N2    S    
Ba1   Ba2   S    
C42   N10   S    
C31   C32   D    
C66   H15   S    
O21   P3    D    
C59   C60   A    
C1    H3    S    
C15   H30   S    
C50   P2    S    
C41   N9    S    
C11   C38   A    
C23   C34   S    
C51   H35   S    
C34   N7    S    
C57   C58   A    
O19   P2    D    
C10   C11   A    
Ba1   O15   S    
C48   H31   S    
C6    C14   D    
C47   C48   A    
C44   C62   A    
C40   N5    S    
C15   C30   S    
C53   P7    S    
C20   C21   A    
C28   C40   S    
C26   N3    Am   
C63   H34   S    
C1    H47   S    
Ba1   P1    S    
C28   O26   S    
C11   H59   S    
C67   H16   S    
C68   O10   D    
Ba2   O24   S    
C45   C56   S    
