data_mof_unit_15558.cif
_audit_creation_date              2012-12-10T19:55:49-0500
_audit_creation_method            fapswitch 2.2
_symmetry_space_group_name_H-M    P1
_symmetry_Int_Tables_number       1
_space_group_crystal_system       triclinic
_cell_length_a                    14.83978
_cell_length_b                    14.117628
_cell_length_c                    19.159269
_cell_angle_alpha                 89.370802
_cell_angle_beta                  90.299542
_cell_angle_gamma                 89.824565
_cell_volume                      4013.59822509

loop_
_atom_site_label
_atom_site_type_symbol
_atom_type_description
_atom_site_fract_x
_atom_site_fract_y
_atom_site_fract_z
_atom_type_partial_charge
C1    C     C_R   0.327243 0.500125 0.501343 0.915779
C2    C     C_R   0.672693 0.499799 0.501324 0.909525
C3    C     C_R   0.231557 0.500427 0.512692 -0.151728
C4    C     C_R   0.768428 0.498718 0.512371 -0.162254
C5    C     C_R   0.048650 0.502075 0.538644 -0.061602
C6    C     C_R   0.951567 0.493332 0.538533 -0.069070
C7    C     C_R   0.421445 0.105267 0.483519 -0.273095
C8    C     C_R   0.572732 0.895347 0.472554 -0.275176
C9    C     C_R   0.578367 0.104182 0.516213 -0.281516
C10   C     C_R   0.427017 0.894947 0.527402 -0.273247
C11   C     C_R   0.423148 0.204802 0.483313 0.029382
C12   C     C_R   0.571215 0.795824 0.472698 0.029197
C13   C     C_R   0.576880 0.203716 0.516312 0.017059
C14   C     C_R   0.428784 0.795405 0.527425 0.021707
C15   C     C_R   0.499849 0.053167 0.499930 0.133758
C16   C     C_R   0.499832 0.946705 0.499947 0.133751
C17   C     C_R   0.499198 0.500616 0.365120 0.901140
C18   C     C_R   0.498753 0.499406 0.635054 0.896581
C19   C     C_R   0.453993 0.582605 0.254632 0.426666
C20   C     C_R   0.464940 0.412370 0.746297 0.421950
C21   C     C_R   0.490064 0.583646 0.748990 0.437600
C22   C     C_R   0.512419 0.420272 0.250415 0.436112
C23   C     C_R   0.438763 0.580036 0.182859 -0.281577
C24   C     C_R   0.447337 0.413491 0.817523 -0.270852
C25   C     C_R   0.467008 0.583493 0.819184 -0.250528
C26   C     C_R   0.491573 0.417604 0.179719 -0.248055
C27   C     C_R   0.455345 0.497308 0.145628 -0.049337
C28   C     C_R   0.447144 0.498580 0.853960 -0.053662
C29   C     C_R   0.490572 0.501986 0.289004 -0.277409
C30   C     C_R   0.486709 0.498046 0.711124 -0.284899
C31   C     C_R   0.436106 0.497311 0.929550 0.341521
C32   C     C_R   0.441291 0.496508 0.070283 0.342069
C33   C     C_R   0.087841 0.578244 0.501753 0.464172
C34   C     C_R   0.911882 0.422010 0.497850 0.474177
C35   C     C_R   0.898828 0.564286 0.569127 0.495359
C36   C     C_R   0.101545 0.428287 0.566521 0.502183
C37   C     C_R   0.180077 0.578225 0.491003 -0.331184
C38   C     C_R   0.819590 0.423953 0.486512 -0.332838
C39   C     C_R   0.807556 0.568384 0.553944 -0.311482
C40   C     C_R   0.192806 0.425746 0.550309 -0.344433
H1    H     H_    0.359493 0.069412 0.469964 0.142471
H2    H     H_    0.629946 0.931820 0.450139 0.142261
H3    H     H_    0.640221 0.067432 0.529899 0.144737
H4    H     H_    0.369732 0.931080 0.549751 0.139865
H5    H     H_    0.362534 0.243754 0.470009 0.135542
H6    H     H_    0.627182 0.757187 0.450793 0.135494
H7    H     H_    0.637499 0.241827 0.529712 0.141017
H8    H     H_    0.372841 0.756387 0.549289 0.142474
N1    N     N_R   0.445584 0.414103 0.034904 -0.182312
N2    N     N_R   0.428915 0.579467 0.965002 -0.184133
N3    N     N_R   0.442992 0.414522 0.965712 -0.180319
N4    N     N_R   0.431279 0.579034 0.034213 -0.181070
N5    N     N_R   0.500000 0.252470 0.500000 -0.092505
N6    N     N_R   0.500000 0.747530 0.500000 -0.099173
O1    O     O_R   0.369060 0.579480 0.500010 -0.638217
O2    O     O_R   0.630940 0.420520 0.499990 -0.636100
O3    O     O_R   0.630940 0.579480 0.499990 -0.638900
O4    O     O_R   0.369060 0.420520 0.500010 -0.640412
O5    O     O_R   0.499990 0.579500 0.398140 -0.570387
O6    O     O_R   0.500010 0.420500 0.601860 -0.574353
O7    O     O_R   0.500010 0.579500 0.601860 -0.585827
O8    O     O_R   0.499990 0.420500 0.398140 -0.583587
Zn1   Zn    Zn3+2 0.500000 0.606140 0.500000 0.953291
Zn2   Zn    Zn3+2 0.500000 0.393860 0.500000 0.957888
O9    O     O_3   0.439099 0.665802 0.290596 -0.612064
C41   C     C_3   0.345834 0.685979 0.292612 0.090317
H9    H     H_    0.305858 0.621792 0.306867 0.115068
H10   H     H_    0.322659 0.713922 0.241027 0.141101
C42   C     C_3   0.329203 0.761334 0.347769 -0.293180
H11   H     H_    0.346100 0.731360 0.400055 0.233821
H12   H     H_    0.373544 0.823318 0.337822 0.235864
C43   C     C_3   0.231245 0.794399 0.347371 -0.998728
H13   H     H_    0.214331 0.829427 0.296769 0.271678
H14   H     H_    0.220679 0.845891 0.389975 0.273373
H15   H     H_    0.185555 0.733365 0.355637 0.263543
O10   O     O_3   0.470095 0.325796 0.713376 -0.611014
C44   C     C_3   0.382212 0.292475 0.699352 0.089879
H16   H     H_    0.350509 0.336897 0.657568 0.141014
H17   H     H_    0.338634 0.293724 0.746581 0.114272
C45   C     C_3   0.388837 0.190085 0.674740 -0.297187
H18   H     H_    0.437969 0.185629 0.631463 0.246357
H19   H     H_    0.413897 0.144525 0.718409 0.220538
C46   C     C_3   0.297971 0.152829 0.649757 -0.983532
H20   H     H_    0.248002 0.155157 0.692665 0.266579
H21   H     H_    0.305666 0.078288 0.632815 0.270274
H22   H     H_    0.272918 0.195694 0.604705 0.262055
O11   O     O_3   0.512510 0.669180 0.717692 -0.621165
C47   C     C_3   0.607518 0.677259 0.713277 0.128159
H23   H     H_    0.623241 0.713599 0.663064 0.172315
H24   H     H_    0.643695 0.607713 0.712246 0.101306
C48   C     C_3   0.643466 0.737699 0.773077 -0.370320
H25   H     H_    0.610202 0.808342 0.771320 0.236599
H26   H     H_    0.627688 0.703084 0.823878 0.220587
C49   C     C_3   0.745266 0.750604 0.768040 -0.954410
H27   H     H_    0.779705 0.680997 0.773352 0.261462
H28   H     H_    0.768939 0.796993 0.810767 0.272291
H29   H     H_    0.763445 0.783852 0.717230 0.268756
O12   O     O_3   0.549168 0.339898 0.281594 -0.619709
C50   C     C_3   0.642110 0.353814 0.295328 0.126942
H30   H     H_    0.659591 0.312188 0.343104 0.170717
H31   H     H_    0.660053 0.428868 0.306663 0.096284
C51   C     C_3   0.698863 0.317326 0.234725 -0.362721
H32   H     H_    0.681255 0.242284 0.224407 0.237176
H33   H     H_    0.684051 0.359976 0.186925 0.219017
C52   C     C_3   0.799373 0.323805 0.251197 -0.978441
H34   H     H_    0.818735 0.398561 0.260588 0.258549
H35   H     H_    0.838740 0.297016 0.206380 0.273525
H36   H     H_    0.816282 0.280213 0.298117 0.265739
H37   H     H_    0.413874 0.643076 0.156364 0.168825
H38   H     H_    0.434774 0.346863 0.844281 0.175750
H39   H     H_    0.468507 0.649876 0.846969 0.175162
H40   H     H_    0.506664 0.353675 0.151227 0.177774
O13   O     O_3   0.036927 0.654753 0.478641 -0.599664
C53   C     C_3   0.009235 0.639137 0.409103 0.055146
H41   H     H_    0.957646 0.582247 0.407555 0.124034
H42   H     H_    0.067109 0.619018 0.375379 0.117070
C54   C     C_3   0.966769 0.729969 0.379857 -0.289897
H43   H     H_    0.908194 0.750040 0.412551 0.232068
H44   H     H_    0.016920 0.788230 0.381640 0.229128
C55   C     C_3   0.935078 0.717212 0.304663 -0.977538
H45   H     H_    0.992972 0.698970 0.270769 0.265615
H46   H     H_    0.904290 0.784217 0.285031 0.270510
H47   H     H_    0.883863 0.660118 0.301845 0.264044
O14   O     O_3   0.962573 0.348475 0.471216 -0.600780
C56   C     C_3   0.987062 0.371142 0.401934 0.049104
H48   H     H_    0.034975 0.431556 0.401331 0.122431
H49   H     H_    0.926835 0.389491 0.369430 0.129112
C57   C     C_3   0.033975 0.285670 0.369990 -0.285966
H50   H     H_    0.093162 0.265352 0.402754 0.232836
H51   H     H_    0.986526 0.224921 0.368798 0.222116
C58   C     C_3   0.065724 0.307513 0.295928 -0.974386
H52   H     H_    0.007575 0.327168 0.261978 0.270950
H53   H     H_    0.098979 0.243926 0.274056 0.270677
H54   H     H_    0.114941 0.366656 0.296203 0.263552
O15   O     O_3   0.937196 0.633596 0.609936 -0.605346
C59   C     C_3   0.944900 0.597869 0.678808 0.058334
H55   H     H_    0.985810 0.531596 0.680460 0.140502
H56   H     H_    0.876897 0.582915 0.700650 0.130568
C60   C     C_3   0.991606 0.671459 0.724101 -0.304856
H57   H     H_    0.058973 0.687774 0.701959 0.233488
H58   H     H_    0.950957 0.737722 0.724112 0.233086
C61   C     C_3   0.003360 0.635559 0.799029 -0.970284
H59   H     H_    0.936731 0.619989 0.822607 0.266236
H60   H     H_    0.037336 0.690573 0.830596 0.272318
H61   H     H_    0.045402 0.570287 0.800261 0.262961
O16   O     O_3   0.061353 0.355989 0.604652 -0.607319
C62   C     C_3   0.101072 0.349629 0.671813 0.041946
H62   H     H_    0.112101 0.421012 0.694846 0.121251
H63   H     H_    0.166646 0.311762 0.669025 0.145590
C63   C     C_3   0.038701 0.293710 0.720006 -0.300891
H64   H     H_    0.972497 0.330498 0.722969 0.219344
H65   H     H_    0.027697 0.221890 0.698383 0.236865
C64   C     C_3   0.078665 0.284160 0.793315 -0.973241
H66   H     H_    0.144536 0.246651 0.791644 0.262021
H67   H     H_    0.032087 0.242853 0.826979 0.271748
H68   H     H_    0.088343 0.355211 0.816520 0.264877
H69   H     H_    0.210801 0.637474 0.463882 0.182037
H70   H     H_    0.788495 0.368593 0.455966 0.168853
H71   H     H_    0.767090 0.624522 0.576066 0.170133
H72   H     H_    0.233546 0.366276 0.567720 0.155928

loop_
_geom_bond_atom_site_label_1
_geom_bond_atom_site_label_2
_ccdc_geom_bond_type
C41   H10   S    
O11   C47   S    
C21   O11   S    
C22   O12   S    
C22   C29   A    
C54   H43   S    
C17   C29   S    
C2    C4    S    
C62   H62   S    
C58   H54   S    
C57   H50   S    
C53   H41   S    
C2    O3    A    
O15   C59   S    
C20   C30   A    
C44   H16   S    
C25   C28   A    
C7    C11   A    
C52   H35   S    
C26   C27   A    
C62   H63   S    
C8    H2    S    
O16   C62   S    
C42   H11   S    
C45   C46   S    
C5    C6    S    
C51   H33   S    
N5    Zn2   S    
C41   C42   S    
N6    Zn1   S    
C15   C16   S    
C5    C36   A    
C6    C35   A    
C20   O10   S    
C51   C52   S    
O7    Zn1   S    
C37   H69   S    
C42   H12   S    
C9    C13   A    
C32   N4    A    
O8    Zn2   S    
C20   C24   A    
N1    N3    A    
C63   C64   S    
C5    C33   A    
C56   C57   S    
N2    N4    A    
O2    Zn2   S    
C18   C30   S    
C23   C27   A    
C64   H67   S    
C11   N5    A    
C55   H47   S    
C39   H71   S    
C7    C15   A    
C41   H9    S    
C8    C16   A    
C61   H61   S    
C49   H27   S    
C59   C60   S    
C55   H46   S    
O3    Zn1   S    
C13   N5    A    
C44   H17   S    
O4    Zn2   S    
C23   H37   S    
C52   H36   S    
C9    H3    S    
C10   H4    S    
C36   C40   A    
C62   C63   S    
C24   H38   S    
O10   C44   S    
C38   H70   S    
C43   H14   S    
C10   C14   A    
C54   C55   S    
C35   O15   S    
C48   H25   S    
C13   H7    S    
C43   H13   S    
C14   H8    S    
C49   H29   S    
C33   C37   A    
C6    C34   A    
O1    Zn1   S    
C1    C3    S    
C42   C43   S    
C19   C23   A    
C17   O8    A    
C48   H26   S    
C46   H20   S    
C47   C48   S    
C8    C12   A    
C46   H22   S    
C64   H68   S    
C49   H28   S    
C17   O5    A    
C12   H6    S    
C46   H21   S    
C47   H24   S    
C3    C40   A    
O12   C50   S    
C56   H48   S    
C63   H65   S    
C11   H5    S    
C31   N2    A    
C58   H52   S    
C19   C29   A    
C57   C58   S    
C26   H40   S    
C55   H45   S    
C59   H56   S    
O13   C53   S    
C21   C30   A    
C44   C45   S    
C18   O6    A    
C21   C25   A    
C34   O14   S    
C50   H31   S    
C27   C32   S    
C34   C38   A    
C33   O13   S    
C40   H72   S    
C28   C31   S    
C24   C28   A    
C31   N3    A    
C45   H18   S    
C58   H53   S    
C57   H51   S    
C53   H42   S    
C60   H57   S    
C18   O7    A    
C52   H34   S    
C4    C39   A    
O5    Zn1   S    
C63   H64   S    
C50   H30   S    
O6    Zn2   S    
C14   N6    A    
C54   H44   S    
C1    O1    A    
C2    O2    A    
C1    O4    A    
C36   O16   S    
C48   C49   S    
C60   H58   S    
C43   H15   S    
C35   C39   A    
C60   C61   S    
C45   H19   S    
C19   O9    S    
C61   H60   S    
C7    H1    S    
C9    C15   A    
C51   H32   S    
C32   N1    A    
C53   C54   S    
C25   H39   S    
C50   C51   S    
C47   H23   S    
C3    C37   A    
O9    C41   S    
C22   C26   A    
C56   H49   S    
C61   H59   S    
C59   H55   S    
C10   C16   A    
C64   H66   S    
C4    C38   A    
C12   N6    A    
O14   C56   S    
