data_mof_unit_10979.cif
_audit_creation_date              2013-03-05T16:24:35-0500
_audit_creation_method            fapswitch 2.2
_symmetry_space_group_name_H-M    P1
_symmetry_Int_Tables_number       1
_space_group_crystal_system       triclinic
_cell_length_a                    27.743167
_cell_length_b                    15.734011
_cell_length_c                    14.925707
_cell_angle_alpha                 89.466944
_cell_angle_beta                  89.962233
_cell_angle_gamma                 89.941666
_cell_volume                      6514.95296939

loop_
_atom_site_label
_atom_site_type_symbol
_atom_site_description
_atom_site_fract_x
_atom_site_fract_y
_atom_site_fract_z
_atom_type_partial_charge
O1    O     O_R   0.500000 0.376780 0.574460 -0.612347
O2    O     O_R   0.500000 0.623220 0.425540 -0.607469
O3    O     O_R   0.500010 0.376780 0.425520 -0.608332
O4    O     O_R   0.499990 0.623220 0.574480 -0.611769
C1    C     C_R   0.500015 0.337591 0.500449 0.903636
C2    C     C_R   0.500277 0.662439 0.499601 0.910999
O5    O     O_R   0.428750 0.500010 0.574460 -0.613127
O6    O     O_R   0.571250 0.499990 0.425540 -0.615114
O7    O     O_R   0.428760 0.500020 0.425520 -0.624213
O8    O     O_R   0.571240 0.499980 0.574480 -0.625069
C3    C     C_R   0.405802 0.499501 0.500079 0.906285
C4    C     C_R   0.594202 0.499468 0.499952 0.902829
Zn1   Zn    Zn3+2 0.499990 0.500000 0.599450 0.981785
Zn2   Zn    Zn3+2 0.500010 0.500000 0.400550 0.987616
C5    C     C_R   0.177492 0.412430 0.492963 0.495822
C6    C     C_R   0.822903 0.565209 0.471981 0.496682
O9    O     O_2   0.202139 0.338587 0.487947 -0.586716
O10   O     O_2   0.798517 0.637021 0.451093 -0.582513
N1    N     N_R   0.201703 0.487217 0.499985 -0.327275
N2    N     N_R   0.798431 0.493316 0.494817 -0.326474
C7    C     C_R   0.178506 0.563663 0.503270 0.551852
C8    C     C_R   0.821348 0.418613 0.514310 0.551668
C9    C     C_R   0.278219 0.477097 0.421407 -0.199283
C10   C     C_R   0.721589 0.494059 0.416880 -0.207520
C11   C     C_R   0.328137 0.481227 0.420712 -0.213757
C12   C     C_R   0.671672 0.496029 0.417723 -0.216609
C13   C     C_R   0.327922 0.504141 0.581457 -0.322640
C14   C     C_R   0.672487 0.499773 0.580416 -0.342554
C15   C     C_R   0.277641 0.496835 0.583128 0.555616
C16   C     C_R   0.722972 0.501697 0.579787 0.561107
C17   C     C_R   0.253050 0.485995 0.501879 0.236455
C18   C     C_R   0.747121 0.496136 0.497381 0.235437
C19   C     C_R   0.101983 0.490014 0.492842 -0.045547
C20   C     C_R   0.898150 0.488633 0.489643 -0.045481
C21   C     C_R   0.127258 0.412126 0.491912 -0.013779
C22   C     C_R   0.873094 0.564965 0.471423 -0.014562
C23   C     C_R   0.102096 0.335480 0.489064 -0.138585
C24   C     C_R   0.898428 0.639514 0.452446 -0.138574
C25   C     C_R   0.127815 0.567763 0.494922 -0.129136
C26   C     C_R   0.872097 0.412813 0.507648 -0.127504
C27   C     C_R   0.353252 0.495347 0.500618 -0.098230
C28   C     C_R   0.646807 0.498575 0.499461 -0.102685
H1    H     H_    0.347083 0.518097 0.642747 0.177413
H2    H     H_    0.653389 0.498493 0.643675 0.167554
H3    H     H_    0.120886 0.275158 0.486102 0.195403
H4    H     H_    0.879817 0.698170 0.435898 0.195207
C29   C     C_R   0.974586 0.411565 0.501982 0.003006
C30   C     C_R   0.025477 0.567309 0.486190 0.003478
C31   C     C_R   0.974628 0.566321 0.477461 0.056533
C32   C     C_R   0.025584 0.411187 0.495254 0.055897
C33   C     C_R   0.949242 0.488726 0.489716 0.083380
C34   C     C_R   0.050893 0.489594 0.491471 0.083509
C35   C     C_R   0.948178 0.336905 0.520310 -0.194939
C36   C     C_R   0.051636 0.643927 0.489605 -0.195727
C37   C     C_R   0.897833 0.335778 0.521184 0.002226
C38   C     C_R   0.101927 0.645552 0.491568 0.001501
O11   O     O_2   0.794774 0.351571 0.541732 -0.573441
O12   O     O_2   0.204786 0.634482 0.516293 -0.562358
C39   C     C_R   0.052243 0.334816 0.490855 -0.213850
C40   C     C_R   0.948226 0.640381 0.455426 -0.214351
H5    H     H_    0.652612 0.494603 0.354451 0.186935
H6    H     H_    0.346985 0.474016 0.357660 0.171876
H7    H     H_    0.740625 0.490728 0.353636 0.163728
H8    H     H_    0.258875 0.468165 0.359202 0.158899
H9    H     H_    0.966097 0.277567 0.534689 0.180487
H10   H     H_    0.033531 0.704510 0.491074 0.180139
H11   H     H_    0.035668 0.273152 0.485897 0.151174
H12   H     H_    0.965017 0.699849 0.437392 0.150061
C41   C     C_3   0.542740 0.970919 0.549621 0.414255
C42   C     C_3   0.467908 0.028091 0.455526 0.428457
C43   C     C_3   0.545791 0.029738 0.467150 0.495188
C44   C     C_3   0.464879 0.970933 0.538809 0.426662
H13   H     H_    0.512879 0.952228 0.345500 0.179317
H14   H     H_    0.498983 0.048995 0.659886 0.174474
C45   C     C_1   0.501232 0.249010 0.501903 -0.184028
C46   C     C_1   0.502398 0.751036 0.498626 -0.175878
C47   C     C_3   0.501800 0.026049 0.590017 -0.520916
C48   C     C_3   0.509212 0.974516 0.415490 -0.397300
C49   C     C_3   0.504507 0.083432 0.504980 -0.083307
C50   C     C_3   0.505835 0.916661 0.499670 -0.079236
C51   C     C_1   0.502665 0.173971 0.503686 0.050915
C52   C     C_1   0.504337 0.826080 0.498391 0.051794
C53   C     C_3   0.532430 0.443136 0.970482 -0.304268
C54   C     C_3   0.466882 0.557890 0.029247 -0.306820
C55   C     C_3   0.542598 0.521188 0.029616 0.607993
C56   C     C_3   0.456681 0.479829 0.970020 0.591852
H15   H     H_    0.559610 0.396991 0.946149 0.153467
H16   H     H_    0.439628 0.604156 0.053127 0.154046
H17   H     H_    0.521794 0.643250 0.944212 0.155990
H18   H     H_    0.477980 0.357497 0.055535 0.154121
N3    N     N_1   0.500020 0.500000 0.268010 -0.096043
N4    N     N_1   0.499980 0.500000 0.731990 -0.097384
C57   C     C_3   0.488015 0.421735 0.030522 -0.317222
C58   C     C_3   0.511278 0.579216 0.969180 -0.306962
C59   C     C_3   0.499099 0.500228 0.089464 -0.009751
C60   C     C_3   0.500267 0.500774 0.910381 -0.003707
C61   C     C_1   0.499630 0.500122 0.189726 0.117591
C62   C     C_1   0.500091 0.500362 0.810228 0.114023
O13   O     O_3   0.584142 0.938271 0.592778 -0.640690
C63   C     C_3   0.571117 0.900018 0.675215 0.094881
H19   H     H_    0.537752 0.860985 0.669596 0.153420
H20   H     H_    0.565228 0.950217 0.726100 0.142473
C64   C     C_3   0.612081 0.841774 0.706310 -0.308963
H21   H     H_    0.619134 0.793242 0.654212 0.232107
H22   H     H_    0.645416 0.879858 0.715452 0.230273
C65   C     C_3   0.599691 0.796648 0.794329 -0.991132
H23   H     H_    0.593160 0.843835 0.847900 0.271171
H24   H     H_    0.630162 0.755026 0.814922 0.260663
H25   H     H_    0.567047 0.756617 0.786116 0.267792
O14   O     O_3   0.428271 0.063732 0.409357 -0.641420
C66   C     C_3   0.402253 0.000031 0.363892 0.107462
H26   H     H_    0.363441 0.008516 0.379905 0.164321
H27   H     H_    0.411744 0.933629 0.384339 0.149546
C67   C     C_3   0.409229 0.011171 0.262817 -0.348179
H28   H     H_    0.396881 0.075639 0.242064 0.236565
H29   H     H_    0.448090 0.005284 0.246025 0.223134
C68   C     C_3   0.380965 0.944728 0.210793 -0.948211
H30   H     H_    0.393532 0.879779 0.229036 0.267119
H31   H     H_    0.386597 0.954831 0.137809 0.267970
H32   H     H_    0.341834 0.950239 0.225494 0.270304
O15   O     O_3   0.587701 0.544028 0.065748 -0.645152
C69   C     C_3   0.622223 0.555691 0.996884 0.066439
H33   H     H_    0.639881 0.618182 0.007216 0.169674
H34   H     H_    0.606906 0.557411 0.927697 0.120576
C70   C     C_3   0.660449 0.485844 0.003633 -0.328242
H35   H     H_    0.678465 0.489057 0.070019 0.234555
H36   H     H_    0.643012 0.422610 0.997887 0.219352
C71   C     C_3   0.698229 0.495262 0.929928 -0.956080
H37   H     H_    0.681093 0.489167 0.863049 0.262282
H38   H     H_    0.725858 0.444605 0.937460 0.280955
H39   H     H_    0.716275 0.558074 0.934400 0.257792
O16   O     O_3   0.411777 0.458701 0.931965 -0.647390
C72   C     C_3   0.378269 0.440233 0.000445 0.076676
H40   H     H_    0.374162 0.495214 0.046323 0.136546
H41   H     H_    0.389869 0.383144 0.039484 0.138863
C73   C     C_3   0.329369 0.421900 0.957758 -0.323843
H42   H     H_    0.317408 0.478434 0.918437 0.223654
H43   H     H_    0.332878 0.367401 0.911340 0.226089
C74   C     C_3   0.291376 0.400865 0.028495 -0.954092
H44   H     H_    0.302046 0.343234 0.067227 0.268396
H45   H     H_    0.256306 0.388527 0.995309 0.265840
H46   H     H_    0.286846 0.454965 0.075062 0.266219
O17   O     O_3   0.251450 0.509455 0.661130 -0.620399
C75   C     C_3   0.262464 0.446467 0.726474 0.039706
H47   H     H_    0.248741 0.469651 0.791789 0.185715
H48   H     H_    0.301849 0.436346 0.735614 0.130044
C76   C     C_3   0.237339 0.362145 0.705556 -0.341378
H49   H     H_    0.198100 0.373443 0.696141 0.245856
H50   H     H_    0.252310 0.335568 0.642724 0.246468
C77   C     C_3   0.244693 0.297228 0.780899 -0.928829
H51   H     H_    0.283706 0.283951 0.790307 0.260486
H52   H     H_    0.226258 0.236966 0.763618 0.278236
H53   H     H_    0.229274 0.321254 0.844517 0.265014
O18   O     O_3   0.749646 0.501529 0.658423 -0.622153
C78   C     C_3   0.740263 0.575222 0.709506 0.032850
H54   H     H_    0.756740 0.564815 0.776493 0.192340
H55   H     H_    0.701176 0.585785 0.721580 0.125283
C79   C     C_3   0.763359 0.654690 0.667335 -0.339277
H56   H     H_    0.802459 0.643151 0.656537 0.246105
H57   H     H_    0.746259 0.668717 0.601572 0.246464
C80   C     C_3   0.756962 0.731922 0.727279 -0.926590
H58   H     H_    0.718040 0.745335 0.737611 0.259989
H59   H     H_    0.773883 0.788332 0.695000 0.280424
H60   H     H_    0.774443 0.720652 0.793266 0.265615
C81   C     C_2   0.874178 0.251395 0.530172 0.481078
H61   H     H_    0.842044 0.236717 0.492114 0.106506
O19   O     O_2   0.891396 0.196052 0.578372 -0.559202
C82   C     C_2   0.125374 0.730183 0.483467 0.482392
H62   H     H_    0.157590 0.738600 0.443275 0.107614
O20   O     O_2   0.107872 0.792401 0.519512 -0.558760
O21   O     O_3   0.587931 0.062698 0.426680 -0.625078
C83   C     C_3   0.616360 0.106886 0.489717 0.140531
H63   H     H_    0.646901 0.065356 0.510356 0.184391
H64   H     H_    0.596509 0.125403 0.551595 0.128767
C84   C     C_3   0.636209 0.187599 0.445305 -0.385510
H65   H     H_    0.658972 0.170048 0.387007 0.241632
H66   H     H_    0.605728 0.227272 0.420573 0.232042
C85   C     C_3   0.666210 0.239787 0.510514 -0.883078
H67   H     H_    0.643649 0.260574 0.567819 0.258734
H68   H     H_    0.680437 0.297176 0.475651 0.281977
H69   H     H_    0.697102 0.201699 0.536021 0.280794
O22   O     O_3   0.422354 0.934174 0.573624 -0.644872
C86   C     C_3   0.391956 0.997349 0.610008 0.120775
H70   H     H_    0.355073 0.987047 0.583297 0.164226
H71   H     H_    0.402091 0.063875 0.591319 0.154144
C87   C     C_3   0.390545 0.987915 0.712052 -0.353519
H72   H     H_    0.377284 0.923386 0.730281 0.240740
H73   H     H_    0.427473 0.995227 0.739606 0.215877
C88   C     C_3   0.357593 0.054291 0.754093 -0.942327
H74   H     H_    0.370861 0.119354 0.738423 0.264950
H75   H     H_    0.357156 0.045451 0.827983 0.268296
H76   H     H_    0.320219 0.047416 0.728513 0.273212

loop_
_geom_bond_atom_site_label_1
_geom_bond_atom_site_label_2
_geom_bond_distance
_ccdc_geom_bond_type
C53   H15   1.109550 S    
O21   C83   1.415958 S    
C81   H61   1.083644 S    
C13   C15   1.400002 A    
C55   C59   1.535249 S    
C41   C47   1.553321 S    
C76   H49   1.111655 S    
O7    Zn2   2.011285 S    
N1    C17   1.424934 S    
C71   H37   1.110908 S    
C8    O11   1.347918 S    
C43   C49   1.533108 S    
C67   H28   1.111665 S    
N4    C62   1.167824 T    
C84   H66   1.111788 S    
C19   C34   1.417574 A    
C30   C36   1.409091 A    
C20   C33   1.417466 A    
C19   C25   1.419014 A    
C31   C40   1.412081 A    
O1    C1    1.270107 A    
C32   C39   1.412399 A    
N1    C7    1.364837 A    
C12   H5    1.083070 S    
C10   C12   1.385209 A    
C75   C76   1.534088 S    
C74   H46   1.110890 S    
C48   C50   1.547506 S    
C42   C48   1.545083 S    
C65   H23   1.110836 S    
O17   C75   1.417238 S    
C53   C57   1.558373 S    
O4    Zn1   1.970834 S    
C14   H2    1.082414 S    
C41   C43   1.535476 S    
C14   C28   1.403408 A    
H17   C58   1.110199 S    
C88   H75   1.110374 S    
O22   C86   1.414889 S    
C4    C28   1.459491 S    
C42   O14   1.411081 S    
C79   C80   1.525846 S    
C39   H11   1.077290 S    
O14   C66   1.414498 S    
C66   H27   1.116980 S    
C84   H65   1.111573 S    
O16   C72   1.409644 S    
C31   C33   1.420359 A    
H14   C47   1.109415 S    
C60   C62   1.494946 S    
C70   C71   1.525303 S    
C32   C34   1.420742 A    
H13   C48   1.109606 S    
C55   O15   1.411073 S    
C84   C85   1.526974 S    
C35   H9    1.077173 S    
C20   C22   1.411400 A    
C83   C84   1.529924 S    
C6    N2    1.360406 A    
C29   C35   1.409610 A    
C82   O20   1.221478 D    
C57   C59   1.554063 S    
C78   C79   1.535112 S    
C79   H57   1.110678 S    
C69   H34   1.117019 S    
C66   C67   1.529326 S    
O2    C2    1.271014 A    
C73   C74   1.525780 S    
O8    C4    1.281606 A    
C5    C21   1.393740 A    
C80   H59   1.110340 S    
C83   H64   1.115874 S    
C80   H58   1.110952 S    
C29   C32   1.418350 A    
C35   C37   1.396919 A    
C36   C38   1.395807 A    
C76   H50   1.110538 S    
C85   H69   1.110751 S    
C85   H67   1.111014 S    
C76   C77   1.525787 S    
C73   H43   1.111557 S    
C68   H32   1.110874 S    
C46   C52   1.181999 T    
C49   C51   1.425349 S    
C45   C51   1.181347 T    
C29   C33   1.412825 A    
C77   H53   1.110548 S    
C63   C64   1.528864 S    
C44   C50   1.538801 S    
C67   H29   1.110706 S    
C54   C59   1.553720 S    
C9    C17   1.397007 A    
C79   H56   1.111564 S    
C1    C45   1.394075 S    
C88   H76   1.110896 S    
C5    N1    1.360433 A    
C86   H70   1.111006 S    
C10   C18   1.395858 A    
C44   C47   1.549389 S    
C56   C57   1.546182 S    
C72   C73   1.528079 S    
C86   H71   1.116934 S    
C55   C58   1.544787 S    
C13   C27   1.403768 A    
O5    C3    1.280236 A    
O13   C63   1.411693 S    
C7    C25   1.413264 A    
C30   C34   1.412491 A    
O6    C4    1.280558 A    
C26   C37   1.419024 A    
C8    C26   1.414282 A    
C38   C82   1.486461 S    
C63   H20   1.112691 S    
O18   C78   1.417423 S    
C47   C49   1.552565 S    
C64   H22   1.111661 S    
C25   C38   1.418980 A    
C54   C58   1.557966 S    
N3    C61   1.168488 T    
C58   C60   1.551792 S    
C78   H55   1.111714 S    
O7    C3    1.281827 A    
O15   C69   1.415254 S    
C23   C39   1.383364 A    
O3    Zn2   1.970836 S    
C56   C60   1.535278 S    
C24   C40   1.382379 A    
C41   O13   1.411301 S    
C75   H48   1.112353 S    
C9    H8    1.083044 S    
C53   C55   1.545298 S    
N2    C8    1.364826 A    
C10   H7    1.083021 S    
Zn1   N4    1.978253 S    
C72   H40   1.113972 S    
C77   H52   1.110332 S    
C86   C87   1.529411 S    
O4    C2    1.271655 A    
O1    Zn1   1.977704 S    
C37   C81   1.486529 S    
C11   C27   1.401298 A    
C71   H39   1.110912 S    
C78   H54   1.110336 S    
C80   H60   1.110822 S    
C83   H63   1.111427 S    
C12   C28   1.402009 A    
H18   C57   1.109899 S    
C72   H41   1.113481 S    
N2    C18   1.424654 S    
C5    O9    1.350201 S    
C82   H62   1.083645 S    
O6    Zn2   2.011553 S    
C66   H26   1.111004 S    
C21   C23   1.395038 A    
C42   C49   1.532569 S    
C6    O10   1.350462 S    
C54   H16   1.109957 S    
C54   C56   1.546376 S    
C75   H47   1.110962 S    
O3    C1    1.272049 A    
O8    Zn1   2.011285 S    
C71   H38   1.110249 S    
C85   H68   1.110686 S    
C74   H44   1.110852 S    
C59   C61   1.496540 S    
C2    C46   1.395228 S    
C36   H10   1.077401 S    
C69   C70   1.529153 S    
C68   H31   1.110385 S    
C69   H33   1.111041 S    
C44   O22   1.411159 S    
C7    O12   1.347906 S    
C15   C17   1.403685 A    
C68   H30   1.110955 S    
C6    C22   1.392498 A    
C16   C18   1.403604 A    
C74   H45   1.110168 S    
C56   O16   1.410828 S    
C70   H35   1.111672 S    
C65   H24   1.110590 S    
C87   C88   1.526323 S    
C30   C31   1.416924 A    
C53   C60   1.551645 S    
C16   O18   1.387902 S    
C22   C24   1.394727 A    
C63   H19   1.115015 S    
C19   C21   1.411484 A    
C50   C52   1.426151 S    
C14   C16   1.400998 A    
C3    C27   1.459448 S    
C64   C65   1.526678 S    
C43   O21   1.412481 S    
C11   H6    1.083127 S    
C9    C11   1.386509 A    
C88   H74   1.111007 S    
O2    Zn2   1.977703 S    
C87   H73   1.110705 S    
Zn2   N3    1.978253 S    
C24   H4    1.083655 S    
C67   C68   1.525864 S    
C13   H1    1.082710 S    
O5    Zn1   2.011552 S    
C40   H12   1.077467 S    
C81   O19   1.221454 D    
C64   H21   1.112024 S    
C70   H36   1.110785 S    
C77   H51   1.110872 S    
C20   C26   1.418923 A    
C41   C50   1.532185 S    
C42   C44   1.529791 S    
C87   H72   1.111625 S    
C23   H3    1.083632 S    
C43   C48   1.547435 S    
C73   H42   1.111631 S    
C65   H25   1.111159 S    
C15   O17   1.387703 S    
