data_mof_unit_51996.cif
_audit_creation_date              2012-12-10T18:18:19-0500
_audit_creation_method            fapswitch 2.2
_symmetry_space_group_name_H-M    P1
_symmetry_Int_Tables_number       1
_space_group_crystal_system       triclinic
_cell_length_a                    14.123789
_cell_length_b                    14.891995
_cell_length_c                    15.459195
_cell_angle_alpha                 87.947313
_cell_angle_beta                  69.131759
_cell_angle_gamma                 87.413676
_cell_volume                      3034.48492991

loop_
_atom_site_label
_atom_site_type_symbol
_atom_type_description
_atom_site_fract_x
_atom_site_fract_y
_atom_site_fract_z
_atom_type_partial_charge
C1    C     C_R   0.498362 0.673020 0.499751 0.884170
C2    C     C_R   0.494833 0.768463 0.501313 -0.067567
C3    C     C_R   0.483502 0.190537 0.427903 -0.247904
C4    C     C_R   0.518457 0.809837 0.569922 -0.249043
C5    C     C_R   0.483082 0.097325 0.426202 0.092325
C6    C     C_R   0.519450 0.902948 0.571204 0.093580
C7    C     C_R   0.502940 0.046776 0.497682 0.006496
C8    C     C_R   0.499471 0.953419 0.499756 0.006294
C9    C     C_R   0.525349 0.089875 0.567731 0.114363
C10   C     C_R   0.476554 0.910270 0.430010 0.115393
C11   C     C_R   0.461544 0.053701 0.356098 0.210574
C12   C     C_R   0.501844 0.327040 0.499716 0.887398
C13   C     C_R   0.541445 0.946541 0.641054 0.212360
C14   C     C_R   0.457535 0.960139 0.359263 -0.301448
C15   C     C_R   0.544897 0.040053 0.638179 -0.300860
C16   C     C_R   0.437580 0.498988 0.675928 0.865332
C17   C     C_R   0.562663 0.499068 0.324050 0.865406
C18   C     C_R   0.184682 0.436987 0.551547 -0.112803
C19   C     C_R   0.815524 0.562638 0.448077 -0.109719
C20   C     C_R   0.215928 0.565970 0.451379 0.269220
C21   C     C_R   0.783226 0.434870 0.550135 0.269733
C22   C     C_R   0.117769 0.563471 0.446070 0.007173
C23   C     C_R   0.382189 0.415648 0.102353 -0.193187
C24   C     C_R   0.881725 0.437003 0.554912 0.008891
C25   C     C_R   0.050370 0.499915 0.500016 0.052842
C26   C     C_R   0.949439 0.500050 0.500298 0.053755
C27   C     C_R   0.083367 0.436996 0.554501 0.024027
C28   C     C_R   0.916586 0.562893 0.445636 0.020527
C29   C     C_R   0.085015 0.624131 0.389035 -0.198856
C30   C     C_R   0.914391 0.376837 0.612451 -0.205599
C31   C     C_R   0.985587 0.624308 0.389540 -0.212924
C32   C     C_R   0.014146 0.376084 0.611207 -0.213735
C33   C     C_R   0.402407 0.483558 0.776413 -0.108197
C34   C     C_R   0.622558 0.408011 0.903549 -0.197945
C35   C     C_R   0.599678 0.482169 0.224426 -0.103777
C36   C     C_R   0.271468 0.435543 0.918852 -0.208694
C37   C     C_R   0.732185 0.425807 0.086489 -0.210044
C38   C     C_R   0.302035 0.459391 0.825154 -0.241083
C39   C     C_R   0.700528 0.452398 0.178389 -0.242221
C40   C     C_R   0.472854 0.482161 0.822479 0.127343
C41   C     C_R   0.530390 0.483977 0.177402 0.148664
C42   C     C_R   0.446301 0.442978 0.911251 0.043873
C43   C     C_R   0.557812 0.441917 0.092049 0.043516
C44   C     C_R   0.342762 0.428734 0.962794 0.135170
C45   C     C_R   0.312135 0.411451 0.058092 -0.229733
C46   C     C_R   0.661479 0.421744 0.042342 0.133212
C47   C     C_R   0.518848 0.427079 0.953842 0.078241
C48   C     C_R   0.485636 0.428752 0.050540 0.077479
C49   C     C_3   0.243635 0.724506 0.458451 -0.790103
C50   C     C_3   0.752360 0.275998 0.549190 -0.792507
C51   C     C_3   0.459864 0.637028 0.192482 -0.785154
C52   C     C_3   0.546084 0.630016 0.788762 -0.720347
C53   C     C_3   0.533245 0.127688 0.206919 -0.804030
C54   C     C_3   0.469945 0.874465 0.791034 -0.817817
C55   C     C_R   0.692549 0.401297 0.948527 -0.228197
C56   C     C_R   0.526227 0.182710 0.567079 -0.256693
C57   C     C_R   0.474433 0.817372 0.431451 -0.257626
C58   C     C_R   0.505850 0.231716 0.497356 -0.069032
H1    H     H_    0.233363 0.400095 0.098995 0.146720
H2    H     H_    0.246856 0.460030 0.791216 0.170085
H3    H     H_    0.192521 0.421857 0.956690 0.141785
H4    H     H_    0.811355 0.407614 0.050390 0.142332
H5    H     H_    0.355798 0.405409 0.176693 0.149439
H6    H     H_    0.649243 0.394826 0.830233 0.145941
H7    H     H_    0.539094 0.217251 0.622274 0.137248
H8    H     H_    0.460529 0.782736 0.376822 0.134200
H9    H     H_    0.466112 0.231925 0.375983 0.175229
H10   H     H_    0.536361 0.768723 0.621624 0.170573
H11   H     H_    0.440601 0.926342 0.305758 0.146059
H12   H     H_    0.771482 0.385321 0.908947 0.144757
H13   H     H_    0.561663 0.073842 0.691784 0.145844
H14   H     H_    0.352696 0.628924 0.383803 0.279590
H15   H     H_    0.258841 0.721775 0.524141 0.269134
H16   H     H_    0.161361 0.739062 0.475337 0.240182
H17   H     H_    0.284469 0.780840 0.414021 0.231934
H18   H     H_    0.644961 0.374141 0.621888 0.264415
H19   H     H_    0.735730 0.275887 0.484301 0.270296
H20   H     H_    0.711767 0.221225 0.596425 0.229549
H21   H     H_    0.834721 0.261152 0.531222 0.239912
H22   H     H_    0.382075 0.522948 0.263133 0.241380
H23   H     H_    0.210920 0.387846 0.592016 0.148547
H24   H     H_    0.386540 0.675149 0.207828 0.239759
H25   H     H_    0.508285 0.652157 0.119594 0.254167
H26   H     H_    0.497610 0.659182 0.239607 0.218539
H27   H     H_    0.621779 0.508582 0.733022 0.241220
H28   H     H_    0.620051 0.662993 0.768346 0.236935
H29   H     H_    0.498235 0.652113 0.859294 0.239225
H30   H     H_    0.508470 0.651352 0.739102 0.227466
H31   H     H_    0.390803 0.074458 0.260409 0.226428
H32   H     H_    0.574672 0.066327 0.171579 0.241394
H33   H     H_    0.583996 0.165893 0.231780 0.249469
H34   H     H_    0.789485 0.611527 0.407242 0.150076
H35   H     H_    0.511999 0.170938 0.156209 0.243266
H36   H     H_    0.613340 0.925462 0.735719 0.227032
H37   H     H_    0.429090 0.936658 0.824863 0.244610
H38   H     H_    0.491100 0.832668 0.842709 0.241130
H39   H     H_    0.418791 0.835471 0.767394 0.249839
H40   H     H_    0.136044 0.672113 0.343708 0.173758
H41   H     H_    0.863114 0.329593 0.658696 0.170081
H42   H     H_    0.962796 0.672520 0.345880 0.143172
H43   H     H_    0.036897 0.328058 0.655051 0.140236
H44   H     H_    0.755089 0.450437 0.213051 0.172826
N1    N     N_R   0.249980 0.499930 0.499960 -0.128393
N2    N     N_R   0.750020 0.500070 0.500040 -0.126296
N3    N     N_2   0.275964 0.640711 0.409591 -0.325488
N4    N     N_2   0.721674 0.361667 0.594728 -0.329697
N5    N     N_2   0.441820 0.541799 0.205186 -0.305036
N6    N     N_2   0.562390 0.533461 0.788572 -0.304199
N7    N     N_2   0.442605 0.103324 0.283077 -0.313898
N8    N     N_2   0.560564 0.897009 0.714009 -0.312815
O1    O     O_R   0.419720 0.632140 0.499980 -0.625055
O2    O     O_R   0.580280 0.367860 0.500020 -0.624032
O3    O     O_R   0.580270 0.632160 0.499970 -0.613380
O4    O     O_R   0.419730 0.367840 0.500030 -0.616552
O5    O     O_R   0.373870 0.499980 0.632250 -0.609321
O6    O     O_R   0.626130 0.500020 0.367750 -0.611204
O7    O     O_R   0.534420 0.500000 0.632240 -0.638230
O8    O     O_R   0.465580 0.500000 0.367760 -0.639398
Zn1   Zn    Zn3+2 0.392800 0.499980 0.500010 0.927831
Zn2   Zn    Zn3+2 0.607200 0.500020 0.499990 0.928873

loop_
_geom_bond_atom_site_label_1
_geom_bond_atom_site_label_2
_ccdc_geom_bond_type
C50   H19   S    
C23   C45   A    
C22   C29   A    
C11   N7    S    
C2    C4    A    
C57   H8    S    
C50   H21   S    
C37   H4    S    
C2    C57   A    
O2    Zn2   S    
C7    C8    A    
C20   N1    A    
H22   N5    S    
C1    O3    A    
C29   H40   S    
C24   C26   A    
C5    C11   A    
C11   C14   A    
C23   H5    S    
C56   H7    S    
H31   N7    S    
C18   H23   S    
C54   N8    S    
O1    Zn1   S    
C1    C2    S    
O8    Zn1   S    
C19   H34   S    
C21   N2    A    
C22   C25   A    
C46   C55   A    
C53   H33   S    
C49   H17   S    
C54   H39   S    
H27   N6    S    
C43   C48   A    
C54   H38   S    
C21   N4    S    
C40   N6    S    
C12   C58   S    
C40   C42   A    
C34   C55   A    
C41   C43   A    
C42   C44   A    
C50   H20   S    
C12   O4    A    
C52   H29   S    
C37   C39   A    
N1    Zn1   S    
C33   C40   A    
C53   H35   S    
C52   H30   S    
C10   C57   A    
C4    C6    A    
C10   C14   A    
O7    Zn2   S    
C5    C7    A    
C6    C8    A    
C25   C26   A    
C30   H41   S    
H36   N8    S    
O6    Zn2   S    
C35   C39   A    
C13   N8    S    
C16   C33   S    
O3    Zn2   S    
C19   N2    A    
C47   C48   A    
C34   H6    S    
C9    C56   A    
C31   H42   S    
C19   C28   A    
C51   H24   S    
C54   H37   S    
C17   O8    A    
C38   H2    S    
C51   N5    S    
C20   C22   A    
O5    Zn1   S    
C13   C15   A    
C14   H11   S    
C49   H15   S    
C36   C44   A    
C36   H3    S    
C16   O5    A    
C51   H25   S    
C12   O2    A    
C44   C45   A    
C39   H44   S    
C4    H10   S    
C20   N3    S    
C53   N7    S    
C7    C9    A    
C45   H1    S    
H18   N4    S    
C23   C48   A    
C41   N5    S    
C27   C32   A    
C49   H16   S    
C28   C31   A    
C3    H9    S    
C18   C27   A    
O4    Zn1   S    
C3    C5    A    
C49   N3    S    
C25   C27   A    
C15   H13   S    
C26   C28   A    
C33   C38   A    
C36   C38   A    
C9    C15   A    
C29   C31   A    
C16   O7    A    
C1    O1    A    
C6    C13   A    
C30   C32   A    
C18   N1    A    
C52   H28   S    
C56   C58   A    
C42   C47   A    
C35   C41   A    
C43   C46   A    
C24   C30   A    
C55   H12   S    
C3    C58   A    
H14   N3    S    
C52   N6    S    
C8    C10   A    
C21   C24   A    
C53   H32   S    
C50   N4    S    
C32   H43   S    
C34   C47   A    
C17   C35   S    
C37   C46   A    
C51   H26   S    
C17   O6    A    
N2    Zn2   S    
