data_mof_unit_14684.cif
_audit_creation_date              2012-12-10T20:44:44-0500
_audit_creation_method            fapswitch 2.2
_symmetry_space_group_name_H-M    P1
_symmetry_Int_Tables_number       1
_space_group_crystal_system       triclinic
_cell_length_a                    9.860777
_cell_length_b                    10.714749
_cell_length_c                    16.630998
_cell_angle_alpha                 88.822609
_cell_angle_beta                  95.084775
_cell_angle_gamma                 90.389215
_cell_volume                      1749.85419775

loop_
_atom_site_label
_atom_site_type_symbol
_atom_type_description
_atom_site_fract_x
_atom_site_fract_y
_atom_site_fract_z
_atom_type_partial_charge
C1    C     C_R   0.499739 0.259946 0.499555 0.873980
C2    C     C_R   0.650584 0.511102 0.792669 0.260384
C3    C     C_R   0.552576 0.660612 0.150361 0.190194
C4    C     C_R   0.567297 0.618664 0.230590 -0.272893
C5    C     C_R   0.438098 0.619503 0.100332 0.303015
C6    C     C_R   0.468143 0.541234 0.261223 -0.055586
C7    C     C_R   0.349966 0.510272 0.212891 -0.230332
C8    C     C_R   0.335448 0.549082 0.132575 -0.221595
C9    C     C_R   0.620888 0.064428 0.493639 0.138431
C10   C     C_R   0.501303 0.127658 0.504969 -0.099259
C11   C     C_R   0.386307 0.062104 0.526486 -0.239248
C12   C     C_R   0.518473 0.502159 0.654303 0.893837
C13   C     C_R   0.387620 0.933499 0.529156 -0.217680
C14   C     C_R   0.503189 0.871045 0.508292 -0.099544
C15   C     C_R   0.621683 0.936734 0.495273 0.153784
C16   C     C_3   0.706363 0.930019 0.425336 -0.494176
C17   C     C_3   0.704703 0.071310 0.422859 -0.485752
C18   C     C_R   0.079880 0.447163 0.563501 0.174480
C19   C     C_R   0.063886 0.563564 0.442157 -0.139130
C20   C     C_R   0.919900 0.564222 0.442450 -0.139639
C21   C     C_R   0.937193 0.444493 0.561772 0.274835
C22   C     C_3   0.933839 0.310480 0.586197 -0.543443
C23   C     C_R   0.500549 0.739767 0.500971 0.875581
C24   C     C_3   0.089175 0.313962 0.594005 -0.114452
C25   C     C_R   0.481530 0.506764 0.346320 0.871172
C26   C     C_R   0.527682 0.520362 0.741955 -0.105718
C27   C     C_R   0.407514 0.553711 0.775714 -0.269265
C28   C     C_R   0.407417 0.572956 0.857565 -0.160006
C29   C     C_R   0.528491 0.560227 0.907873 0.267956
C30   C     C_R   0.648745 0.529285 0.875223 -0.214241
H1    H     H_    0.654767 0.648439 0.269766 0.144691
H2    H     H_    0.296357 0.883708 0.543149 0.174746
H3    H     H_    0.808859 0.890538 0.443200 0.207642
H4    H     H_    0.651092 0.887437 0.371348 0.197047
H5    H     H_    0.806886 0.112953 0.437970 0.199535
H6    H     H_    0.647801 0.111234 0.367617 0.202530
H7    H     H_    0.111520 0.612705 0.394553 0.152275
H8    H     H_    0.858929 0.614327 0.395216 0.141859
H9    H     H_    0.884980 0.294356 0.643019 0.242380
H10   H     H_    0.891162 0.251333 0.536070 0.188448
H11   H     H_    0.132779 0.250856 0.551149 0.180951
H12   H     H_    0.741804 0.519310 0.914609 0.168444
H13   H     H_    0.270765 0.453637 0.236725 0.161549
H14   H     H_    0.312066 0.595216 0.881517 0.165437
H15   H     H_    0.247859 0.518185 0.094010 0.153494
H16   H     H_    0.312378 0.566280 0.738825 0.183189
H17   H     H_    0.293880 0.109122 0.537658 0.167177
N1    N     N_2   0.530980 0.567432 0.992368 -0.192672
N2    N     N_2   0.435258 0.627881 0.016008 -0.201314
N3    N     N_R   0.142860 0.499130 0.500540 -0.119036
N4    N     N_R   0.857210 0.499170 0.500530 -0.106675
O1    O     O_R   0.614690 0.316790 0.499990 -0.610446
O2    O     O_R   0.385350 0.316760 0.500000 -0.628981
O3    O     O_R   0.627460 0.498860 0.616130 -0.562275
O4    O     O_R   0.398120 0.498820 0.616130 -0.625027
O5    O     O_R   0.614650 0.683240 0.500000 -0.613598
O6    O     O_R   0.385310 0.683210 0.500010 -0.622878
O7    O     O_R   0.601880 0.501180 0.383870 -0.623285
O8    O     O_R   0.372540 0.501140 0.383870 -0.617516
Zn1   Zn    Zn3+2 0.653130 0.500020 0.499990 0.968597
Zn2   Zn    Zn3+2 0.346870 0.499980 0.500010 0.940528
C31   C     C_3   0.150018 0.301681 0.683095 -0.296404
C32   C     C_3   0.283490 0.229689 0.692168 -0.869566
H18   H     H_    0.264362 0.130203 0.677413 0.252097
H19   H     H_    0.357455 0.269702 0.652432 0.278972
H20   H     H_    0.328673 0.234134 0.755630 0.254555
H21   H     H_    0.166598 0.395066 0.710056 0.222626
H22   H     H_    0.078623 0.250620 0.720288 0.227163
C33   C     C_3   0.659025 0.747716 0.119584 -0.418187
C34   C     C_3   0.599130 0.876009 0.096875 -0.840814
H23   H     H_    0.518418 0.869100 0.046150 0.269705
H24   H     H_    0.555416 0.917080 0.149647 0.254161
H25   H     H_    0.680583 0.939081 0.077699 0.251948
H26   H     H_    0.745166 0.760788 0.166587 0.195995
H27   H     H_    0.703318 0.707774 0.066800 0.225070
Br1   Br    Br    0.825043 0.475839 0.756438 -0.599827

loop_
_geom_bond_atom_site_label_1
_geom_bond_atom_site_label_2
_ccdc_geom_bond_type
C32   H19   S    
C18   C21   A    
C13   H2    S    
C11   H17   S    
C19   C20   A    
C7    C8    A    
O3    Zn1   S    
C26   C27   A    
C29   C30   A    
C31   H21   S    
C18   C24   S    
C28   C29   A    
C3    C33   S    
C20   N4    A    
C6    C25   S    
O7    Zn1   S    
C15   C16   S    
C1    O2    A    
C8    H15   S    
O1    Zn1   S    
C16   H4    S    
O2    Zn2   S    
C16   C17   S    
C34   H23   S    
C17   H6    S    
C7    H13   S    
C19   H7    S    
C9    C10   A    
C32   H20   S    
C21   C22   S    
C24   H11   S    
C5    N2    S    
O8    Zn2   S    
C29   N1    S    
C12   O4    A    
C23   O5    A    
C4    C6    A    
C28   H14   S    
O5    Zn1   S    
C12   C26   S    
C14   C23   S    
C31   C32   S    
C16   H3    S    
C20   H8    S    
C22   H10   S    
C34   H25   S    
C33   H26   S    
C2    C26   A    
C27   H16   S    
C9    C17   S    
N1    N2    D    
C22   C24   S    
C25   O7    A    
C3    C4    A    
C21   N4    A    
C2    Br1   S    
C18   N3    A    
C23   O6    A    
C24   C31   S    
C1    C10   S    
C3    C5    A    
C5    C8    A    
O6    Zn2   S    
C6    C7    A    
C17   H5    S    
C31   H22   S    
C2    C30   A    
C9    C15   A    
C11   C13   A    
C19   N3    A    
C22   H9    S    
O4    Zn2   S    
C33   H27   S    
C33   C34   S    
C1    O1    A    
C4    H1    S    
C10   C11   A    
C32   H18   S    
C27   C28   A    
N3    Zn2   S    
C14   C15   A    
C30   H12   S    
C34   H24   S    
N4    Zn1   S    
C25   O8    A    
C13   C14   A    
C12   O3    A    
