data_mof_unit_19797.cif
_audit_creation_date              2012-12-11T18:07:17-0500
_audit_creation_method            fapswitch 2.2
_symmetry_space_group_name_H-M    P1
_symmetry_Int_Tables_number       1
_space_group_crystal_system       triclinic
_cell_length_a                    8.209753
_cell_length_b                    12.692892
_cell_length_c                    26.984516
_cell_angle_alpha                 96.60163
_cell_angle_beta                  92.64139
_cell_angle_gamma                 81.405521
_cell_volume                      2760.72804714

loop_
_atom_site_label
_atom_site_type_symbol
_atom_type_description
_atom_site_fract_x
_atom_site_fract_y
_atom_site_fract_z
_atom_type_partial_charge
Ba1   Ba    Ba6+2 0.859560 0.448380 0.523550 1.645467
Ba2   Ba    Ba6+2 0.330270 0.551530 0.476440 1.655778
C1    C     C_3   0.630653 0.081832 0.662666 -0.380113
C2    C     C_R   0.965522 0.617650 0.185478 0.592081
C3    C     C_2   0.771252 0.585355 0.273658 -0.090635
C4    C     C_3   0.157531 0.212446 0.660388 0.286558
C5    C     C_3   0.741601 0.612324 0.328882 -0.066913
C6    C     C_1   0.985895 0.481544 0.343499 0.039744
C7    C     C_2   0.027120 0.471882 0.295772 -0.080885
C8    C     C_2   0.914303 0.525982 0.257808 0.223071
C9    C     C_R   0.046222 0.519288 0.105013 -0.079648
C10   C     C_R   0.047058 0.422866 0.126366 -0.034139
C11   C     C_R   0.088943 0.325605 0.096490 -0.060234
C12   C     C_3   0.650710 0.183437 0.640136 0.332178
C13   C     C_R   0.005352 0.617160 0.135014 -0.029677
C14   C     C_2   0.851043 0.541238 0.361219 -0.263637
C15   C     C_2   0.348000 0.475093 0.642882 -0.312578
C16   C     C_3   0.116056 0.186943 0.711590 -0.321684
C17   C     C_R   0.175320 0.417664 0.973217 0.019472
C18   C     C_R   0.114467 0.615021 0.980900 0.020171
C19   C     C_R   0.163695 0.515808 0.951622 0.049632
C20   C     C_R   0.231638 0.321645 0.942870 -0.098957
C21   C     C_R   0.271211 0.321802 0.893172 -0.061444
C22   C     C_R   0.256052 0.417505 0.871052 -0.033032
C23   C     C_3   0.481574 0.721445 0.628306 0.294576
C24   C     C_R   0.202043 0.514791 0.900184 -0.078608
C25   C     C_R   0.187876 0.611175 0.877982 -0.032405
C26   C     C_R   0.225495 0.608959 0.827099 0.580059
C27   C     C_R   0.294318 0.417807 0.820384 0.582129
C28   C     C_3   0.214513 0.222827 0.417770 0.289929
C29   C     C_2   0.464234 0.485044 0.729754 -0.081269
C30   C     C_3   0.500219 0.487450 0.675256 -0.053324
C31   C     C_1   0.206087 0.527021 0.658864 0.071468
C32   C     C_2   0.170423 0.535777 0.707292 0.074680
C33   C     C_2   0.307650 0.510981 0.745685 0.201254
C34   C     C_3   0.447802 0.765345 0.682314 -0.363702
C35   C     C_R   0.131494 0.418619 0.024115 0.020110
C36   C     C_R   0.086305 0.518005 0.053696 0.049967
C37   C     C_R   0.080702 0.616249 0.032558 0.019809
C38   C     C_R   0.130185 0.323320 0.046727 -0.099203
C39   C     C_R   0.005549 0.713127 0.114116 -0.062425
C40   C     C_3   0.229516 0.102035 0.405545 -0.357216
C41   C     C_R   0.099843 0.710030 0.957116 -0.100576
C42   C     C_R   0.135925 0.707951 0.907040 -0.062036
C43   C     C_R   0.042133 0.712897 0.064254 -0.100295
C44   C     C_R   0.755459 0.819851 0.477845 -0.272970
C45   C     C_3   0.943359 0.862297 0.344093 0.292859
C46   C     C_R   0.433499 0.189037 0.520456 -0.291759
C47   C     C_R   0.410115 0.009700 0.536765 -0.098519
C48   C     C_R   0.347610 0.117805 0.540048 -0.004333
C49   C     C_R   0.575901 0.152221 0.493697 0.063400
C50   C     C_R   0.638520 0.041007 0.487851 -0.055509
C51   C     C_R   0.554794 0.969431 0.510494 -0.062242
C52   C     C_3   0.981425 0.776265 0.579836 0.273657
C53   C     C_R   0.616231 0.859047 0.505411 0.055061
C54   C     C_R   0.843692 0.889232 0.458010 -0.035538
C55   C     C_R   0.783234 0.998854 0.461281 -0.092465
C56   C     C_3   0.973192 0.897951 0.293863 -0.295179
C57   C     C_3   0.975198 0.896796 0.590927 -0.340010
C58   C     C_3   0.695648 0.313927 0.376046 0.295936
C59   C     C_3   0.710816 0.285894 0.319956 -0.361608
C60   C     C_3   0.472369 0.830287 0.343931 0.393413
C61   C     C_3   0.464430 0.905109 0.303468 -0.387132
C62   C     C_R   0.004177 0.425679 0.176988 0.592395
H1    H     H_    0.757657 0.165517 0.615118 0.080689
H2    H     H_    0.811821 0.339481 0.391806 0.007598
H3    H     H_    0.593017 0.380719 0.383015 0.086969
H4    H     H_    0.607868 0.018028 0.632525 0.088251
H5    H     H_    0.818495 0.222935 0.311901 0.128033
H6    H     H_    0.727481 0.357903 0.302148 0.076471
H7    H     H_    0.597222 0.256062 0.303772 0.132249
H8    H     H_    0.536463 0.208291 0.618315 -0.041348
H9    H     H_    0.524949 0.097256 0.687998 0.137314
H10   H     H_    0.365942 0.697405 0.610760 0.025363
H11   H     H_    0.579418 0.650721 0.627313 0.036445
H12   H     H_    0.309650 0.076143 0.373147 0.109377
H13   H     H_    0.355956 0.839311 0.683643 0.137395
H14   H     H_    0.397642 0.705779 0.701936 0.078862
H15   H     H_    0.563584 0.784480 0.701841 0.125925
H16   H     H_    0.744003 0.054073 0.684374 0.126251
H17   H     H_    0.130149 0.255954 0.739716 0.132737
H18   H     H_    0.908967 0.780481 0.338029 0.027544
H19   H     H_    0.840485 0.919904 0.361161 -0.032467
H20   H     H_    0.075654 0.842753 0.275248 0.173341
H21   H     H_    0.859771 0.897726 0.269813 0.106996
H22   H     H_    0.005808 0.980443 0.299117 0.094625
H23   H     H_    0.284182 0.061166 0.437746 0.083274
H24   H     H_    0.603455 0.814385 0.356886 -0.129996
H25   H     H_    0.401318 0.871750 0.376317 0.082549
H26   H     H_    0.531340 0.863082 0.270334 0.123885
H27   H     H_    0.523293 0.976513 0.317512 0.074633
H28   H     H_    0.087907 0.291667 0.654228 0.097823
H29   H     H_    0.334289 0.931716 0.292376 0.127690
H30   H     H_    0.144898 0.427092 0.284183 0.112282
H31   H     H_    0.089765 0.249961 0.111531 0.119613
H32   H     H_    0.565540 0.469039 0.756439 0.095601
H33   H     H_    0.313579 0.245676 0.871912 0.120998
H34   H     H_    0.105807 0.078544 0.396308 0.134588
H35   H     H_    0.249070 0.244212 0.956503 0.068689
H36   H     H_    0.158135 0.244681 0.026781 0.067260
H37   H     H_    0.687012 0.625993 0.247394 0.095058
H38   H     H_    0.976594 0.789812 0.136385 0.118242
H39   H     H_    0.058147 0.788213 0.975893 0.067684
H40   H     H_    0.291204 0.216774 0.659726 -0.015382
H41   H     H_    0.122253 0.783377 0.891031 0.120960
H42   H     H_    0.041084 0.790741 0.052017 0.068120
H43   H     H_    0.829618 0.554085 0.400988 0.075479
H44   H     H_    0.353167 0.419987 0.608863 0.066332
H45   H     H_    0.857003 0.757203 0.569756 0.002638
H46   H     H_    0.340649 0.958242 0.553596 0.106710
H47   H     H_    0.852812 0.049339 0.443878 0.102977
H48   H     H_    0.802845 0.735174 0.475195 0.057085
H49   H     H_    0.383597 0.273312 0.523515 0.069516
H50   H     H_    0.986402 0.171596 0.711445 0.143992
H51   H     H_    0.199140 0.114920 0.721924 0.116850
H52   H     H_    0.134322 0.246794 0.450373 0.072409
H53   H     H_    0.977960 0.539174 0.752285 0.180009
H54   H     H_    0.007349 0.659970 0.736414 0.204644
H55   H     H_    0.338085 0.245208 0.426737 0.003116
H56   H     H_    0.064061 0.748336 0.548160 0.079273
H57   H     H_    0.898610 0.926515 0.623759 0.120621
H58   H     H_    0.921480 0.937565 0.558616 0.087330
H59   H     H_    0.101669 0.916374 0.599133 0.137922
N1    N     N_R   0.962466 0.522611 0.205982 -0.422593
N2    N     N_R   0.274048 0.512622 0.798488 -0.426246
N3    N     N_3   0.007226 0.579476 0.722977 -0.450784
O1    O     O_2   0.907040 0.557650 0.617910 -0.443155
O2    O     O_2   0.181614 0.883637 0.466767 -0.482264
O3    O     O_3   0.088335 0.861909 0.373710 -0.583032
O4    O     O_3   0.139040 0.557570 0.557730 -0.498387
O5    O     O_3   0.571310 0.369620 0.475470 -0.491184
O6    O     O_2   0.348200 0.764910 0.523260 -0.469295
O7    O     O_3   0.534746 0.801673 0.604311 -0.649683
O8    O     O_2   0.439638 0.528493 0.323921 -0.485374
O9    O     O_3   0.402875 0.737905 0.324918 -0.560069
O10   O     O_2   0.001972 0.341819 0.194938 -0.598318
O11   O     O_2   0.346105 0.333528 0.795792 -0.604765
O12   O     O_3   0.664944 0.223301 0.397087 -0.643136
O13   O     O_2   0.934327 0.703226 0.211337 -0.625447
O14   O     O_2   0.216939 0.692994 0.808458 -0.604476
O15   O     O_3   0.684960 0.360550 0.588460 -0.485998
O16   O     O_2   0.841340 0.419819 0.672571 -0.476820
O17   O     O_3   0.037435 0.729506 0.623007 -0.629687
O18   O     O_3   0.677514 0.263607 0.678691 -0.591203
O19   O     O_2   0.841490 0.235060 0.476710 -0.467337
O20   O     O_3   0.099640 0.305100 0.564190 -0.494611
O21   O     O_2   0.012303 0.115780 0.531619 -0.481686
O22   O     O_3   0.113471 0.131960 0.624400 -0.613387
O23   O     O_2   0.282660 0.442310 0.382060 -0.453678
O24   O     O_3   0.050670 0.442340 0.442260 -0.501073
O25   O     O_3   0.504750 0.639360 0.411530 -0.465688
O26   O     O_3   0.148238 0.270649 0.375793 -0.630882
O27   O     O_3   0.618400 0.630290 0.524520 -0.477740
O28   O     O_3   0.090070 0.694820 0.435810 -0.464765
P1    P     P_3+3 0.072810 0.589830 0.610360 1.007409
P2    P     P_3+3 0.661990 0.251250 0.462170 0.969305
P3    P     P_3+3 0.143746 0.166770 0.565011 0.933772
P4    P     P_3+3 0.116900 0.410080 0.389630 0.989725
P5    P     P_3+3 0.048460 0.833889 0.433558 0.962318
P6    P     P_3+3 0.675392 0.385006 0.653429 0.978363
P7    P     P_3+3 0.533294 0.764493 0.539887 0.936566
P8    P     P_3+3 0.522097 0.625624 0.346640 0.983255

loop_
_geom_bond_atom_site_label_1
_geom_bond_atom_site_label_2
_ccdc_geom_bond_type
C59   H6    S    
Ba2   O24   S    
C19   C24   A    
C62   O10   D    
C57   H57   S    
C44   H48   S    
Ba1   P2    S    
Ba1   O19   S    
C1    H4    S    
C26   O14   D    
C6    P4    S    
C40   H12   S    
C16   H50   S    
O20   P3    S    
C28   H52   S    
C42   H41   S    
C54   C55   A    
C47   H46   S    
C24   C25   A    
C60   C61   S    
C45   O3    S    
O5    P2    S    
C17   C19   A    
C22   C24   A    
Ba1   Ba2   S    
C54   P5    S    
C52   H56   S    
C34   H13   S    
C40   H34   S    
C36   C37   A    
C10   C62   A    
C47   C51   A    
C28   H55   S    
C59   H5    S    
C29   H32   S    
C60   H25   S    
C16   H17   S    
C39   H38   S    
C2    N1    Am   
Ba1   P1    S    
C23   H10   S    
C45   H18   S    
C33   N2    S    
O6    P7    D    
C11   C38   A    
C17   C35   A    
C14   H43   S    
C45   C56   S    
C22   C27   A    
O19   P2    D    
C9    C13   A    
C25   C42   A    
C46   C49   A    
C58   H3    S    
C6    C7    D    
C44   C53   A    
Ba2   O6    S    
C21   C22   A    
O4    P1    S    
C4    H40   S    
O18   P6    S    
C23   O7    S    
O23   P4    D    
C32   N3    S    
C37   C43   A    
C59   H7    S    
Ba2   O23   S    
C46   C48   A    
C52   O17   S    
C58   H2    S    
Ba2   O28   S    
Ba1   O20   S    
C15   C31   D    
C32   C33   S    
C1    H16   S    
C56   H22   S    
C31   C32   D    
C3    H37   S    
C52   C57   S    
C51   C53   A    
C48   P3    S    
C57   H59   S    
C4    C16   S    
C5    P8    S    
O26   P4    S    
C49   P2    S    
C49   C50   A    
C17   C20   A    
C53   P7    S    
Ba1   O4    S    
C15   H44   S    
O1    P1    D    
C3    C5    S    
C18   C37   A    
C62   N1    Am   
C60   H24   S    
O8    P8    D    
C52   H45   S    
O27   P7    S    
C58   C59   S    
C23   H11   S    
C60   O9    S    
C9    C36   A    
C41   C42   A    
C35   C36   A    
C56   H20   S    
C4    O22   S    
O15   P6    S    
C28   O26   S    
C29   C30   S    
C12   O18   S    
Ba2   P4    S    
O25   P8    S    
Ba2   O5    S    
Ba1   O24   S    
C50   C51   A    
C18   C19   A    
Ba1   O27   S    
C13   C39   A    
C1    C12   S    
C5    C14   S    
C21   H33   S    
C11   H31   S    
Ba2   O27   S    
C45   H19   S    
C43   H42   S    
O9    P8    S    
C29   C33   D    
C44   C54   A    
O21   P3    D    
C56   H21   S    
O3    P5    S    
C18   C41   A    
C26   N2    Am   
C27   N2    Am   
C7    C8    S    
O12   P2    S    
Ba2   O25   S    
C20   H35   S    
O24   P4    S    
C12   H8    S    
Ba1   O1    S    
O16   P6    D    
Ba1   O5    S    
C34   H15   S    
O7    P7    S    
C16   H51   S    
C38   H36   S    
C9    C10   A    
C31   P1    S    
C35   C38   A    
C27   O11   D    
C61   H29   S    
C8    N1    S    
O17   P1    S    
C2    C13   A    
C3    C8    D    
C34   H14   S    
C2    O13   D    
C55   H47   S    
C57   H58   S    
C4    H28   S    
C61   H26   S    
Ba2   O4    S    
C12   H1    S    
O22   P3    S    
C1    H9    S    
C41   H39   S    
Ba1   O15   S    
C50   C55   A    
C23   C34   S    
O28   P5    S    
C10   C11   A    
C6    C14   D    
C47   C48   A    
C61   H27   S    
C25   C26   A    
C15   C30   S    
C39   C43   A    
C20   C21   A    
C28   C40   S    
H53   N3    S    
C40   H23   S    
H54   N3    S    
C7    H30   S    
O2    P5    D    
C58   O12   S    
C46   H49   S    
C30   P6    S    
