data_mof_unit_6227.cif
_audit_creation_date              2012-12-11T15:49:08-0500
_audit_creation_method            fapswitch 2.2
_symmetry_space_group_name_H-M    P1
_symmetry_Int_Tables_number       1
_space_group_crystal_system       monoclinic
_cell_length_a                    21.604595
_cell_length_b                    7.183552
_cell_length_c                    14.890229
_cell_angle_alpha                 90.0
_cell_angle_beta                  106.484332
_cell_angle_gamma                 90.0
_cell_volume                      2215.9444623

loop_
_atom_site_label
_atom_site_type_symbol
_atom_type_description
_atom_site_fract_x
_atom_site_fract_y
_atom_site_fract_z
_atom_type_partial_charge
O1    O     O_R   0.335860 0.638190 0.002110 -0.540995
O2    O     O_R   0.664140 0.361810 0.997890 -0.540924
O3    O     O_R   0.164140 0.138190 0.997890 -0.540995
O4    O     O_R   0.835860 0.861810 0.002110 -0.540924
O5    O     O_R   0.217530 0.305920 0.861960 -0.537113
O6    O     O_R   0.782470 0.694080 0.138040 -0.537238
O7    O     O_R   0.282470 0.805920 0.138040 -0.537113
O8    O     O_R   0.717530 0.194080 0.861960 -0.537238
C1    C     C_R   0.205624 0.476728 0.825862 0.698357
C2    C     C_R   0.794139 0.523312 0.174186 0.698338
C3    C     C_R   0.294375 0.976728 0.174138 0.698356
C4    C     C_R   0.705861 0.023312 0.825814 0.698338
O9    O     O_R   0.338690 0.308320 0.993240 -0.544679
O10   O     O_R   0.661310 0.691680 0.006760 -0.544708
O11   O     O_R   0.161310 0.808320 0.006760 -0.544679
O12   O     O_R   0.838690 0.191680 0.993240 -0.544708
O13   O     O_R   0.286170 0.140430 0.130100 -0.535225
O14   O     O_R   0.713830 0.859570 0.869900 -0.535162
O15   O     O_R   0.213830 0.640430 0.869900 -0.535226
O16   O     O_R   0.786170 0.359570 0.130100 -0.535161
C5    C     C_R   0.364958 0.477227 0.997791 0.671605
C6    C     C_R   0.635041 0.522772 0.002209 0.671520
C7    C     C_R   0.135042 0.977227 0.002209 0.671604
C8    C     C_R   0.864958 0.022772 0.997791 0.671521
O17   O     O_3   0.232630 0.472410 0.044750 -0.376105
O18   O     O_3   0.767370 0.527590 0.955250 -0.376110
O19   O     O_3   0.267370 0.972410 0.955250 -0.376105
O20   O     O_3   0.732630 0.027590 0.044750 -0.376111
V1    V     V_3+5 0.253220 0.196620 0.991700 1.408935
V2    V     V_3+5 0.746780 0.803380 0.008300 1.408477
V3    V     V_3+5 0.246780 0.696620 0.008300 1.408934
V4    V     V_3+5 0.753220 0.303380 0.991700 1.408477
C9    C     C_R   0.030025 0.826383 0.004193 -0.164307
C10   C     C_R   0.969975 0.173610 0.995804 -0.163481
C11   C     C_R   0.469975 0.326383 0.995807 -0.164307
C12   C     C_R   0.530025 0.673610 0.004196 -0.163481
H1    H     H_    0.051947 0.690086 0.007269 0.118013
H2    H     H_    0.948053 0.309907 0.992729 0.117904
H3    H     H_    0.448053 0.190086 0.992731 0.118014
H4    H     H_    0.551947 0.809907 0.007271 0.117904
C13   C     C_R   0.965018 0.837762 0.002573 -0.154958
C14   C     C_R   0.034982 0.162231 0.997426 -0.154270
C15   C     C_R   0.534982 0.337762 0.997427 -0.154958
C16   C     C_R   0.465018 0.662231 0.002574 -0.154270
H5    H     H_    0.939167 0.709469 0.004745 0.120843
H6    H     H_    0.060833 0.290525 0.995256 0.120740
H7    H     H_    0.560833 0.209468 0.995255 0.120842
H8    H     H_    0.439167 0.790525 0.004744 0.120741
C17   C     C_R   0.934000 0.011563 0.998335 -0.038391
C18   C     C_R   0.066000 0.988431 0.001663 -0.038524
C19   C     C_R   0.566000 0.511563 0.001665 -0.038391
C20   C     C_R   0.434000 0.488431 0.998337 -0.038524
C21   C     C_R   0.678292 0.016888 0.724172 -0.083485
C22   C     C_R   0.322009 0.984622 0.275715 -0.082536
C23   C     C_R   0.821708 0.516888 0.275828 -0.083485
C24   C     C_R   0.177991 0.484622 0.724284 -0.082536
C25   C     C_R   0.691945 0.034831 0.567635 0.313319
C26   C     C_R   0.308352 0.970440 0.432272 0.309184
C27   C     C_R   0.808055 0.534837 0.432365 0.313318
C28   C     C_R   0.191647 0.470436 0.567728 0.309185
C29   C     C_R   0.718106 0.031390 0.665696 -0.193806
C30   C     C_R   0.282265 0.969485 0.334227 -0.195549
C31   C     C_R   0.781894 0.531398 0.334303 -0.193806
C32   C     C_R   0.217734 0.469478 0.665773 -0.195548
C33   C     C_R   0.611689 0.005545 0.686818 -0.221542
C34   C     C_R   0.388525 0.000741 0.313023 -0.221091
C35   C     C_R   0.888311 0.505539 0.313182 -0.221543
C36   C     C_R   0.111475 0.500747 0.686977 -0.221091
C37   C     C_R   0.582307 0.017073 0.589302 0.047121
C38   C     C_R   0.417595 0.004873 0.410778 0.046937
C39   C     C_R   0.917693 0.517072 0.410698 0.047122
C40   C     C_R   0.082405 0.504876 0.589222 0.046936
C41   C     C_R   0.623329 0.033317 0.529570 0.055315
C42   C     C_R   0.376567 0.990270 0.470554 0.056747
C43   C     C_R   0.876671 0.533320 0.470430 0.055315
C44   C     C_R   0.123433 0.490268 0.529446 0.056748
C45   C     C_R   0.513455 0.013703 0.549717 0.082364
C46   C     C_R   0.486220 0.020289 0.450607 0.081738
C47   C     C_R   0.986545 0.513702 0.450282 0.082364
C48   C     C_R   0.013780 0.520291 0.549393 0.081738
C49   C     C_R   0.528467 0.045118 0.394576 -0.187732
C50   C     C_R   0.470844 0.007590 0.606122 -0.187226
C51   C     C_R   0.971533 0.545123 0.605423 -0.187732
C52   C     C_R   0.029156 0.507587 0.393878 -0.187226
C53   C     C_R   0.594856 0.052672 0.433034 -0.217361
C54   C     C_R   0.404516 0.998012 0.567610 -0.218604
C55   C     C_R   0.905144 0.552678 0.566966 -0.217361
C56   C     C_R   0.095483 0.498009 0.432390 -0.218604
H9    H     H_    0.623348 0.076872 0.385105 0.127388
H10   H     H_    0.375574 0.997549 0.616070 0.128004
H11   H     H_    0.876652 0.576881 0.614894 0.127388
H12   H     H_    0.124426 0.497544 0.383929 0.128004
H13   H     H_    0.416020 0.005525 0.263051 0.104073
H14   H     H_    0.584482 0.990277 0.736736 0.104624
H15   H     H_    0.083980 0.505538 0.736950 0.104073
H16   H     H_    0.915518 0.490262 0.263264 0.104624
H17   H     H_    0.230974 0.954063 0.301845 0.108309
H18   H     H_    0.769623 0.037860 0.698119 0.107184
H19   H     H_    0.269025 0.454052 0.698155 0.108310
H20   H     H_    0.730377 0.537873 0.301881 0.107183
H21   H     H_    0.511978 0.063265 0.319854 0.121881
H22   H     H_    0.486793 0.012816 0.681362 0.121388
H23   H     H_    0.988022 0.563271 0.680145 0.121880
H24   H     H_    0.013206 0.512813 0.318638 0.121388
N1    N     N_2   0.733224 0.040438 0.506918 -0.522384
H25   H     H_    0.717863 0.960964 0.447212 0.258379
C57   C     C_3   0.802772 0.035285 0.545827 -0.508789
H26   H     H_    0.825987 0.046687 0.488358 0.203046
H27   H     H_    0.817839 0.901660 0.583142 0.204850
H28   H     H_    0.819743 0.154367 0.593945 0.184182
N2    N     N_2   0.267451 0.949490 0.492846 -0.524100
H29   H     H_    0.284978 0.861473 0.548816 0.259382
C58   C     C_3   0.198100 0.934699 0.453848 -0.506079
H30   H     H_    0.174933 0.930431 0.511554 0.204526
H31   H     H_    0.185666 0.804729 0.412320 0.204738
H32   H     H_    0.178677 0.057169 0.409405 0.183066
N3    N     N_2   0.766776 0.540444 0.493082 -0.522384
H33   H     H_    0.782137 0.460972 0.552788 0.258377
C59   C     C_3   0.697228 0.535284 0.454173 -0.508793
H34   H     H_    0.674013 0.546684 0.511642 0.203046
H35   H     H_    0.682163 0.401657 0.416858 0.204852
H36   H     H_    0.680255 0.654363 0.406053 0.184182
N4    N     N_2   0.232548 0.449485 0.507154 -0.524100
H37   H     H_    0.215022 0.361467 0.451184 0.259383
C60   C     C_3   0.301900 0.434700 0.546152 -0.506078
H38   H     H_    0.325067 0.430434 0.488445 0.204526
H39   H     H_    0.314335 0.304731 0.587680 0.204738
H40   H     H_    0.321321 0.557172 0.590594 0.183067

loop_
_geom_bond_atom_site_label_1
_geom_bond_atom_site_label_2
_ccdc_geom_bond_type
O17   V3    S    
C51   C55   A    
C26   C30   A    
O18   V4    S    
C55   H11   S    
O19   V1    S    
O13   V1    S    
C37   C45   A    
C25   N1    S    
N2    H29   S    
C10   C14   A    
C40   C44   A    
O15   V3    S    
C39   C47   A    
N4    H37   S    
C49   H21   S    
C45   C46   A    
O1    C5    A    
N1    C57   S    
C51   H23   S    
O9    V1    S    
N3    C59   S    
C47   C52   A    
O4    C8    A    
N4    C60   S    
C38   C46   A    
C46   C49   A    
O1    V3    S    
O2    V4    S    
C14   H6    S    
C25   C41   A    
O3    V1    S    
O3    C7    A    
C38   C42   A    
C21   C29   A    
C1    O15   A    
C32   H19   S    
C56   H12   S    
C2    O16   A    
C23   C31   A    
O2    C6    A    
C60   H40   S    
C57   H26   S    
C24   C32   A    
C37   C41   A    
O14   V2    S    
C21   C33   A    
C44   C56   A    
C4    C21   S    
C36   C40   A    
C58   H32   S    
C16   C20   A    
O11   C7    A    
C27   N3    S    
C57   H27   S    
O10   V2    S    
C48   C51   A    
C13   C17   A    
O7    C3    A    
O5    V1    S    
C59   H35   S    
C36   H15   S    
O7    V3    S    
C26   N2    S    
O8    V4    S    
C12   H4    S    
C54   H10   S    
C53   H9    S    
C7    C18   S    
C22   C30   A    
C9    C18   A    
C50   C54   A    
C28   C44   A    
C9    H1    S    
C28   N4    S    
C11   H3    S    
O5    C1    A    
C31   H20   S    
C30   H17   S    
O8    C4    A    
C50   H22   S    
O9    C5    A    
N2    C58   S    
C1    C24   S    
C42   C54   A    
C25   C29   A    
C2    C23   S    
C3    C22   S    
C41   C53   A    
C12   C19   A    
C14   C18   A    
C34   H13   S    
C43   C55   A    
C33   H14   S    
O6    V2    S    
C35   H16   S    
C52   H24   S    
C57   H28   S    
C12   C16   A    
C27   C43   A    
C11   C15   A    
C26   C42   A    
C58   H30   S    
O16   V4    S    
C59   H36   S    
C8    C17   S    
C3    O13   A    
C10   C17   A    
C10   H2    S    
C52   C56   A    
O6    C2    A    
C23   C35   A    
C59   H34   S    
O11   V3    S    
C22   C34   A    
O12   V4    S    
N1    H25   S    
C34   C38   A    
C27   C31   A    
C28   C32   A    
C9    C13   A    
O10   C6    A    
O20   V2    S    
C40   C48   A    
C24   C36   A    
N3    H33   S    
C39   C43   A    
C29   H18   S    
C15   C19   A    
C60   H38   S    
C45   C50   A    
C33   C37   A    
C35   C39   A    
O4    V2    S    
C47   C48   A    
O12   C8    A    
C4    O14   A    
C11   C20   A    
C60   H39   S    
C13   H5    S    
C15   H7    S    
C5    C20   S    
C49   C53   A    
C16   H8    S    
C6    C19   S    
C58   H31   S    
