data_mof_unit_14313.cif
_audit_creation_date              2013-03-05T16:06:56-0500
_audit_creation_method            fapswitch 2.2
_symmetry_space_group_name_H-M    P1
_symmetry_Int_Tables_number       1
_space_group_crystal_system       triclinic
_cell_length_a                    14.439298
_cell_length_b                    16.283803
_cell_length_c                    6.939524
_cell_angle_alpha                 89.990975
_cell_angle_beta                  99.065095
_cell_angle_gamma                 90.054554
_cell_volume                      1611.28697115

loop_
_atom_site_label
_atom_site_type_symbol
_atom_site_description
_atom_site_fract_x
_atom_site_fract_y
_atom_site_fract_z
_atom_type_partial_charge
O1    O     O_R   0.584990 0.413650 0.534420 -0.600727
O2    O     O_R   0.584990 0.586350 0.534420 -0.589855
O3    O     O_R   0.596190 0.585230 0.208380 -0.566432
O4    O     O_R   0.596190 0.414770 0.208380 -0.564241
O5    O     O_R   0.415010 0.586420 0.976930 -0.611203
O6    O     O_R   0.415010 0.413580 0.976930 -0.609597
C1    C     C_R   0.616945 0.615762 0.383480 0.987968
C2    C     C_R   0.619696 0.386201 0.385331 0.986533
O7    O     O_3   0.440560 0.500000 0.319140 -0.289447
V1    V     V_3+5 0.511030 0.500000 0.068070 1.226655
O8    O     O_R   0.403810 0.414840 0.643540 -0.604284
O9    O     O_R   0.403810 0.585160 0.643540 -0.605772
C3    C     C_R   0.381509 0.385968 0.805680 1.020326
C4    C     C_R   0.381462 0.613991 0.805682 1.019907
V2    V     V_3+5 0.488970 0.500000 0.560620 1.193035
O10   O     O_3   0.559440 0.500000 0.859420 -0.233964
H1    H     H_    0.187691 0.805741 0.805768 0.157588
H2    H     H_    0.188563 0.193548 0.805961 0.162675
C5    C     C_2   0.312139 0.681755 0.796023 -0.474997
C6    C     C_2   0.312350 0.318040 0.796042 -0.470188
C7    C     C_2   0.287473 0.715462 0.958819 -0.063013
C8    C     C_2   0.287922 0.284226 0.958921 -0.074232
C9    C     C_2   0.194473 0.817902 0.111547 -0.469265
C10   C     C_2   0.194784 0.181912 0.111709 -0.460477
C11   C     C_2   0.218788 0.783545 0.949123 -0.032330
C12   C     C_2   0.219435 0.215972 0.949290 -0.005394
C13   C     C_R   0.751307 0.691454 0.585161 0.126648
C14   C     C_R   0.759221 0.312607 0.586099 0.102261
C15   C     C_R   0.686163 0.684595 0.414003 -0.216165
C16   C     C_R   0.690600 0.318503 0.417445 -0.218856
C17   C     C_R   0.692872 0.743766 0.267875 -0.115841
C18   C     C_R   0.694442 0.258361 0.271571 -0.106795
H3    H     H_    0.644574 0.741595 0.132148 0.100238
H4    H     H_    0.645096 0.260712 0.137153 0.098129
C19   C     C_R   0.758333 0.809299 0.300465 -0.091112
C20   C     C_R   0.758041 0.191600 0.302037 -0.099573
H5    H     H_    0.758383 0.855604 0.188714 0.108096
H6    H     H_    0.756372 0.145297 0.189761 0.105301
C21   C     C_R   0.819345 0.817399 0.480002 -0.219028
C22   C     C_R   0.819463 0.182474 0.480064 -0.221027
C23   C     C_R   0.817179 0.754344 0.615518 0.069255
C24   C     C_R   0.819457 0.245340 0.615773 0.114069
C25   C     C_3   0.814892 0.756861 0.829532 0.032656
C26   C     C_3   0.819107 0.240881 0.829344 0.042097
C27   C     C_3   0.739497 0.689504 0.795151 0.024315
C28   C     C_3   0.754988 0.316444 0.801795 0.010979
O11   O     O_R   0.921430 0.915960 0.371040 -0.561682
O12   O     O_R   0.921430 0.084040 0.371040 -0.573098
O13   O     O_R   0.910450 0.087500 0.697310 -0.601757
O14   O     O_R   0.910450 0.912500 0.697310 -0.607958
O15   O     O_R   0.091710 0.087460 0.928430 -0.594058
O16   O     O_R   0.091710 0.912540 0.928430 -0.604751
C29   C     C_R   0.886468 0.112889 0.518242 0.967403
C30   C     C_R   0.887062 0.886569 0.518620 0.952196
O17   O     O_3   0.065970 0.000000 0.586140 -0.290666
V3    V     V_3+5 0.995640 1.000000 0.837400 1.198946
O18   O     O_R   0.103020 0.915700 0.261710 -0.598113
O19   O     O_R   0.103020 0.084300 0.261710 -0.603225
C31   C     C_R   0.125392 0.885925 0.100409 1.081465
C32   C     C_R   0.125464 0.114026 0.100455 1.076306
V4    V     V_3+5 0.017940 1.000000 0.344880 1.202745
O20   O     O_3   0.947330 0.000000 0.046180 -0.280743
N1    N     N_R   0.767054 0.610452 0.884393 0.307264
O21   O     O_R   0.750069 0.544261 0.780568 -0.312970
O22   O     O_R   0.788438 0.604248 0.072986 -0.291989
N2    N     N_R   0.800481 0.389611 0.895588 0.315145
O23   O     O_R   0.874962 0.420269 0.838121 -0.243445
O24   O     O_R   0.777049 0.414983 0.058885 -0.288797
H7    H     H_    0.318409 0.692937 0.101972 0.152616
H8    H     H_    0.318842 0.306830 0.102044 0.153735
H9    H     H_    0.225463 0.795291 0.254560 0.148221
H10   H     H_    0.225544 0.204747 0.254693 0.145235
H11   H     H_    0.281255 0.704824 0.653359 0.159919
H12   H     H_    0.281444 0.294912 0.653412 0.160486
H13   H     H_    0.788782 0.816272 0.878427 0.053696
H14   H     H_    0.784649 0.184423 0.873491 0.029963
N3    N     N_R   0.904548 0.731096 0.942866 0.288006
O25   O     O_R   0.953848 0.672451 0.881524 -0.302395
O26   O     O_R   0.938586 0.770855 0.100635 -0.376621
N4    N     N_R   0.912219 0.255260 0.943817 0.290937
O27   O     O_R   0.986885 0.258170 0.860461 -0.358024
O28   O     O_R   0.921271 0.262012 0.132503 -0.341648
H15   H     H_    0.668529 0.709356 0.818465 0.022822
H16   H     H_    0.683315 0.305901 0.836144 0.049918

loop_
_geom_bond_atom_site_label_1
_geom_bond_atom_site_label_2
_geom_bond_distance
_ccdc_geom_bond_type
N2    O24   1.300216 A    
O17   V3    2.151619 S    
N1    O22   1.300405 A    
C1    C15   1.493773 S    
C13   C15   1.398500 A    
O1    C2    1.298180 A    
O2    C1    1.300442 A    
H2    C12   1.086933 S    
O4    C2    1.307015 A    
C26   N4    1.468452 S    
C21   C23   1.395901 A    
N3    O25   1.302615 A    
C9    C31   1.485146 S    
C14   C28   1.508972 S    
O14   C30   1.303051 A    
C18   C20   1.417927 A    
C5    C7    1.353423 D    
C10   C12   1.352976 D    
C28   N2    1.462417 S    
O3    C1    1.303324 A    
O18   C31   1.306443 A    
C21   C30   1.487260 S    
O19   C32   1.305898 A    
V2    O10   2.161029 S    
O15   V3    2.017922 S    
C14   C24   1.394287 A    
C26   H14   1.110723 S    
O8    V2    1.996407 S    
C17   H3    1.080615 S    
O1    V2    2.003921 S    
O7    V1    2.151666 S    
C13   C27   1.493942 S    
O19   V4    1.986618 S    
C22   C24   1.391110 A    
N2    O23   1.303426 A    
C23   C25   1.491278 S    
C27   H15   1.110697 S    
C24   C26   1.484653 S    
C26   C28   1.534295 S    
N3    O26   1.299792 A    
C25   H13   1.110996 S    
O12   C29   1.296967 A    
C9    H9    1.086738 S    
C20   C22   1.410622 A    
N4    O28   1.299916 A    
C27   N1    1.456714 S    
O14   V3    2.026974 S    
C7    H7    1.086877 S    
C18   H4    1.081600 S    
C19   C21   1.414124 A    
O11   V4    1.980827 S    
O16   C31   1.290751 A    
C13   C23   1.390287 A    
O9    V2    1.998158 S    
C5    H11   1.086830 S    
C10   C32   1.484333 S    
C6    H12   1.086857 S    
O2    V2    2.002026 S    
C25   C27   1.536577 S    
O5    C4    1.291247 A    
O11   C30   1.297582 A    
C28   H16   1.111180 S    
O9    C4    1.305926 A    
V3    O20   1.704166 S    
O4    V1    2.002955 S    
C10   H10   1.086748 S    
C7    C11   1.482651 S    
C3    C6    1.483948 S    
C19   H5    1.081631 S    
C4    C5    1.484929 S    
C6    C8    1.352870 D    
N4    O27   1.302159 A    
O6    V1    2.005712 S    
O18   V4    1.988360 S    
C25   N3    1.466488 S    
O13   V3    2.028405 S    
H1    C11   1.086902 S    
C14   C16   1.412616 A    
O7    V2    1.711041 S    
C2    C16   1.497755 S    
O5    V1    2.007423 S    
C15   C17   1.412996 A    
O3    V1    2.001543 S    
V1    O10   1.704126 S    
O6    C3    1.291138 A    
C16   C18   1.415989 A    
O8    C3    1.305552 A    
O12   V4    1.982698 S    
O13   C29   1.303656 A    
O17   V4    1.708254 S    
C20   H6    1.081843 S    
C17   C19   1.419195 A    
C9    C11   1.353510 D    
V4    O20   2.161064 S    
N1    O21   1.298088 A    
C22   C29   1.487084 S    
C8    C12   1.481472 S    
O15   C32   1.290808 A    
C8    H8    1.086894 S    
O16   V3    2.019646 S    
