data_mof_unit_58899.cif
_audit_creation_date              2013-03-05T16:02:29-0500
_audit_creation_method            fapswitch 2.2
_symmetry_space_group_name_H-M    P1
_symmetry_Int_Tables_number       1
_space_group_crystal_system       triclinic
_cell_length_a                    16.520993
_cell_length_b                    7.257942
_cell_length_c                    15.291641
_cell_angle_alpha                 90.000417
_cell_angle_beta                  94.622072
_cell_angle_gamma                 90.004454
_cell_volume                      1827.63331608

loop_
_atom_site_label
_atom_site_type_symbol
_atom_site_description
_atom_site_fract_x
_atom_site_fract_y
_atom_site_fract_z
_atom_type_partial_charge
O1    O     O_R   0.663460 0.361760 0.165970 -0.591590
O2    O     O_R   0.336540 0.638240 0.834030 -0.591571
O3    O     O_R   0.836540 0.861760 0.334030 -0.591739
O4    O     O_R   0.163460 0.138240 0.665970 -0.591739
O5    O     O_R   0.827100 0.689870 0.163730 -0.566232
O6    O     O_R   0.172900 0.310130 0.836270 -0.566229
O7    O     O_R   0.672900 0.189870 0.336270 -0.566312
O8    O     O_R   0.327100 0.810130 0.663730 -0.566275
H1    H     H_    0.204517 0.854390 0.504699 0.111114
H2    H     H_    0.795478 0.145593 0.495300 0.111108
H3    H     H_    0.295199 0.356446 0.995333 0.110508
H4    H     H_    0.704811 0.643497 0.004667 0.110486
C1    C     C_R   0.853169 0.522901 0.143486 0.959605
C2    C     C_R   0.146831 0.477099 0.856514 0.959600
C3    C     C_R   0.646834 0.022896 0.356518 0.959788
C4    C     C_R   0.353165 0.977104 0.643482 0.959796
O9    O     O_R   0.663490 0.691370 0.155500 -0.569297
O10   O     O_R   0.336510 0.308630 0.844500 -0.569319
O11   O     O_R   0.836510 0.191370 0.344500 -0.569336
O12   O     O_R   0.163490 0.808630 0.655500 -0.569343
O13   O     O_R   0.671770 0.863320 0.325740 -0.544172
O14   O     O_R   0.328230 0.136680 0.674260 -0.544180
O15   O     O_R   0.828230 0.363320 0.174260 -0.544256
O16   O     O_R   0.171770 0.636680 0.825740 -0.544257
C5    C     C_R   0.635204 0.523569 0.134795 0.959875
C6    C     C_R   0.364795 0.476431 0.865206 0.959880
C7    C     C_R   0.864761 0.023581 0.365252 0.959630
C8    C     C_R   0.135238 0.976419 0.634749 0.959636
H5    H     H_    0.123497 0.851890 0.235762 0.161206
H6    H     H_    0.876494 0.148101 0.764237 0.161210
H7    H     H_    0.376041 0.354911 0.264330 0.161045
H8    H     H_    0.623969 0.645049 0.735669 0.161036
O17   O     O_3   0.752910 0.528800 0.305860 -0.277964
O18   O     O_3   0.247090 0.471200 0.694140 -0.277956
O19   O     O_3   0.747090 0.028800 0.194140 -0.277850
O20   O     O_3   0.252910 0.971200 0.805860 -0.277855
V1    V     V_3+5 0.749460 0.803010 0.239640 1.265987
V2    V     V_3+5 0.250540 0.196990 0.760360 1.265979
V3    V     V_3+5 0.750540 0.303010 0.260360 1.265926
V4    V     V_3+5 0.249460 0.696990 0.739640 1.265941
C9    C     C_1   0.468773 0.994828 0.530067 0.098035
C10   C     C_1   0.531226 0.005173 0.469931 0.098035
C11   C     C_1   0.031225 0.494816 0.969931 0.098071
C12   C     C_1   0.968775 0.505183 0.030069 0.098067
H9    H     H_    0.772706 0.214506 0.645343 0.149702
H10   H     H_    0.227286 0.785468 0.354656 0.149703
H11   H     H_    0.727881 0.710825 0.854540 0.149801
H12   H     H_    0.272137 0.289085 0.145459 0.149800
C13   C     C_R   0.033802 0.944062 0.321127 0.318548
C14   C     C_R   0.966193 0.055940 0.678874 0.318546
C15   C     C_R   0.466006 0.445346 0.178912 0.318773
C16   C     C_R   0.533997 0.554657 0.821088 0.318780
C17   C     C_R   0.109103 0.871508 0.303002 -0.180744
C18   C     C_R   0.890891 0.128481 0.696998 -0.180741
C19   C     C_R   0.390506 0.373942 0.197075 -0.180592
C20   C     C_R   0.609505 0.626022 0.802925 -0.180587
C21   C     C_R   0.168505 0.836683 0.369949 -0.162673
C22   C     C_R   0.831488 0.163299 0.630051 -0.162689
C23   C     C_R   0.331054 0.339439 0.130141 -0.162971
C24   C     C_R   0.668959 0.660499 0.869858 -0.162988
C25   C     C_R   0.154328 0.876539 0.456083 -0.167185
C26   C     C_R   0.845668 0.123448 0.543918 -0.167173
C27   C     C_R   0.345396 0.378426 0.043968 -0.166676
C28   C     C_R   0.654613 0.621530 0.956031 -0.166650
C29   C     C_R   0.077743 0.941265 0.478411 0.102970
C30   C     C_R   0.922253 0.058729 0.521590 0.102969
C31   C     C_R   0.422136 0.442154 0.021615 0.103242
C32   C     C_R   0.577868 0.557829 0.978383 0.103239
C33   C     C_R   0.014409 0.967524 0.410168 -0.032466
C34   C     C_R   0.985588 0.032474 0.589834 -0.032474
C35   C     C_R   0.485484 0.468227 0.089864 -0.032905
C36   C     C_R   0.514518 0.531770 0.910135 -0.032927
C37   C     C_R   0.064731 0.981508 0.567210 -0.251852
C38   C     C_R   0.935266 0.018491 0.432792 -0.251849
C39   C     C_R   0.435275 0.481595 0.932774 -0.252115
C40   C     C_R   0.564726 0.518403 0.067224 -0.252091
C41   C     C_1   0.415878 0.986310 0.581357 -0.174052
C42   C     C_1   0.584120 0.013691 0.418642 -0.174090
C43   C     C_1   0.084118 0.486290 0.918639 -0.174285
C44   C     C_1   0.915882 0.513710 0.081361 -0.174298
N1    N     N_R   0.983969 0.017361 0.248429 0.215641
O21   O     O_R   0.973574 0.194760 0.243656 -0.415430
O22   O     O_R   0.970632 0.919688 0.177403 -0.408359
N2    N     N_R   0.016033 0.982674 0.751577 0.215643
O23   O     O_R   0.026440 0.805279 0.756360 -0.415426
O24   O     O_R   0.029358 0.080362 0.822599 -0.408368
N3    N     N_R   0.516049 0.517992 0.251591 0.215456
O25   O     O_R   0.529469 0.419778 0.322436 -0.408371
O26   O     O_R   0.526525 0.695339 0.256638 -0.415485
N4    N     N_R   0.483942 0.482078 0.748405 0.215446
O27   O     O_R   0.470506 0.580362 0.677581 -0.408367
O28   O     O_R   0.473465 0.304734 0.743315 -0.415475

loop_
_geom_bond_atom_site_label_1
_geom_bond_atom_site_label_2
_geom_bond_distance
_ccdc_geom_bond_type
C22   C26   1.386749 A    
N3    O25   1.300867 A    
C19   C23   1.383107 A    
C9    C10   1.438307 S    
C16   N4    1.431243 S    
O10   C6    1.333394 A    
N1    O21   1.300237 A    
C14   N2    1.431522 S    
H6    C18   1.083260 S    
O17   V3    1.779546 S    
C2    O16   1.328117 A    
H1    C25   1.080158 S    
C28   C32   1.417002 A    
O19   V1    1.779559 S    
N2    O24   1.300803 A    
H3    C27   1.080218 S    
C9    C41   1.221908 T    
C35   C40   1.428056 A    
H4    C28   1.080232 S    
C29   C33   1.429760 A    
C3    C42   1.462549 S    
O5    V1    1.976651 S    
C11   C43   1.221914 T    
C30   C38   1.422094 A    
C29   C37   1.422102 A    
C1    O15   1.328116 A    
C4    C41   1.462548 S    
C13   N1    1.431510 S    
N1    O22   1.300823 A    
H11   C24   1.082852 S    
C31   C35   1.429779 A    
O6    V2    1.976651 S    
C7    C38   1.493646 S    
O11   C7    1.333343 A    
O5    C1    1.330961 A    
O7    C3    1.330936 A    
C1    C44   1.462554 S    
O8    C4    1.330938 A    
C13   C33   1.433830 A    
O1    C5    1.337395 A    
H2    C26   1.080170 S    
C15   C35   1.433849 A    
C36   C39   1.428065 A    
C8    C37   1.493653 S    
O4    C8    1.337452 A    
C27   C31   1.417001 A    
H9    C22   1.082852 S    
C26   C30   1.416983 A    
C12   C44   1.221913 T    
N2    O23   1.300249 A    
C15   N3    1.431281 S    
C17   C21   1.383173 A    
O9    V1    2.008620 S    
O12   C8    1.333343 A    
C20   C24   1.383092 A    
C11   C12   1.438316 S    
C16   C36   1.433857 A    
C25   C29   1.416987 A    
O6    C2    1.330962 A    
N4    O28   1.300217 A    
O12   V4    2.008717 S    
C32   C36   1.429773 A    
C34   C37   1.427985 A    
C6    C39   1.493611 S    
C33   C38   1.427977 A    
O2    C6    1.337399 A    
C14   C18   1.399065 A    
C2    C43   1.462553 S    
O11   V3    2.008718 S    
O4    V2    2.000024 S    
C10   C42   1.221908 T    
N3    O26   1.300205 A    
H10   C21   1.082853 S    
O18   V4    1.779544 S    
C31   C39   1.422030 A    
H12   C23   1.082850 S    
C18   C22   1.383170 A    
C4    O14   1.328131 A    
C21   C25   1.386752 A    
C32   C40   1.422020 A    
C23   C27   1.386694 A    
C24   C28   1.386695 A    
C5    C40   1.493606 S    
O9    C5    1.333396 A    
O3    C7    1.337450 A    
C14   C34   1.433833 A    
N4    O27   1.300912 A    
C30   C34   1.429765 A    
H5    C17   1.083262 S    
C13   C17   1.399075 A    
O20   V2    1.779560 S    
O16   V4    1.960804 S    
H8    C20   1.083277 S    
C15   C19   1.399042 A    
O10   V2    2.008621 S    
O1    V3    2.000078 S    
O2    V4    2.000078 S    
C3    O13   1.328132 A    
O13   V1    1.960846 S    
O3    V1    2.000025 S    
O7    V3    1.976576 S    
O8    V4    1.976573 S    
H7    C19   1.083269 S    
O15   V3    1.960806 S    
C16   C20   1.399043 A    
O14   V2    1.960846 S    
