data_mof_unit_30064.cif
_audit_creation_date              2012-12-10T19:46:52-0500
_audit_creation_method            fapswitch 2.2
_symmetry_space_group_name_H-M    P1
_symmetry_Int_Tables_number       1
_space_group_crystal_system       triclinic
_cell_length_a                    10.918865
_cell_length_b                    10.951828
_cell_length_c                    13.090503
_cell_angle_alpha                 91.041069
_cell_angle_beta                  91.179309
_cell_angle_gamma                 90.189508
_cell_volume                      1564.78186129

loop_
_atom_site_label
_atom_site_type_symbol
_atom_type_description
_atom_site_fract_x
_atom_site_fract_y
_atom_site_fract_z
_atom_type_partial_charge
C1    C     C_R   0.497273 0.259476 0.498857 0.876391
C2    C     C_R   0.502729 0.740523 0.501143 0.876394
C3    C     C_R   0.873052 0.506922 0.503632 -0.113826
C4    C     C_R   0.126948 0.493087 0.496368 -0.113831
C5    C     C_R   0.942693 0.509047 0.595794 0.007426
C6    C     C_R   0.057307 0.490963 0.404206 0.007431
C7    C     C_R   0.554933 0.166706 0.138488 0.030794
C8    C     C_R   0.445064 0.833294 0.861515 0.030799
C9    C     C_R   0.510636 0.116581 0.229417 0.129657
C10   C     C_R   0.489367 0.883418 0.770587 0.129656
C11   C     C_R   0.585019 0.120825 0.318937 0.035229
C12   C     C_R   0.414987 0.879174 0.681064 0.035224
C13   C     C_R   0.700744 0.176440 0.317678 -0.277117
C14   C     C_R   0.299260 0.823560 0.682320 -0.277101
C15   C     C_R   0.744265 0.227635 0.228164 0.100466
C16   C     C_R   0.255735 0.772366 0.771831 0.100458
C17   C     C_R   0.670964 0.222740 0.138523 0.548577
C18   C     C_R   0.329032 0.777259 0.861475 0.548563
C19   C     C_R   0.550499 0.933443 0.417928 0.127802
C20   C     C_R   0.449509 0.066557 0.582074 0.127801
C21   C     C_R   0.503737 0.873050 0.502850 -0.157189
C22   C     C_R   0.496269 0.126950 0.497152 -0.157191
C23   C     C_R   0.259461 0.494034 0.498541 0.826820
C24   C     C_R   0.740539 0.505969 0.501459 0.826825
C25   C     C_R   0.456107 0.939426 0.586626 -0.021735
C26   C     C_R   0.543902 0.060574 0.413377 -0.021729
C27   C     C_1   0.499960 0.500106 0.173504 0.174404
C28   C     C_1   0.500040 0.499894 0.826496 0.174399
C29   C     C_1   0.499947 0.500120 0.050709 -0.026464
C30   C     C_1   0.500054 0.499881 0.949291 -0.026467
C31   C     C_R   0.118602 0.538342 0.124540 -0.050177
C32   C     C_R   0.881357 0.461628 0.875443 -0.050173
C33   C     C_R   0.088701 0.562308 0.226257 -0.221308
C34   C     C_R   0.911266 0.437681 0.773726 -0.221302
C35   C     C_R   0.109111 0.473783 0.301079 0.147753
C36   C     C_R   0.890886 0.526217 0.698922 0.147737
C37   C     C_R   0.162380 0.361876 0.272940 -0.135036
C38   C     C_R   0.837645 0.638120 0.727080 -0.135063
C39   C     C_R   0.191694 0.337886 0.170997 -0.228352
C40   C     C_R   0.808323 0.662091 0.829024 -0.228353
C41   C     C_R   0.167960 0.425359 0.096169 0.225228
C42   C     C_R   0.832022 0.574604 0.903833 0.225209
C43   C     C_R   0.931056 0.499681 0.409507 -0.214710
C44   C     C_R   0.068944 0.500332 0.590493 -0.214701
Cu1   Cu    Cu3+1 0.499990 0.499990 0.592680 0.997337
Cu2   Cu    Cu3+1 0.500010 0.500010 0.407320 0.997336
H1    H     H_    0.757741 0.179032 0.386463 0.165351
H2    H     H_    0.242265 0.820970 0.613533 0.165352
H3    H     H_    0.099849 0.606245 0.067233 0.179692
H4    H     H_    0.900094 0.393718 0.932739 0.179734
H5    H     H_    0.045925 0.648348 0.246228 0.139591
H6    H     H_    0.954024 0.351645 0.753741 0.139601
H7    H     H_    0.176458 0.291572 0.329087 0.117162
H8    H     H_    0.823592 0.708432 0.670948 0.117180
H9    H     H_    0.229510 0.250197 0.149472 0.143555
H10   H     H_    0.770525 0.749774 0.850563 0.143562
H11   H     H_    0.877323 0.497870 0.338884 0.192145
H12   H     H_    0.122677 0.502145 0.661116 0.192149
N1    N     N_1   0.500030 0.500030 0.268070 -0.135914
N2    N     N_1   0.499970 0.499970 0.731930 -0.135914
O1    O     O_R   0.499980 0.319630 0.578260 -0.547295
O2    O     O_R   0.500020 0.680370 0.421740 -0.547297
O3    O     O_R   0.500000 0.319650 0.421740 -0.590713
O4    O     O_R   0.500000 0.680350 0.578260 -0.590713
O5    O     O_R   0.319630 0.500000 0.578260 -0.575349
O6    O     O_R   0.680370 0.500000 0.421740 -0.575349
O7    O     O_R   0.319650 0.500020 0.421740 -0.579010
O8    O     O_R   0.680350 0.499980 0.578260 -0.579008
N3    N     N_3   0.189484 0.398661 0.990737 -0.580228
H13   H     H_    0.134624 0.323885 0.968808 0.205821
H14   H     H_    0.280566 0.371633 0.983931 0.222047
N4    N     N_3   0.810490 0.601279 0.009267 -0.580206
H15   H     H_    0.865415 0.675989 0.031228 0.205809
H16   H     H_    0.719435 0.628389 0.016068 0.222037
N5    N     N_3   0.863697 0.282824 0.229939 -0.583522
H17   H     H_    0.882448 0.322431 0.159917 0.275077
H18   H     H_    0.927773 0.213239 0.240518 0.212926
N6    N     N_3   0.136300 0.717184 0.770053 -0.583536
H19   H     H_    0.117553 0.677562 0.840070 0.275075
H20   H     H_    0.072229 0.786775 0.759491 0.212929
N7    N     N_3   0.610042 0.864733 0.338469 -0.570607
H21   H     H_    0.699211 0.898011 0.330974 0.208854
H22   H     H_    0.561925 0.875488 0.269449 0.252163
N8    N     N_3   0.389966 0.135267 0.661534 -0.570601
H23   H     H_    0.300796 0.101989 0.669028 0.208855
H24   H     H_    0.438083 0.124510 0.730554 0.252165
F1    F     F_    0.712302 0.270835 0.050672 -0.699933
F2    F     F_    0.287688 0.729166 0.949325 -0.699935
N9    N     N_3   0.483042 0.159042 0.045756 -0.609475
H25   H     H_    0.467316 0.247496 0.020367 0.239734
H26   H     H_    0.534286 0.113186 0.990532 0.262584
N10   N     N_3   0.516949 0.840963 0.954250 -0.609471
H27   H     H_    0.465700 0.886822 0.009470 0.262582
H28   H     H_    0.532672 0.752509 0.979644 0.239735
N11   N     N_3   0.392203 0.058674 0.232554 -0.586076
H29   H     H_    0.336563 0.113495 0.278313 0.209620
H30   H     H_    0.349986 0.052788 0.160375 0.249809
N12   N     N_3   0.607800 0.941328 0.767455 -0.586074
H31   H     H_    0.663441 0.886513 0.721693 0.209623
H32   H     H_    0.650016 0.947206 0.839635 0.249812

loop_
_geom_bond_atom_site_label_1
_geom_bond_atom_site_label_2
_ccdc_geom_bond_type
C15   N5    S    
Cu1   N2    S    
Cu2   N1    S    
C27   C29   S    
N11   H29   S    
N7    H21   S    
C39   C41   A    
Cu1   Cu2   S    
C3    C43   A    
Cu2   O2    S    
C19   C21   A    
C31   H3    S    
Cu2   O6    S    
N6    H20   S    
C20   C25   A    
C7    N9    S    
C5    C36   S    
C6    C35   S    
N3    H14   S    
C23   O7    A    
C10   N12   S    
C19   C26   A    
C39   H9    S    
C44   H12   S    
C40   H10   S    
C31   C33   A    
C8    N10   S    
N9    H26   S    
C9    N11   S    
C16   N6    S    
C24   O6    A    
C37   H7    S    
Cu1   O1    S    
C40   C42   A    
C1    C22   S    
C3    C24   S    
C2    C21   S    
C1    O3    A    
N10   H28   S    
N7    H22   S    
C2    O4    A    
C28   N2    T    
N8    H23   S    
N4    H16   S    
C13   H1    S    
C4    C23   S    
C24   O8    A    
N6    H19   S    
C14   H2    S    
C4    C44   A    
C11   C26   S    
C7    C17   A    
C20   N8    S    
C18   F2    S    
C32   C34   A    
N5    H17   S    
C29   C30   T    
N5    H18   S    
C38   H8    S    
Cu1   O8    S    
C42   N4    S    
C16   C18   A    
C9    C11   A    
C32   H4    S    
C10   C12   A    
C4    C6    A    
C5    C44   A    
C20   C22   A    
N12   H32   S    
C6    C43   A    
C13   C15   A    
Cu1   O5    S    
C14   C16   A    
C41   N3    S    
C15   C17   A    
C21   C25   A    
C31   C41   A    
C35   C37   A    
C17   F1    S    
N8    H24   S    
N4    H15   S    
C3    C5    A    
C1    O1    A    
N11   H30   S    
C33   H5    S    
C12   C25   S    
Cu1   O4    S    
C34   H6    S    
Cu2   O3    S    
C23   O5    A    
C36   C38   A    
C12   C14   A    
Cu2   O7    S    
C37   C39   A    
C27   N1    T    
C38   C40   A    
C11   C13   A    
C28   C30   S    
N10   H27   S    
C33   C35   A    
C34   C36   A    
N3    H13   S    
C8    C18   A    
C43   H11   S    
C7    C9    A    
C8    C10   A    
N12   H31   S    
C22   C26   A    
C32   C42   A    
N9    H25   S    
C19   N7    S    
C2    O2    A    
