data_mof_unit_65571.cif
_audit_creation_date              2012-12-10T16:49:19-0500
_audit_creation_method            fapswitch 2.2
_symmetry_space_group_name_H-M    P1
_symmetry_Int_Tables_number       1
_space_group_crystal_system       triclinic
_cell_length_a                    19.041406
_cell_length_b                    18.845352
_cell_length_c                    18.982997
_cell_angle_alpha                 109.105856
_cell_angle_beta                  110.539879
_cell_angle_gamma                 109.283006
_cell_volume                      5209.47168441

loop_
_atom_site_label
_atom_site_type_symbol
_atom_type_description
_atom_site_fract_x
_atom_site_fract_y
_atom_site_fract_z
_atom_type_partial_charge
C1    C     C_R   0.614340 0.617950 0.497260 0.877008
C2    C     C_3   0.191296 0.416632 0.190956 -0.161425
C3    C     C_3   0.218630 0.458526 0.288070 -0.151017
C4    C     C_3   0.313840 0.498808 0.312384 0.025307
C5    C     C_2   0.742626 0.750075 0.425594 -0.270169
C6    C     C_2   0.819232 0.811173 0.497705 -0.387631
C7    C     C_2   0.684753 0.673544 0.424120 0.479814
C8    C     C_2   0.672844 0.686781 0.492200 -0.403429
C9    C     C_2   0.827583 0.508031 0.754724 -0.158337
C10   C     C_2   0.818068 0.492111 0.815583 -0.314933
C11   C     C_2   0.753923 0.495883 0.681041 -0.155111
C12   C     C_R   0.381279 0.499593 0.380773 0.785516
C13   C     C_2   0.692523 0.510468 0.690256 -0.311925
C14   C     C_2   0.258236 0.250594 0.574543 -0.155022
C15   C     C_2   0.181029 0.189274 0.502787 -0.317719
C16   C     C_2   0.318859 0.323428 0.574396 -0.155673
C17   C     C_2   0.322812 0.312611 0.502779 -0.316565
C18   C     C_R   0.011428 0.617820 0.128028 0.840148
C19   C     C_R   0.125841 0.499638 0.125454 0.777605
C20   C     C_R   0.005410 0.381832 0.888533 0.845353
C21   C     C_R   0.887603 0.498073 0.886219 0.851190
C22   C     C_R   0.000709 0.119056 0.616676 0.847195
C23   C     C_R   0.384489 0.381911 0.501397 0.845150
C24   C     C_R   0.882806 0.881419 0.499202 0.880195
C25   C     C_R   0.996749 0.878414 0.383033 0.817374
C26   C     C_R   0.117249 0.119243 0.501480 0.849807
C27   C     C_2   0.023192 0.757898 0.333232 -0.216590
C28   C     C_2   0.979348 0.798752 0.313447 -0.080279
C29   C     C_2   0.009655 0.679190 0.265497 0.091612
C30   C     C_2   0.025107 0.687465 0.203691 -0.358500
C31   C     C_2   0.990192 0.249421 0.677534 -0.156248
C32   C     C_2   0.007305 0.188392 0.686351 -0.312878
C33   C     C_2   0.004955 0.322315 0.752642 -0.155020
C34   C     C_R   0.621101 0.502685 0.619844 0.842003
C35   C     C_2   0.996353 0.312611 0.816612 -0.312808
C36   C     C_3   0.315985 0.581321 0.313731 -0.150452
C37   C     C_3   0.219634 0.540979 0.288299 -0.154178
C38   C     C_3   0.193449 0.499170 0.192397 0.023386
C39   C     C_3   0.288753 0.539504 0.216788 -0.157414
C40   C     C_3   0.287594 0.456926 0.216397 -0.159933
Cu1   Cu    Cu3+1 0.500860 0.438990 0.439830 0.960880
Cu2   Cu    Cu3+1 0.499140 0.561010 0.560170 0.942720
Cu3   Cu    Cu3+1 0.946020 0.438950 0.007030 0.933645
Cu4   Cu    Cu3+1 0.068040 0.560950 0.006980 0.941478
Cu5   Cu    Cu3+1 0.938110 1.000000 0.438130 0.935119
Cu6   Cu    Cu3+1 0.061890 0.000000 0.561870 0.937453
H1    H     H_    0.190364 0.575352 0.316259 0.120897
H2    H     H_    0.704129 0.752594 0.545368 0.126276
H3    H     H_    0.888469 0.525003 0.755855 0.158617
H4    H     H_    0.754711 0.465986 0.809278 0.153489
H5    H     H_    0.752766 0.479153 0.620021 0.159826
H6    H     H_    0.698650 0.536379 0.753664 0.151841
H7    H     H_    0.275149 0.250362 0.635363 0.161610
H8    H     H_    0.160162 0.194810 0.444693 0.151303
H9    H     H_    0.363605 0.385035 0.634901 0.160909
H10   H     H_    0.284979 0.248635 0.445104 0.152386
H11   H     H_    0.071136 0.783130 0.400217 0.156442
H12   H     H_    0.368425 0.648777 0.365302 0.136322
H13   H     H_    0.055136 0.751982 0.212154 0.151834
H14   H     H_    0.970573 0.249188 0.616345 0.161488
H15   H     H_    0.035976 0.194003 0.749867 0.152671
H16   H     H_    0.018719 0.383188 0.752975 0.157424
H17   H     H_    0.972765 0.249244 0.811650 0.150867
H18   H     H_    0.316448 0.572723 0.186459 0.146117
H19   H     H_    0.316634 0.422532 0.188063 0.147712
H20   H     H_    0.138853 0.349198 0.139337 0.134513
H21   H     H_    0.191329 0.425312 0.318615 0.125199
H22   H     H_    0.725472 0.752393 0.365839 0.171242
H23   H     H_    0.839876 0.804091 0.554924 0.152436
O1    O     O_R   0.589740 0.537510 0.449170 -0.543137
O2    O     O_R   0.057320 0.640510 0.094780 -0.582984
O3    O     O_R   0.045810 0.448440 0.097300 -0.594915
O4    O     O_R   0.148850 0.551460 0.097260 -0.591124
O5    O     O_R   0.956740 0.359390 0.919230 -0.587011
O6    O     O_R   0.059790 0.462410 0.919190 -0.583274
O7    O     O_R   0.865220 0.448430 0.916750 -0.585765
O8    O     O_R   0.968260 0.551460 0.916710 -0.582291
O9    O     O_R   0.946480 0.089020 0.535540 -0.579369
O10   O     O_R   0.051000 0.089020 0.640050 -0.592043
O11   O     O_R   0.858720 0.910970 0.447760 -0.581317
O12   O     O_R   0.588290 0.640550 0.550800 -0.598526
O13   O     O_R   0.963250 0.910970 0.552260 -0.592803
O14   O     O_R   0.949000 0.910980 0.359950 -0.596268
O15   O     O_R   0.053520 0.910980 0.464460 -0.594536
O16   O     O_R   0.036750 0.089030 0.447740 -0.591946
O17   O     O_R   0.141280 0.089030 0.552240 -0.578150
O18   O     O_R   0.410430 0.448470 0.358910 -0.587638
O19   O     O_R   0.408980 0.551520 0.460540 -0.590944
O20   O     O_R   0.411710 0.359450 0.449200 -0.588708
O21   O     O_R   0.410260 0.462490 0.550830 -0.582258
O22   O     O_R   0.591020 0.448480 0.539460 -0.584243
O23   O     O_R   0.589570 0.551530 0.641090 -0.591309
O24   O     O_R   0.954280 0.537480 0.094820 -0.593848
C41   C     C_3   0.901915 0.758222 0.222388 -0.365487
C42   C     C_3   0.920791 0.810000 0.176932 -0.335603
C43   C     C_3   0.846546 0.763206 0.083131 -0.855329
H24   H     H_    0.838372 0.698922 0.045348 0.253115
H25   H     H_    0.785050 0.753856 0.081271 0.254246
H26   H     H_    0.861191 0.802603 0.052323 0.244524
H27   H     H_    0.929598 0.875262 0.211842 0.235334
H28   H     H_    0.981339 0.819414 0.176744 0.211759
H29   H     H_    0.845160 0.755937 0.228146 0.196258
H30   H     H_    0.880398 0.689379 0.180224 0.214659
C44   C     C_3   0.978832 0.594004 0.265955 -0.337477
C45   C     C_3   0.975962 0.601652 0.347902 -0.377511
C46   C     C_3   0.941504 0.513375 0.342471 -0.854562
H31   H     H_    0.874314 0.467626 0.285927 0.251717
H32   H     H_    0.983771 0.485941 0.335840 0.255174
H33   H     H_    0.940652 0.520934 0.402634 0.242842
H34   H     H_    0.042334 0.646609 0.406091 0.218668
H35   H     H_    0.933028 0.627757 0.355723 0.223600
H36   H     H_    0.912453 0.546488 0.208450 0.216772
H37   H     H_    0.023069 0.568843 0.260534 0.192389
O25   O     O_3   0.636608 0.591243 0.350659 -0.591290
C47   C     C_3   0.689694 0.570074 0.321079 0.080321
H38   H     H_    0.676459 0.504668 0.311713 0.156674
H39   H     H_    0.760895 0.614363 0.368333 0.128844
C48   C     C_3   0.666040 0.565664 0.233256 -0.346191
H40   H     H_    0.598627 0.511323 0.183641 0.222869
H41   H     H_    0.668729 0.626787 0.237712 0.211887
C49   C     C_3   0.727855 0.551641 0.203996 -0.944140
H42   H     H_    0.794903 0.607691 0.250570 0.255467
H43   H     H_    0.707394 0.545963 0.139038 0.257867
H44   H     H_    0.727245 0.491168 0.199586 0.258887

loop_
_geom_bond_atom_site_label_1
_geom_bond_atom_site_label_2
_ccdc_geom_bond_type
C6    H23   S    
Cu1   O20   S    
C45   H34   S    
C4    C36   S    
Cu3   O3    S    
C27   C29   S    
C1    C8    S    
Cu1   Cu2   S    
C42   C43   S    
O25   C47   S    
C7    C8    D    
Cu5   Cu6   S    
C25   C28   S    
C39   H18   S    
C21   O7    A    
C17   C23   S    
C22   C32   S    
C7    O25   S    
C36   C37   S    
C37   C38   S    
C22   O10   A    
C36   H12   S    
C5    C6    D    
C46   H31   S    
C1    O12   A    
C47   H38   S    
C43   H26   S    
Cu3   O7    S    
Cu4   O2    S    
C28   C41   S    
C24   O13   A    
C48   H40   S    
C49   H44   S    
C33   C35   D    
C34   O22   A    
C20   C35   S    
C24   O11   A    
C4    C40   S    
C16   C17   D    
C47   H39   S    
C43   H25   S    
C25   O15   A    
C23   O20   A    
Cu5   O9    S    
C18   C30   S    
C37   H1    S    
C9    C10   D    
Cu3   O5    S    
C45   H35   S    
Cu6   O13   S    
C30   H13   S    
C19   O3    A    
Cu5   O14   S    
Cu2   O12   S    
C5    H22   S    
C44   C45   S    
C48   H41   S    
C10   C21   S    
C38   C39   S    
Cu1   O18   S    
C12   O19   A    
C15   H8    S    
C19   O4    A    
C9    H3    S    
C22   O9    A    
C27   H11   S    
C39   C40   S    
C5    C7    S    
C42   H27   S    
C33   H16   S    
C15   C26   S    
C29   C44   S    
Cu2   O21   S    
C48   C49   S    
C31   H14   S    
Cu4   O6    S    
Cu5   O16   S    
Cu3   Cu4   S    
C8    H2    S    
C29   C30   D    
C19   C38   S    
C13   H6    S    
C2    C38   S    
C31   C32   D    
C26   O17   A    
C47   C48   S    
C6    C24   S    
C43   H24   S    
C31   C33   S    
C23   O21   A    
C20   O5    A    
C9    C11   S    
C17   H10   S    
C3    C37   S    
C49   H42   S    
Cu6   O15   S    
Cu1   O22   S    
C41   H30   S    
C40   H19   S    
C14   C16   S    
Cu2   O19   S    
C3    C4    S    
C10   H4    S    
C44   H36   S    
C18   O2    A    
Cu4   O8    S    
C12   O18   A    
C36   C39   S    
C3    H21   S    
C2    H20   S    
C32   H15   S    
C45   C46   S    
C1    O1    A    
C2    C3    S    
C16   H9    S    
C13   C34   S    
C11   C13   D    
Cu6   O10   S    
C46   H32   S    
C26   O16   A    
Cu3   O24   S    
Cu5   O11   S    
Cu2   O23   S    
C41   C42   S    
C34   O23   A    
C49   H43   S    
C11   H5    S    
C44   H37   S    
C2    C40   S    
C14   H7    S    
C20   O6    A    
C21   O8    A    
C27   C28   D    
C25   O14   A    
C18   O24   A    
C14   C15   D    
C35   H17   S    
C4    C12   S    
C42   H28   S    
C41   H29   S    
Cu1   O1    S    
Cu6   O17   S    
C46   H33   S    
Cu4   O4    S    
