data_mof_unit_58747.cif
_audit_creation_date              2012-12-10T18:35:47-0500
_audit_creation_method            fapswitch 2.2
_symmetry_space_group_name_H-M    P1
_symmetry_Int_Tables_number       1
_space_group_crystal_system       triclinic
_cell_length_a                    13.538591
_cell_length_b                    14.01433
_cell_length_c                    15.075316
_cell_angle_alpha                 89.149966
_cell_angle_beta                  92.138444
_cell_angle_gamma                 73.359434
_cell_volume                      2737.63330612

loop_
_atom_site_label
_atom_site_type_symbol
_atom_type_description
_atom_site_fract_x
_atom_site_fract_y
_atom_site_fract_z
_atom_type_partial_charge
C1    C     C_R   0.496538 0.500408 0.669560 0.834283
C2    C     C_R   0.977908 0.456153 0.488180 0.073018
C3    C     C_R   0.875419 0.477357 0.516652 -0.042592
C4    C     C_R   0.030375 0.530631 0.496622 -0.035282
C5    C     C_R   0.973837 0.629360 0.516531 -0.033474
C6    C     C_R   0.871743 0.646786 0.542409 0.194232
C7    C     C_R   0.836055 0.565268 0.563636 0.203107
C8    C     C_R   0.136805 0.509383 0.487466 -0.296185
C9    C     C_R   0.127501 0.684418 0.499601 0.276116
C10   C     C_R   0.815608 0.411020 0.498368 -0.126457
C11   C     C_R   0.423756 0.454657 0.902523 0.418483
C12   C     C_R   0.700397 0.445779 0.501212 0.823348
C13   C     C_R   0.421834 0.458283 0.809196 0.212940
C14   C     C_R   0.489951 0.501308 0.765828 -0.200199
C15   C     C_R   0.552586 0.547051 0.814424 -0.322074
C16   C     C_R   0.551310 0.548850 0.906528 0.238768
C17   C     C_R   0.488452 0.500877 0.951425 -0.017132
C18   C     C_R   0.582216 0.461241 0.097155 -0.214783
C19   C     C_R   0.587936 0.466199 0.189809 0.240171
C20   C     C_R   0.495329 0.504405 0.234052 -0.167883
C21   C     C_R   0.400000 0.544357 0.186270 0.097323
C22   C     C_R   0.398293 0.547902 0.092654 0.399862
C23   C     C_R   0.498091 0.501271 0.330492 0.799938
C24   C     C_R   0.488961 0.502209 0.049074 -0.031954
C25   C     C_R   0.443009 0.911508 0.442899 -0.317845
C26   C     C_R   0.446913 0.810552 0.436390 0.452982
C27   C     C_R   0.547669 0.773320 0.570186 -0.060096
C28   C     C_R   0.552532 0.873238 0.575672 0.169717
C29   C     C_R   0.499094 0.945176 0.509349 0.052116
C30   C     C_R   0.492233 0.111619 0.583884 0.249109
C31   C     C_R   0.514484 0.204153 0.579009 0.309687
C32   C     C_R   0.484518 0.210358 0.424007 0.487233
C33   C     C_R   0.500639 0.106308 0.424872 0.249141
C34   C     C_R   0.300327 0.553414 0.496372 0.805955
C35   C     C_R   0.498060 0.054594 0.506474 -0.179017
C36   C     C_R   0.021714 0.706998 0.515547 0.421614
C37   C     C_R   0.186558 0.583998 0.492663 -0.181796
C38   C     C_R   0.866753 0.314174 0.468799 0.242380
C39   C     C_R   0.970151 0.291246 0.446932 -0.215127
C40   C     C_R   0.023558 0.362142 0.452382 -0.199932
Cu1   Cu    Cu3+1 0.500000 0.403570 0.500010 0.957521
Cu2   Cu    Cu3+1 0.500000 0.596430 0.499990 0.948651
H1    H     H_    0.601932 0.583022 0.780410 0.174953
H2    H     H_    0.650456 0.428230 0.060748 0.172955
H3    H     H_    0.394827 0.964306 0.394730 0.205906
H4    H     H_    0.584192 0.720412 0.622547 0.141305
H5    H     H_    0.183327 0.433471 0.481249 0.179624
H6    H     H_    0.100199 0.341408 0.427367 0.141474
H7    H     H_    0.008712 0.218215 0.422624 0.153609
N1    N     N_R   0.500000 0.741310 0.499980 -0.205781
N2    N     N_R   0.500060 0.258650 0.499980 -0.283672
O1    O     O_R   0.499990 0.418570 0.628550 -0.544957
O2    O     O_R   0.499990 0.581440 0.628540 -0.570368
O3    O     O_R   0.650980 0.378820 0.499990 -0.546496
O4    O     O_R   0.650980 0.541690 0.499970 -0.562089
O5    O     O_R   0.500010 0.418560 0.371460 -0.541905
O6    O     O_R   0.500010 0.581430 0.371450 -0.612051
O7    O     O_R   0.349020 0.458310 0.500030 -0.607639
O8    O     O_R   0.349020 0.621180 0.500010 -0.570253
O9    O     O_3   0.171831 0.761100 0.494686 -0.725017
H8    H     H_    0.206866 0.753970 0.437696 0.327453
N3    N     N_2   0.343641 0.428940 0.759721 -0.400072
H9    H     H_    0.320071 0.462223 0.698066 0.246778
C41   C     C_3   0.339466 0.327207 0.769501 -0.510691
H10   H     H_    0.263815 0.327433 0.795513 0.240112
H11   H     H_    0.401968 0.281978 0.815514 0.227241
H12   H     H_    0.346715 0.291681 0.703800 0.205591
N4    N     N_2   0.613603 0.599259 0.953837 -0.433989
H13   H     H_    0.681600 0.596753 0.923928 0.244527
C42   C     C_3   0.558905 0.699208 0.978667 -0.633285
H14   H     H_    0.611700 0.731002 0.018752 0.219544
H15   H     H_    0.492384 0.698774 0.019407 0.245467
H16   H     H_    0.530892 0.747322 0.918318 0.225204
N5    N     N_2   0.684634 0.433564 0.239738 -0.431724
H17   H     H_    0.689125 0.470948 0.297462 0.239208
C43   C     C_3   0.780763 0.404164 0.194493 -0.696500
H18   H     H_    0.789179 0.467185 0.152809 0.236109
H19   H     H_    0.784140 0.338298 0.153409 0.235840
H20   H     H_    0.846413 0.382559 0.244293 0.230878
N6    N     N_2   0.306060 0.580445 0.231349 -0.454090
H21   H     H_    0.312781 0.608963 0.293011 0.241289
C44   C     C_3   0.241532 0.514119 0.231103 -0.667600
H22   H     H_    0.280844 0.444552 0.269354 0.225947
H23   H     H_    0.167860 0.550874 0.262573 0.222896
H24   H     H_    0.223442 0.495501 0.162177 0.260649
O10   O     O_3   0.310327 0.595527 0.041696 -0.706666
H25   H     H_    0.257635 0.636868 0.079842 0.353029
N7    N     N_2   0.389643 0.784421 0.364761 -0.431522
H26   H     H_    0.362366 0.724659 0.375699 0.277329
C45   C     C_3   0.430374 0.789016 0.277843 -0.688859
H27   H     H_    0.379358 0.768577 0.226728 0.233826
H28   H     H_    0.509066 0.736401 0.275241 0.238080
H29   H     H_    0.433569 0.865634 0.261808 0.240429
N8    N     N_2   0.801662 0.743702 0.535188 -0.370218
H30   H     H_    0.744633 0.755690 0.579483 0.248525
C46   C     C_3   0.761363 0.772560 0.445294 -0.602865
H31   H     H_    0.712228 0.850927 0.443095 0.210706
H32   H     H_    0.713966 0.724134 0.421881 0.211269
H33   H     H_    0.825241 0.766964 0.399658 0.235724
N9    N     N_2   0.606631 0.898927 0.650752 -0.411706
H34   H     H_    0.618841 0.850911 0.705238 0.235488
C47   C     C_3   0.690866 0.941488 0.636352 -0.583292
H35   H     H_    0.679064 0.009995 0.675115 0.247715
H36   H     H_    0.696801 0.960001 0.565304 0.227366
H37   H     H_    0.765177 0.888896 0.660979 0.224384
O11   O     O_3   0.468030 0.079620 0.665069 -0.725078
H38   H     H_    0.426051 0.033124 0.654476 0.351301
N10   N     N_2   0.559656 0.235347 0.655753 -0.366240
H39   H     H_    0.537418 0.214377 0.715850 0.270649
C48   C     C_3   0.670035 0.220736 0.654223 -0.606426
H40   H     H_    0.710600 0.167177 0.707954 0.183384
H41   H     H_    0.686797 0.292521 0.665901 0.231975
H42   H     H_    0.701790 0.191339 0.589973 0.232622
O12   O     O_3   0.450699 0.261081 0.345297 -0.657045
H43   H     H_    0.390415 0.316951 0.360082 0.318506
O13   O     O_3   0.514119 0.059835 0.344378 -0.688542
H44   H     H_    0.560176 0.991319 0.354886 0.318628
O14   O     O_3   0.964700 0.803194 0.533903 -0.710288
H45   H     H_    0.008445 0.848898 0.533745 0.364748
N11   N     N_2   0.817263 0.237260 0.465019 -0.437436
H46   H     H_    0.861870 0.171211 0.494358 0.243775
C49   C     C_3   0.777055 0.221691 0.377945 -0.594999
H47   H     H_    0.740934 0.159975 0.381968 0.223152
H48   H     H_    0.839935 0.201959 0.330234 0.210031
H49   H     H_    0.716753 0.289390 0.353790 0.276060
N12   N     N_2   0.769658 0.569117 0.636325 -0.413959
H50   H     H_    0.748579 0.635414 0.668922 0.224550
C50   C     C_3   0.795377 0.484273 0.698330 -0.698438
H51   H     H_    0.733290 0.447151 0.694651 0.215798
H52   H     H_    0.801637 0.509559 0.767313 0.211528
H53   H     H_    0.870056 0.429013 0.684862 0.234887
O15   O     O_3   0.359099 0.408525 0.943209 -0.691848
H54   H     H_    0.385733 0.387522 0.004556 0.327715

loop_
_geom_bond_atom_site_label_1
_geom_bond_atom_site_label_2
_ccdc_geom_bond_type
C5    C36   A    
N12   H50   S    
C34   C37   S    
Cu1   Cu2   S    
C19   C20   A    
C43   H20   S    
C4    C8    A    
C50   H51   S    
O12   H43   S    
C23   O5    A    
C32   N2    A    
N10   H39   S    
N5    C43   S    
C30   C35   A    
C18   C24   A    
C28   C29   A    
C43   H19   S    
Cu1   O7    S    
C3    C7    A    
C26   N1    A    
Cu2   O2    S    
C30   C31   A    
O11   H38   S    
C15   C16   A    
C46   H33   S    
O13   H44   S    
C47   H37   S    
C40   H6    S    
C18   C19   A    
C31   N10   S    
C1    O2    A    
O14   H45   S    
N3    C41   S    
C48   H40   S    
C13   N3    S    
C16   C17   A    
C6    N8    S    
C46   H32   S    
C9    C36   A    
C42   H14   S    
C16   N4    S    
C36   O14   S    
Cu1   O1    S    
C27   N1    A    
N8    C46   S    
C38   N11   S    
C28   N9    S    
C12   O3    A    
C21   C22   A    
C11   O15   S    
C47   H35   S    
Cu2   O6    S    
N9    C47   S    
N11   C49   S    
C25   C29   A    
C38   C39   A    
C17   C24   S    
N5    H17   S    
C41   H12   S    
C43   H18   S    
N6    C44   S    
C39   C40   A    
O10   H25   S    
O15   H54   S    
C25   C26   A    
O9    H8    S    
C41   H11   S    
C2    C4    A    
Cu1   O5    S    
N3    H9    S    
C18   H2    S    
Cu2   O4    S    
C45   H28   S    
C20   C23   S    
C46   H31   S    
C42   H16   S    
C9    C37   A    
C20   C21   A    
C47   H36   S    
C48   H42   S    
C10   C12   S    
Cu2   N1    S    
C27   H4    S    
C26   N7    S    
C39   H7    S    
N7    C45   S    
C44   H23   S    
C34   O8    A    
C22   C24   A    
C8    C37   A    
C49   H48   S    
C50   H53   S    
C25   H3    S    
N11   H46   S    
C45   H29   S    
C23   O6    A    
C11   C17   A    
C33   O13   S    
N12   C50   S    
N4    H13   S    
C19   N5    S    
C31   N2    A    
N6    H21   S    
C50   H52   S    
Cu2   O8    S    
C6    C7    A    
C44   H24   S    
C29   C35   S    
C10   C38   A    
C9    O9    S    
C41   H10   S    
C49   H49   S    
C2    C3    A    
C8    H5    S    
C15   H1    S    
C3    C10   A    
C32   C33   A    
C11   C13   A    
C45   H27   S    
C5    C6    A    
C21   N6    S    
N9    H34   S    
C33   C35   A    
N10   C48   S    
C22   O10   S    
C7    N12   S    
N8    H30   S    
C1    O1    A    
C48   H41   S    
Cu1   O3    S    
C12   O4    A    
C2    C40   A    
C4    C5    A    
N7    H26   S    
N4    C42   S    
C44   H22   S    
C27   C28   A    
C34   O7    A    
C14   C15   A    
C42   H15   S    
C1    C14   S    
C32   O12   S    
C49   H47   S    
C13   C14   A    
Cu1   N2    S    
C30   O11   S    
