data_mof_unit_28721.cif
_audit_creation_date              2012-12-11T15:09:11-0500
_audit_creation_method            fapswitch 2.2
_symmetry_space_group_name_H-M    P1
_symmetry_Int_Tables_number       1
_space_group_crystal_system       triclinic
_cell_length_a                    26.00311
_cell_length_b                    27.579413
_cell_length_c                    8.397863
_cell_angle_alpha                 90.000595
_cell_angle_beta                  96.299225
_cell_angle_gamma                 89.999779
_cell_volume                      5986.17033408

loop_
_atom_site_label
_atom_site_type_symbol
_atom_type_description
_atom_site_fract_x
_atom_site_fract_y
_atom_site_fract_z
_atom_type_partial_charge
Ba1   Ba    Ba6+2 0.999910 0.465960 0.844870 1.747640
Ba2   Ba    Ba6+2 0.999910 0.534040 0.344870 1.747635
Ba3   Ba    Ba6+2 0.499910 0.965960 0.844870 1.747629
Ba4   Ba    Ba6+2 0.499910 0.034040 0.344870 1.747635
C1    C     C_3   0.025570 0.228862 0.617894 -0.203282
C2    C     C_R   0.845111 0.642473 0.597352 0.510102
C3    C     C_3   0.507854 0.218588 0.092142 0.889606
C4    C     C_R   0.914756 0.382775 0.295722 -0.380736
C5    C     C_R   0.914751 0.617222 0.795737 -0.380742
C6    C     C_R   0.414749 0.882780 0.295734 -0.380711
C7    C     C_R   0.414744 0.117218 0.795746 -0.380690
C8    C     C_2   0.983177 0.193803 0.562164 0.857665
C9    C     C_2   0.983127 0.806184 0.062108 0.857473
C10   C     C_2   0.483074 0.693803 0.562125 0.857356
C11   C     C_2   0.483048 0.306214 0.062225 0.857247
C12   C     C_R   0.345112 0.857527 0.097344 0.510074
C13   C     C_R   0.345108 0.142470 0.597352 0.510060
C14   C     C_R   0.834272 0.317410 0.194349 -0.033195
C15   C     C_R   0.834266 0.682586 0.694362 -0.033202
C16   C     C_R   0.334267 0.817415 0.194353 -0.033213
C17   C     C_R   0.334261 0.182582 0.694363 -0.033210
C18   C     C_R   0.863477 0.312126 0.345527 -0.129111
C19   C     C_R   0.863470 0.687871 0.845544 -0.128942
C20   C     C_R   0.363470 0.812130 0.345535 -0.128886
C21   C     C_3   0.025566 0.771135 0.117560 -0.203321
C22   C     C_R   0.363463 0.187867 0.845548 -0.128814
C23   C     C_R   0.902979 0.345124 0.396551 -0.045139
C24   C     C_R   0.902972 0.654872 0.896569 -0.045066
C25   C     C_R   0.402970 0.845130 0.396564 -0.045031
C26   C     C_R   0.402964 0.154867 0.896578 -0.044991
C27   C     C_R   0.797002 0.232174 0.164381 0.598497
C28   C     C_R   0.796999 0.767822 0.664368 0.598498
C29   C     C_R   0.297000 0.732179 0.164349 0.598491
C30   C     C_R   0.296996 0.267817 0.664340 0.598494
C31   C     C_R   0.256069 0.700214 0.116964 -0.178647
C32   C     C_3   0.525537 0.728847 0.617402 -0.203270
C33   C     C_R   0.256065 0.299782 0.616956 -0.178675
C34   C     C_R   0.756072 0.200209 0.116987 -0.178605
C35   C     C_R   0.756068 0.799787 0.616975 -0.178643
C36   C     C_R   0.207826 0.717494 0.047421 -0.108693
C37   C     C_R   0.207821 0.282502 0.547424 -0.108685
C38   C     C_R   0.707833 0.217487 0.047415 -0.108737
C39   C     C_R   0.707827 0.782507 0.547419 -0.108714
C40   C     C_R   0.201455 0.768023 0.028272 0.593720
C41   C     C_R   0.201449 0.231973 0.528283 0.593694
C42   C     C_R   0.701462 0.268016 0.028254 0.593784
C43   C     C_3   0.525527 0.271161 0.117245 -0.203171
C44   C     C_R   0.701455 0.731978 0.528270 0.593760
C45   C     C_R   0.742309 0.299997 0.076291 -0.115598
C46   C     C_R   0.742302 0.699997 0.576312 -0.115608
C47   C     C_R   0.242301 0.800004 0.076309 -0.115602
C48   C     C_R   0.242296 0.199992 0.576323 -0.115615
C49   C     C_3   0.982482 0.289932 0.066181 0.310802
C50   C     C_3   0.982475 0.710058 0.566087 0.310723
C51   C     C_3   0.482451 0.789966 0.065980 0.310638
C52   C     C_3   0.482438 0.210016 0.565910 0.310575
C53   C     C_R   0.790875 0.282719 0.143499 -0.071022
C54   C     C_R   0.884965 0.390509 0.149376 0.007451
C55   C     C_R   0.790868 0.717276 0.643509 -0.071019
C56   C     C_R   0.290869 0.782725 0.143497 -0.071027
C57   C     C_R   0.290864 0.217271 0.643504 -0.071026
C58   C     C_R   0.135707 0.688205 0.842873 -0.032548
C59   C     C_R   0.135701 0.311790 0.342877 -0.032523
C60   C     C_R   0.635719 0.188195 0.842851 -0.032454
C61   C     C_R   0.635711 0.811798 0.342860 -0.032491
C62   C     C_R   0.096543 0.654916 0.790937 -0.055272
C63   C     C_R   0.096537 0.345079 0.290942 -0.055314
C64   C     C_R   0.596556 0.154906 0.790912 -0.055090
C65   C     C_R   0.884962 0.609489 0.649385 0.007440
C66   C     C_R   0.596548 0.845087 0.290924 -0.055177
C67   C     C_R   0.114697 0.609487 0.038161 0.102118
C68   C     C_R   0.114694 0.390511 0.538163 0.102115
C69   C     C_R   0.614702 0.109483 0.038150 0.102156
C70   C     C_R   0.614697 0.890514 0.538156 0.102146
C71   C     C_R   0.154459 0.642427 0.089773 -0.073679
C72   C     C_R   0.154455 0.357570 0.589776 -0.073720
C73   C     C_R   0.654464 0.142422 0.089764 -0.073612
C74   C     C_R   0.654459 0.857574 0.589768 -0.073642
C75   C     C_R   0.164844 0.682789 0.994126 0.069237
C76   C     C_R   0.384963 0.890512 0.149380 0.007429
C77   C     C_R   0.164838 0.317207 0.494129 0.069191
C78   C     C_R   0.664853 0.182781 0.994111 0.069333
C79   C     C_R   0.664846 0.817213 0.494118 0.069297
C80   C     C_R   0.084959 0.617058 0.891509 -0.242652
C81   C     C_R   0.084955 0.382939 0.391513 -0.242708
C82   C     C_R   0.584969 0.117050 0.891487 -0.242457
C83   C     C_R   0.584963 0.882945 0.391498 -0.242555
C84   C     C_3   0.957974 0.240253 0.037419 -0.270817
C85   C     C_3   0.957972 0.759743 0.537382 -0.270591
C86   C     C_3   0.457937 0.740285 0.037324 -0.270416
C87   C     C_R   0.384960 0.109487 0.649387 0.007413
C88   C     C_3   0.457918 0.259697 0.537330 -0.270277
C89   C     C_3   0.147431 0.469309 0.222186 0.393842
C90   C     C_3   0.147435 0.530689 0.722189 0.393832
C91   C     C_3   0.647434 0.969311 0.222191 0.393809
C92   C     C_3   0.647440 0.030686 0.722201 0.393718
C93   C     C_3   0.195876 0.437916 0.238244 0.556861
C94   C     C_3   0.195881 0.562080 0.738241 0.556879
C95   C     C_3   0.695881 0.937921 0.238252 0.556923
C96   C     C_3   0.695885 0.062080 0.738177 0.556907
C97   C     C_3   0.852519 0.531254 0.967564 0.304405
C98   C     C_R   0.845115 0.357524 0.097342 0.510120
C99   C     C_3   0.852523 0.468744 0.467564 0.304403
C100  C     C_3   0.352517 0.031253 0.967561 0.304409
C101  C     C_3   0.352520 0.968746 0.467560 0.304407
C102  C     C_3   0.803885 0.562317 0.948693 -0.323702
C103  C     C_3   0.803889 0.437680 0.448682 -0.323698
C104  C     C_3   0.303881 0.062315 0.948694 -0.323714
C105  C     C_3   0.303885 0.937684 0.448684 -0.323711
C106  C     C_3   0.007898 0.281426 0.592568 0.889684
C107  C     C_3   0.007896 0.718564 0.092415 0.889784
C108  C     C_3   0.507871 0.781420 0.592272 0.889672
F1    F     F_    0.046973 0.311326 0.660834 -0.694524
F2    F     F_    0.842934 0.786671 0.727584 -0.704714
F3    F     F_    0.342937 0.713331 0.227544 -0.704684
F4    F     F_    0.342935 0.286665 0.727514 -0.704642
F5    F     F_    0.816990 0.364738 0.953348 -0.688465
F6    F     F_    0.816987 0.635259 0.453356 -0.688469
F7    F     F_    0.316988 0.864741 0.953348 -0.688468
F8    F     F_    0.316985 0.135256 0.453354 -0.688469
F9    F     F_    0.155250 0.786790 0.966951 -0.700288
F10   F     F_    0.155244 0.213206 0.466965 -0.700273
F11   F     F_    0.655258 0.286782 0.966925 -0.700244
F12   F     F_    0.046987 0.688682 0.160692 -0.694578
F13   F     F_    0.655251 0.713212 0.466945 -0.700259
F14   F     F_    0.546982 0.811298 0.660439 -0.694665
F15   F     F_    0.546980 0.188706 0.160203 -0.694765
F16   F     F_    0.214070 0.432714 0.090439 -0.667841
F17   F     F_    0.214072 0.567283 0.590432 -0.667834
F18   F     F_    0.714075 0.932718 0.090448 -0.667836
F19   F     F_    0.714039 0.067300 0.590315 -0.667846
F20   F     F_    0.842934 0.213325 0.227624 -0.704716
H1    H     H_    0.226323 0.454962 0.323271 0.061540
H2    H     H_    0.867620 0.472001 0.349984 -0.008160
H3    H     H_    0.432782 0.330756 0.880361 0.371283
H4    H     H_    0.367609 0.027994 0.849973 -0.008137
H5    H     H_    0.367614 0.972003 0.349976 -0.008140
H6    H     H_    0.881659 0.549049 0.055147 0.052864
H7    H     H_    0.881661 0.450951 0.555154 0.052886
H8    H     H_    0.381657 0.049049 0.055139 0.052847
H9    H     H_    0.381658 0.950951 0.555144 0.052860
H10   H     H_    0.774466 0.545709 0.859206 0.135892
H11   H     H_    0.774472 0.454287 0.359188 0.135888
H12   H     H_    0.274462 0.045705 0.859213 0.135889
H13   H     H_    0.226329 0.545033 0.823259 0.061542
H14   H     H_    0.274466 0.954293 0.359201 0.135891
H15   H     H_    0.812772 0.599171 0.907619 0.043054
H16   H     H_    0.812778 0.400826 0.407614 0.043080
H17   H     H_    0.312766 0.099169 0.907613 0.043039
H18   H     H_    0.312771 0.900830 0.407603 0.043048
H19   H     H_    0.787758 0.565347 0.065420 0.160355
H20   H     H_    0.787760 0.434651 0.565403 0.160357
H21   H     H_    0.287757 0.065345 0.065423 0.160349
H22   H     H_    0.287758 0.934653 0.565409 0.160347
H23   H     H_    0.001373 0.288508 0.461715 -0.125349
H24   H     H_    0.726327 0.954969 0.323276 0.061542
H25   H     H_    0.001349 0.711452 0.961579 -0.125455
H26   H     H_    0.501291 0.788523 0.461434 -0.125353
H27   H     H_    0.501241 0.211490 0.961306 -0.125277
H28   H     H_    0.059112 0.222113 0.549764 0.115585
H29   H     H_    0.059043 0.777884 0.049127 0.115437
H30   H     H_    0.558982 0.722083 0.548844 0.115397
H31   H     H_    0.558927 0.277932 0.048506 0.115277
H32   H     H_    0.918008 0.240780 0.071782 0.151608
H33   H     H_    0.917969 0.759188 0.571455 0.151535
H34   H     H_    0.417886 0.740888 0.071025 0.151352
H35   H     H_    0.726354 0.045028 0.823116 0.061568
H36   H     H_    0.417847 0.259069 0.570791 0.151239
H37   H     H_    0.177412 0.636332 0.203546 0.106575
H38   H     H_    0.177409 0.363665 0.703548 0.106585
H39   H     H_    0.677413 0.136330 0.203546 0.106576
H40   H     H_    0.677410 0.863668 0.703546 0.106556
H41   H     H_    0.262522 0.661616 0.132061 0.139700
H42   H     H_    0.262519 0.338380 0.632043 0.139693
H43   H     H_    0.762525 0.161611 0.132102 0.139719
H44   H     H_    0.762522 0.838385 0.632075 0.139701
H45   H     H_    0.735502 0.338591 0.063285 0.171714
H46   H     H_    0.187199 0.401575 0.284224 -0.135888
H47   H     H_    0.735495 0.661403 0.563316 0.171702
H48   H     H_    0.235495 0.838598 0.063316 0.171698
H49   H     H_    0.235489 0.161397 0.563336 0.171688
H50   H     H_    0.144771 0.716986 0.762844 0.127216
H51   H     H_    0.144764 0.283008 0.262848 0.127218
H52   H     H_    0.644784 0.216977 0.762824 0.127193
H53   H     H_    0.644775 0.783016 0.262833 0.127199
H54   H     H_    0.854129 0.283718 0.426550 0.155169
H55   H     H_    0.854122 0.716280 0.926563 0.155155
H56   H     H_    0.354122 0.783721 0.426551 0.155140
H57   H     H_    0.187207 0.598421 0.784231 -0.135897
H58   H     H_    0.354116 0.216278 0.926562 0.155123
H59   H     H_    0.055121 0.591232 0.850115 0.046398
H60   H     H_    0.055118 0.408765 0.350118 0.046404
H61   H     H_    0.555130 0.091226 0.850095 0.046358
H62   H     H_    0.555124 0.908770 0.350105 0.046384
H63   H     H_    0.038457 0.222875 0.747117 0.117277
H64   H     H_    0.038556 0.777136 0.246725 0.117422
H65   H     H_    0.538573 0.722854 0.746543 0.117456
H66   H     H_    0.538632 0.277143 0.246340 0.117515
H67   H     H_    0.944648 0.408531 0.337269 0.084038
H68   H     H_    0.687208 0.901579 0.284241 -0.135969
H69   H     H_    0.944643 0.591466 0.837281 0.084043
H70   H     H_    0.444642 0.908535 0.337281 0.084044
H71   H     H_    0.444638 0.091462 0.837291 0.084048
H72   H     H_    0.959750 0.316400 0.987260 0.084040
H73   H     H_    0.959764 0.683603 0.487056 0.084187
H74   H     H_    0.459773 0.816411 0.986818 0.084364
H75   H     H_    0.459784 0.183585 0.486637 0.084518
H76   H     H_    0.980478 0.299915 0.193399 -0.041433
H77   H     H_    0.980437 0.700048 0.693269 -0.041440
H78   H     H_    0.480375 0.800010 0.193118 -0.041495
H79   H     H_    0.687220 0.098416 0.784230 -0.135976
H80   H     H_    0.480332 0.199940 0.693000 -0.041566
H81   H     H_    0.956393 0.230328 0.909108 0.154174
H82   H     H_    0.956484 0.769722 0.409127 0.154152
H83   H     H_    0.456565 0.730243 0.909137 0.154207
H84   H     H_    0.456619 0.269791 0.409226 0.154192
H85   H     H_    0.981016 0.212522 0.109489 0.179024
H86   H     H_    0.980962 0.787451 0.609737 0.178910
H87   H     H_    0.480854 0.712597 0.110010 0.178945
H88   H     H_    0.480782 0.287360 0.610241 0.178876
H89   H     H_    0.133019 0.472508 0.340808 -0.146936
H90   H     H_    0.867613 0.527996 0.849979 -0.008153
H91   H     H_    0.133025 0.527491 0.840814 -0.146937
H92   H     H_    0.633022 0.972510 0.340812 -0.146882
H93   H     H_    0.633053 0.027485 0.840857 -0.146816
H94   H     H_    0.117751 0.451694 0.135857 0.017937
H95   H     H_    0.117754 0.548305 0.635866 0.017925
H96   H     H_    0.617755 0.951693 0.135864 0.017910
H97   H     H_    0.617745 0.048302 0.635919 0.017900
H98   H     H_    0.933331 0.169168 0.379405 0.370946
H99   H     H_    0.933066 0.830741 0.879732 0.371128
H100  H     H_    0.432932 0.669253 0.379941 0.371216
O1    O     O_2   0.898940 0.431940 0.867860 -0.429387
O2    O     O_3   0.034001 0.711754 0.530442 -0.558260
O3    O     O_3   0.533994 0.788241 0.030499 -0.558340
O4    O     O_3   0.533992 0.211761 0.530559 -0.558426
O5    O     O_3   0.058810 0.523750 0.066650 -0.511163
O6    O     O_3   0.058810 0.476250 0.566650 -0.511163
O7    O     O_3   0.558810 0.023750 0.066650 -0.511174
O8    O     O_3   0.558810 0.976250 0.566650 -0.511153
O9    O     O_3   0.941140 0.476130 0.123050 -0.518925
O10   O     O_3   0.941140 0.523870 0.623050 -0.518927
O11   O     O_3   0.441140 0.976130 0.123050 -0.518917
O12   O     O_2   0.898940 0.568060 0.367860 -0.429397
O13   O     O_3   0.441140 0.023870 0.623050 -0.518918
O14   O     O_3   0.982430 0.389880 0.635700 -0.444583
O15   O     O_3   0.982430 0.610120 0.135700 -0.444615
O16   O     O_3   0.482430 0.889880 0.635700 -0.444608
O17   O     O_3   0.482430 0.110120 0.135700 -0.444598
O18   O     O_2   0.894519 0.353711 0.720710 -0.432250
O19   O     O_2   0.894530 0.646302 0.220762 -0.432327
O20   O     O_2   0.394530 0.853696 0.720760 -0.432381
O21   O     O_2   0.394535 0.146311 0.220792 -0.432441
O22   O     O_3   0.839401 0.485448 0.021658 -0.605873
O23   O     O_2   0.398940 0.931940 0.867860 -0.429409
O24   O     O_3   0.839402 0.514551 0.521653 -0.605872
O25   O     O_3   0.339400 0.985447 0.021660 -0.605870
O26   O     O_3   0.339401 0.014552 0.521655 -0.605869
O27   O     O_3   0.962669 0.289013 0.666926 -0.631847
O28   O     O_3   0.962685 0.710987 0.166880 -0.631828
O29   O     O_3   0.462686 0.789012 0.666854 -0.631844
O30   O     O_3   0.462692 0.210990 0.166835 -0.631837
O31   O     O_2   0.100770 0.431440 0.821660 -0.425547
O32   O     O_2   0.100770 0.568560 0.321660 -0.425554
O33   O     O_2   0.600770 0.931440 0.821660 -0.425597
O34   O     O_2   0.398940 0.068060 0.367860 -0.429417
O35   O     O_2   0.600770 0.068560 0.321660 -0.425558
O36   O     O_3   0.017130 0.389790 0.053700 -0.505393
O37   O     O_3   0.017130 0.610210 0.553700 -0.505423
O38   O     O_3   0.517130 0.889790 0.053700 -0.505470
O39   O     O_3   0.517130 0.110210 0.553700 -0.505506
O40   O     O_2   0.103131 0.351054 0.962901 -0.400111
O41   O     O_2   0.103129 0.648948 0.462890 -0.400126
O42   O     O_2   0.603119 0.851039 0.962854 -0.400187
O43   O     O_2   0.603112 0.148968 0.462821 -0.400206
O44   O     O_2   0.967870 0.164802 0.656479 -0.552859
O45   O     O_3   0.160471 0.484798 0.668335 -0.619579
O46   O     O_R   0.961455 0.194446 0.402600 -0.748514
O47   O     O_2   0.967973 0.835255 0.156479 -0.552855
O48   O     O_R   0.961185 0.805449 0.902746 -0.748410
O49   O     O_2   0.467967 0.664731 0.656577 -0.552871
O50   O     O_R   0.461059 0.694542 0.402835 -0.748307
O51   O     O_2   0.468041 0.335315 0.156760 -0.552902
O52   O     O_R   0.460904 0.305453 0.903081 -0.748162
O53   O     O_3   0.160469 0.515200 0.168337 -0.619571
O54   O     O_3   0.660472 0.984797 0.668324 -0.619613
O55   O     O_3   0.660470 0.015200 0.168336 -0.619556
O56   O     O_3   0.033996 0.288250 0.030406 -0.558209
P1    P     P_3+3 0.893960 0.447890 0.040050 1.048283
P2    P     P_3+3 0.063474 0.656283 0.585185 1.033804
P3    P     P_3+3 0.563472 0.843714 0.085181 1.033729
P4    P     P_3+3 0.563473 0.156285 0.585181 1.033678
P5    P     P_3+3 0.935217 0.655467 0.103240 1.016786
P6    P     P_3+3 0.935217 0.344534 0.603229 1.016803
P7    P     P_3+3 0.435216 0.155468 0.103241 1.016746
P8    P     P_3+3 0.435217 0.844534 0.603233 1.016752
P9    P     P_3+3 0.893960 0.552110 0.540050 1.048278
P10   P     P_3+3 0.393960 0.947890 0.040050 1.048267
P11   P     P_3+3 0.393960 0.052110 0.540050 1.048259
P12   P     P_3+3 0.105800 0.447360 0.649510 1.045799
P13   P     P_3+3 0.105800 0.552640 0.149510 1.045800
P14   P     P_3+3 0.605800 0.947360 0.649510 1.045762
P15   P     P_3+3 0.605800 0.052640 0.149510 1.045806
P16   P     P_3+3 0.063473 0.343716 0.085183 1.033862

loop_
_geom_bond_atom_site_label_1
_geom_bond_atom_site_label_2
_ccdc_geom_bond_type
C17   C22   A    
O35   P15   D    
Ba3   O38   S    
C108  H26   S    
C46   C55   A    
C48   C57   A    
C82   H61   S    
C91   C95   S    
C3    H27   S    
C40   F9    S    
C84   H85   S    
C3    O30   S    
C51   H74   S    
C44   F13   S    
Ba1   O31   S    
C50   H77   S    
Ba2   O32   S    
C104  H21   S    
Ba1   O1    S    
C71   H37   S    
C43   H66   S    
Ba4   O11   S    
C44   C46   A    
C99   O24   S    
C25   P8    S    
C26   P7    S    
C102  H10   S    
C45   H45   S    
C63   C81   A    
C59   H51   S    
C32   H65   S    
C1    C8    S    
O38   P3    S    
C6    C76   A    
O14   P6    S    
C30   C57   A    
C13   C17   A    
C100  H8    S    
C12   C76   A    
Ba4   P15   S    
C15   C19   A    
Ba2   O15   S    
C88   H36   S    
C12   C16   A    
C50   H73   S    
C95   H24   S    
C74   H40   S    
Ba1   P1    S    
O31   P12   D    
C72   H38   S    
C105  H22   S    
C6    H70   S    
C90   H95   S    
C18   C23   A    
Ba3   O16   S    
C103  H11   S    
C107  O28   S    
C104  H12   S    
Ba2   O37   S    
C107  F12   S    
H3    O52   S    
Ba1   O5    S    
C27   C53   A    
C31   C36   A    
C66   P3    S    
C103  H16   S    
C93   H46   S    
C52   H75   S    
C73   C78   A    
O11   P10   S    
C94   F17   S    
Ba4   O7    S    
O9    P1    S    
C7    C87   A    
O25   P10   S    
C69   C73   A    
C99   C103  S    
C28   C55   A    
Ba2   O12   S    
C5    C24   A    
C85   H82   S    
C97   H90   S    
C2    C65   A    
O8    P14   S    
C101  O26   S    
C39   C79   S    
Ba1   P12   S    
C13   C87   A    
C93   H1    S    
O40   P16   D    
C68   C81   A    
Ba4   O35   S    
C2    C15   A    
H98   O46   S    
C60   C64   A    
O3    P3    S    
C51   C86   S    
O43   P4    D    
C10   C32   S    
O5    P13   S    
C1    C106  S    
C61   C66   A    
C45   C53   A    
C14   C98   A    
C106  H23   S    
C13   F8    S    
O32   P13   D    
C54   P1    S    
O27   P6    S    
C21   H29   S    
C95   H68   S    
C70   P14   S    
C70   C83   A    
Ba3   O8    S    
C33   H42   S    
C11   O52   S    
C93   F16   S    
C66   C83   A    
C10   O49   D    
C84   H81   S    
C58   C62   A    
C31   H41   S    
C41   C48   A    
C15   C55   S    
C84   H32   S    
C102  H15   S    
O53   P13   S    
C18   H54   S    
C59   C63   A    
C69   P15   S    
O26   P11   S    
C1    H28   S    
C85   H33   S    
C36   C75   S    
C92   H97   S    
C98   F5    S    
C21   H64   S    
O7    P15   S    
C22   C26   A    
O1    P1    D    
C50   O2    S    
Ba2   P9    S    
Ba3   Ba4   S    
C89   C93   S    
C97   C102  S    
C101  C105  S    
C37   C41   A    
C100  H4    S    
O34   P11   D    
C14   C18   A    
C108  F14   S    
Ba2   O5    S    
C94   H13   S    
C96   H79   S    
C46   H47   S    
C19   H55   S    
C71   C75   A    
C91   O55   S    
C92   C96   S    
C29   C31   A    
C33   C37   A    
Ba1   O10   S    
C21   C107  S    
C101  H5    S    
C60   H52   S    
C36   C40   A    
C52   O4    S    
C47   C56   A    
C3    F15   S    
C9    O48   S    
O10   P9    S    
C30   C33   A    
C42   C45   A    
C96   H35   S    
O18   P6    D    
C99   H2    S    
C5    C65   A    
Ba4   O17   S    
C90   C94   S    
Ba4   O34   S    
C49   H76   S    
C80   H59   S    
C38   C42   A    
C28   C35   A    
C20   C25   A    
C4    C54   A    
C85   H86   S    
C74   C79   A    
C7    C26   A    
C32   C108  S    
C92   O54   S    
C54   C98   A    
C16   C56   S    
Ba3   P14   S    
C17   C57   S    
O36   P16   S    
C108  O29   S    
C43   H31   S    
Ba4   O39   S    
O33   P14   D    
C65   P9    S    
C86   H34   S    
C32   H30   S    
C94   H57   S    
C86   H83   S    
O17   P7    S    
C29   F3    S    
C48   H49   S    
C3    C43   S    
C58   H50   S    
O45   P12   S    
C14   C53   S    
C87   P11   S    
C37   C77   S    
Ba4   O8    S    
C7    H71   S    
O23   P10   D    
C5    H69   S    
C29   C56   A    
C64   P4    S    
C42   F11   S    
O41   P2    D    
O39   P4    S    
C100  C104  S    
C102  H19   S    
C95   F18   S    
O54   P14   S    
C67   P13   S    
C51   O3    S    
C97   H6    S    
C34   C38   A    
C41   F10   S    
C27   C34   A    
C63   P16   S    
C20   H56   S    
C92   H93   S    
C97   O22   S    
C107  H25   S    
C106  O27   S    
C51   H78   S    
C6    C25   A    
C34   H43   S    
Ba1   O36   S    
C88   H84   S    
O2    P2    S    
Ba2   P13   S    
O24   P9    S    
C70   C74   A    
C4    C23   A    
Ba3   O13   S    
H100  O50   S    
Ba3   O7    S    
O6    P12   S    
C89   O53   S    
Ba3   O33   S    
C64   C82   A    
C11   O51   D    
C105  H14   S    
C38   C78   S    
C11   C43   S    
C68   C72   A    
C8    O44   D    
C22   H58   S    
C96   F19   S    
C10   O50   S    
C81   H60   S    
H99   O48   S    
C59   C77   A    
O21   P7    D    
C52   H80   S    
Ba1   O14   S    
C101  H9    S    
C61   C79   A    
C30   F4    S    
O16   P8    S    
Ba1   Ba2   S    
C88   H88   S    
C91   H96   S    
C89   H94   S    
C16   C20   A    
Ba4   P11   S    
O22   P1    S    
C39   C44   A    
C73   H39   S    
C1    H63   S    
O55   P15   S    
O56   P16   S    
C9    C21   S    
C24   P5    S    
C68   P12   S    
O12   P9    D    
C61   H53   S    
C49   H72   S    
O19   P5    D    
C58   C75   A    
C50   C85   S    
C12   F7    S    
Ba2   O6    S    
C49   O56   S    
C35   C39   A    
Ba3   P10   S    
C27   F20   S    
C99   H7    S    
O13   P11   S    
O4    P4    S    
C106  F1    S    
C60   C78   A    
C86   H87   S    
C103  H20   S    
C40   C47   A    
C90   H91   S    
C19   C24   A    
C23   P6    S    
C47   H48   S    
C8    O46   S    
C9    O47   D    
C67   C80   A    
O42   P3    D    
O20   P8    D    
C83   H62   S    
C35   H44   S    
C72   C77   A    
C76   P10   S    
Ba1   O6    S    
O15   P5    S    
C91   H92   S    
C105  H18   S    
O37   P2    S    
C90   O45   S    
C67   C71   A    
C49   C84   S    
C100  O25   S    
Ba2   O9    S    
Ba3   O23   S    
C69   C82   A    
C62   C80   A    
C104  H17   S    
C52   C88   S    
O28   P5    S    
C62   P2    S    
O29   P8    S    
O30   P7    S    
C4    H67   S    
C89   H89   S    
C28   F2    S    
C2    F6    S    
