data_mof_unit_54542.cif
_audit_creation_date              2012-12-10T17:23:39-0500
_audit_creation_method            fapswitch 2.2
_symmetry_space_group_name_H-M    P1
_symmetry_Int_Tables_number       1
_space_group_crystal_system       triclinic
_cell_length_a                    9.586811
_cell_length_b                    10.794142
_cell_length_c                    17.284279
_cell_angle_alpha                 96.013689
_cell_angle_beta                  86.403658
_cell_angle_gamma                 90.670601
_cell_volume                      1775.23193183

loop_
_atom_site_label
_atom_site_type_symbol
_atom_type_description
_atom_site_fract_x
_atom_site_fract_y
_atom_site_fract_z
_atom_type_partial_charge
C1    C     C_R   0.500963 0.737009 0.495766 0.781603
C2    C     C_R   0.361378 0.565655 0.781940 0.434066
C3    C     C_R   0.435729 0.446431 0.140134 0.531358
C4    C     C_R   0.422283 0.453773 0.221318 -0.357737
C5    C     C_R   0.653095 0.551074 0.228655 0.442377
C6    C     C_R   0.663420 0.546966 0.147446 -0.377241
C7    C     C_R   0.556264 0.494433 0.103934 0.071578
C8    C     C_2   0.494404 0.570147 0.983475 0.424966
C9    C     C_2   0.569307 0.491797 0.019585 -0.226057
C10   C     C_R   0.530737 0.504245 0.265676 -0.156468
C11   C     C_R   0.276015 0.873519 0.430718 -0.131196
C12   C     C_R   0.482481 0.503748 0.650208 0.791051
C13   C     C_R   0.148342 0.931204 0.425685 -0.184569
C14   C     C_R   0.120924 0.045605 0.468085 -0.122725
C15   C     C_R   0.225102 0.108573 0.509911 0.470131
C16   C     C_R   0.364753 0.060465 0.502442 -0.077313
C17   C     C_R   0.381166 0.933843 0.474957 0.053974
C18   C     C_R   0.501199 0.871551 0.493886 -0.154670
C19   C     C_R   0.613682 0.939392 0.524528 -0.238864
C20   C     C_R   0.610428 0.068064 0.534928 0.385397
C21   C     C_R   0.488553 0.130889 0.519427 -0.200277
C22   C     C_R   0.879110 0.326152 0.380610 0.277648
C23   C     C_R   0.496947 0.264179 0.508815 0.915765
C24   C     C_R   0.971959 0.256569 0.325566 0.332404
C25   C     C_R   0.112699 0.261462 0.333846 0.192770
C26   C     C_R   0.164754 0.339107 0.392585 -0.277429
C27   C     C_R   0.082281 0.419726 0.445522 0.130774
C28   C     C_R   0.931756 0.416978 0.443265 0.105919
C29   C     C_R   0.921243 0.577039 0.551124 -0.057992
C30   C     C_R   0.068896 0.576954 0.551114 -0.034532
C31   C     C_R   0.518290 0.502651 0.350277 0.895485
C32   C     C_R   0.478153 0.516025 0.735618 -0.114016
C33   C     C_R   0.600606 0.489114 0.771040 -0.230469
C34   C     C_R   0.608017 0.510301 0.850934 -0.240879
C35   C     C_R   0.490916 0.553748 0.897891 0.015600
C36   C     C_R   0.367720 0.579658 0.863394 -0.250828
Cu1   Cu    Cu3+1 0.359340 0.500010 0.500010 0.966191
Cu2   Cu    Cu3+1 0.640660 0.499990 0.499990 1.020115
H1    H     H_    0.692848 0.453676 0.736749 0.191426
H2    H     H_    0.755812 0.582788 0.118058 0.162294
H3    H     H_    0.704722 0.892315 0.541162 0.183735
H4    H     H_    0.292316 0.782583 0.398871 0.158776
H5    H     H_    0.067944 0.884596 0.392114 0.166085
H6    H     H_    0.017387 0.085040 0.469529 0.201395
H7    H     H_    0.861730 0.640555 0.592737 0.124325
H8    H     H_    0.330589 0.414375 0.249356 0.202383
H9    H     H_    0.273294 0.329747 0.394260 0.267723
H10   H     H_    0.120146 0.640361 0.593061 0.146344
H11   H     H_    0.635953 0.420843 0.987765 0.118702
H12   H     H_    0.276712 0.611346 0.899898 0.163136
H13   H     H_    0.706216 0.493274 0.875538 0.141120
N1    N     N_R   0.852190 0.498790 0.499250 -0.157793
N2    N     N_R   0.148060 0.498710 0.499220 -0.162909
O1    O     O_R   0.381190 0.680360 0.500010 -0.597022
O2    O     O_R   0.618760 0.680340 0.500000 -0.593466
O3    O     O_R   0.367440 0.500030 0.613600 -0.547211
O4    O     O_R   0.605010 0.500010 0.613590 -0.591801
O5    O     O_R   0.381240 0.319660 0.500000 -0.573572
O6    O     O_R   0.618810 0.319640 0.499990 -0.479195
O7    O     O_R   0.394990 0.499990 0.386410 -0.635563
O8    O     O_R   0.632560 0.499970 0.386400 -0.497004
O9    O     O_3   0.183066 0.211868 0.560058 -0.580352
C37   C     C_3   0.205206 0.192444 0.637903 0.068109
H14   H     H_    0.317534 0.206633 0.649094 0.134289
H15   H     H_    0.172054 0.097025 0.651135 0.124114
C38   C     C_3   0.118693 0.287282 0.692215 -0.272258
H16   H     H_    0.143238 0.382550 0.676467 0.269786
H17   H     H_    0.005698 0.269302 0.684649 0.242063
C39   C     C_3   0.148118 0.280726 0.777463 -0.917906
H18   H     H_    0.119758 0.187262 0.795205 0.247939
H19   H     H_    0.085058 0.351996 0.814927 0.265467
H20   H     H_    0.260458 0.299385 0.786452 0.262187
Cl1   Cl    Cl    0.758077 0.144497 0.574239 -0.668224
Cl2   Cl    Cl    0.710641 0.268791 0.359134 -0.563336
O10   O     O_3   0.923786 0.166052 0.270251 -0.533478
C40   C     C_3   0.906322 0.218490 0.199946 0.126495
H21   H     H_    0.009571 0.226196 0.167758 0.161509
H22   H     H_    0.856954 0.312460 0.210120 0.157484
C41   C     C_3   0.812021 0.131767 0.150302 -0.305608
H23   H     H_    0.860784 0.038166 0.138730 0.213076
H24   H     H_    0.709505 0.121771 0.182917 0.256659
C42   C     C_3   0.787631 0.181236 0.072832 -0.951663
H25   H     H_    0.735691 0.273301 0.083071 0.274243
H26   H     H_    0.719143 0.115726 0.038571 0.259171
H27   H     H_    0.888320 0.189897 0.038453 0.262041
Cl3   Cl    Cl    0.227400 0.161570 0.273277 -0.630168
O11   O     O_3   0.768192 0.583389 0.271440 -0.576623
C43   C     C_3   0.817160 0.705505 0.262124 0.095865
H28   H     H_    0.806551 0.761249 0.319990 0.164074
H29   H     H_    0.757484 0.756239 0.221969 0.087164
C44   C     C_3   0.971987 0.702078 0.233871 -0.378248
H30   H     H_    0.982997 0.657979 0.172868 0.197980
H31   H     H_    0.012232 0.799175 0.234631 0.200909
C45   C     C_3   0.060381 0.630164 0.284627 -0.752282
H32   H     H_    0.043306 0.665972 0.347045 0.240325
H33   H     H_    0.172809 0.640495 0.266664 0.216191
H34   H     H_    0.033080 0.529523 0.277521 0.247006
O12   O     O_3   0.341470 0.378804 0.094944 -0.599641
C46   C     C_3   0.210101 0.437780 0.102626 0.071940
H35   H     H_    0.218799 0.541480 0.108935 0.176181
H36   H     H_    0.149155 0.408547 0.154499 0.133985
C47   C     C_3   0.133199 0.396981 0.029341 -0.294711
H37   H     H_    0.196072 0.423164 0.977240 0.234456
H38   H     H_    0.120547 0.294012 0.023410 0.217197
C48   C     C_3   0.989990 0.457200 0.032307 -0.998472
H39   H     H_    0.927376 0.433276 0.084844 0.267364
H40   H     H_    0.934822 0.421992 0.979732 0.261559
H41   H     H_    0.000770 0.559983 0.033938 0.254802
O13   O     O_3   0.240598 0.594307 0.747312 -0.595580
C49   C     C_3   0.198588 0.719182 0.770036 0.070361
H42   H     H_    0.190327 0.766712 0.716529 0.146632
H43   H     H_    0.274595 0.776196 0.805269 0.080201
C50   C     C_3   0.055855 0.722092 0.815418 -0.359075
H44   H     H_    0.058213 0.664903 0.865090 0.210652
H45   H     H_    0.032025 0.819632 0.839465 0.172966
C51   C     C_3   0.939282 0.674193 0.763838 -0.794906
H46   H     H_    0.931160 0.734142 0.715944 0.226057
H47   H     H_    0.838287 0.677604 0.799046 0.235391
H48   H     H_    0.959384 0.576433 0.739013 0.270455
O14   O     O_3   0.403602 0.653135 0.027173 -0.626046
C52   C     C_3   0.456074 0.775186 0.023844 0.015815
H49   H     H_    0.465200 0.799567 0.962626 0.141672
H50   H     H_    0.560464 0.784419 0.049019 0.147214
C53   C     C_3   0.355061 0.866275 0.071561 -0.339942
H51   H     H_    0.251336 0.859185 0.045992 0.212400
H52   H     H_    0.341932 0.841282 0.132410 0.239360
C54   C     C_3   0.408088 0.000310 0.072746 -0.819693
H53   H     H_    0.507983 0.010740 0.102049 0.255937
H54   H     H_    0.330014 0.064298 0.105347 0.304927
H55   H     H_    0.424404 0.026911 0.012456 0.238730

loop_
_geom_bond_atom_site_label_1
_geom_bond_atom_site_label_2
_ccdc_geom_bond_type
C23   O5    A    
C38   H17   S    
O11   C43   S    
C37   H15   S    
C2    O13   S    
C16   C21   A    
C11   C13   A    
C31   O8    A    
C35   C36   A    
C40   C41   S    
C1    O1    A    
C4    H8    S    
C23   O6    A    
C48   H40   S    
C34   H13   S    
O9    C37   S    
C11   H4    S    
C30   H10   S    
Cu1   Cu2   S    
C40   H22   S    
C18   C19   A    
C53   H52   S    
C3    C7    A    
C5    C6    A    
C38   C39   S    
Cu2   N1    S    
C15   C16   A    
C51   H46   S    
C47   C48   S    
C2    C32   A    
C34   C35   A    
C39   H19   S    
C1    C18   S    
C49   H42   S    
C52   C53   S    
Cu1   O3    S    
C10   C31   S    
Cu2   O2    S    
C19   C20   A    
C16   C17   A    
Cu1   O5    S    
Cu2   O8    S    
Cu1   N2    S    
C43   H28   S    
C38   H16   S    
C37   C38   S    
C22   C28   A    
C13   C14   A    
C12   C32   S    
C47   H37   S    
C30   N2    A    
C33   C34   A    
C48   H41   S    
C9    H11   S    
C24   C25   A    
C44   H30   S    
C41   H24   S    
C8    C9    D    
C45   H34   S    
C25   C26   A    
C37   H14   S    
C29   H7    S    
C8    C35   S    
C31   O7    A    
C39   H20   S    
C47   H38   S    
O10   C40   S    
C54   H54   S    
C29   C30   A    
C44   H31   S    
Cu2   O4    S    
C46   H35   S    
C43   C44   S    
C17   C18   A    
C26   C27   A    
C45   H32   S    
C33   H1    S    
C40   H21   S    
C45   H33   S    
C49   C50   S    
C52   H49   S    
C12   O3    A    
C26   H9    S    
C53   C54   S    
Cu1   O1    S    
C46   H36   S    
C43   H29   S    
O12   C46   S    
C42   H26   S    
C21   C23   S    
C22   C24   A    
C41   H23   S    
C12   O4    A    
C4    C10   A    
C3    C4    A    
C13   H5    S    
C36   H12   S    
O14   C52   S    
C8    O14   S    
C14   H6    S    
C50   H44   S    
C2    C36   A    
C7    C9    S    
C11   C17   A    
C41   C42   S    
C27   N2    A    
C24   O10   S    
C6    C7    A    
C42   H27   S    
C48   H39   S    
C51   H48   S    
C32   C33   A    
C50   C51   S    
C1    O2    A    
C54   H55   S    
C5    C10   A    
O13   C49   S    
C44   C45   S    
C28   N1    A    
C3    O12   S    
C25   Cl3   S    
C15   O9    S    
C51   H47   S    
C20   Cl1   S    
C6    H2    S    
C39   H18   S    
C49   H43   S    
C52   H50   S    
Cu1   O7    S    
Cu2   O6    S    
C5    O11   S    
C19   H3    S    
C46   C47   S    
C20   C21   A    
C42   H25   S    
C27   C28   A    
C22   Cl2   S    
C14   C15   A    
C54   H53   S    
C53   H51   S    
C50   H45   S    
C29   N1    A    
