data_mof_unit_20666.cif
_audit_creation_date              2013-03-05T15:40:59-0500
_audit_creation_method            fapswitch 2.2
_symmetry_space_group_name_H-M    P1
_symmetry_Int_Tables_number       1
_space_group_crystal_system       triclinic
_cell_length_a                    28.629509
_cell_length_b                    7.228668
_cell_length_c                    17.223534
_cell_angle_alpha                 89.806304
_cell_angle_beta                  106.024193
_cell_angle_gamma                 90.319173
_cell_volume                      3425.90976862

loop_
_atom_site_label
_atom_site_type_symbol
_atom_site_description
_atom_site_fract_x
_atom_site_fract_y
_atom_site_fract_z
_atom_type_partial_charge
O1    O     O_R   0.000700 0.436510 0.857920 -0.531051
O2    O     O_R   0.999300 0.563490 0.142080 -0.507141
O3    O     O_R   0.999300 0.936510 0.642080 -0.529606
O4    O     O_R   0.000700 0.063490 0.357920 -0.507019
O5    O     O_R   0.930080 0.766380 0.721890 -0.547567
O6    O     O_R   0.069920 0.233620 0.278110 -0.521988
O7    O     O_R   0.069920 0.266380 0.778110 -0.533665
O8    O     O_R   0.930080 0.733620 0.221890 -0.526687
C1    C     C_R   0.910862 0.596547 0.711019 0.904622
C2    C     C_R   0.089317 0.402476 0.297267 0.876173
C3    C     C_R   0.089166 0.096749 0.787674 0.860539
C4    C     C_R   0.910703 0.902299 0.204816 0.877589
O9    O     O_R   0.996180 0.766230 0.862310 -0.559064
O10   O     O_R   0.003820 0.233770 0.137690 -0.559773
O11   O     O_R   0.003820 0.266230 0.637690 -0.552293
O12   O     O_R   0.996180 0.733770 0.362310 -0.558875
O13   O     O_R   0.065870 0.936460 0.783500 -0.533993
O14   O     O_R   0.934130 0.063540 0.216500 -0.566575
O15   O     O_R   0.934130 0.436460 0.716500 -0.556341
O16   O     O_R   0.065870 0.563540 0.283500 -0.562555
C5    C     C_R   0.999355 0.595808 0.894484 0.778532
C6    C     C_R   0.001045 0.404226 0.105732 0.813427
C7    C     C_R   0.001024 0.096188 0.605538 0.768091
C8    C     C_R   0.999346 0.903959 0.394544 0.813257
O17   O     O_3   0.022790 0.603020 0.723980 -0.263932
O18   O     O_3   0.977210 0.396980 0.276020 -0.287088
O19   O     O_3   0.977210 0.103020 0.776020 -0.291690
O20   O     O_3   0.022790 0.896980 0.223980 -0.280557
V1    V     V_3+5 0.995770 0.877900 0.754830 1.206369
V2    V     V_3+5 0.004230 0.122100 0.245170 1.224232
V3    V     V_3+5 0.004230 0.377900 0.745170 1.216962
V4    V     V_3+5 0.995770 0.622100 0.254830 1.225563
C9    C     C_2   0.995874 0.081617 0.517305 0.202834
C10   C     C_2   0.005440 0.919748 0.482866 0.214213
C11   C     C_2   0.004949 0.580960 0.982693 0.190741
C12   C     C_2   0.995602 0.418616 0.017719 0.191915
C13   C     C_R   0.685085 0.033832 0.972824 0.728777
C14   C     C_R   0.319726 0.103908 0.908046 0.650540
C15   C     C_R   0.316858 0.500792 0.541619 0.737503
C16   C     C_R   0.680811 0.629375 0.599564 0.616783
O21   O     O_2   0.715140 0.060203 0.925777 -0.395473
O22   O     O_2   0.294996 0.153017 0.961056 -0.466888
O23   O     O_2   0.287782 0.523957 0.590197 -0.386181
O24   O     O_2   0.704849 0.721711 0.554158 -0.460362
N1    N     N_R   0.704717 0.994407 0.053474 -0.426057
N2    N     N_R   0.295359 0.080413 0.828372 -0.442079
N3    N     N_R   0.296081 0.474694 0.459991 -0.420484
N4    N     N_R   0.706233 0.554604 0.672754 -0.442801
C17   C     C_R   0.675396 0.976221 0.103646 0.670456
C18   C     C_R   0.320815 0.059344 0.772119 0.671720
C19   C     C_R   0.324880 0.458383 0.408848 0.676844
C20   C     C_R   0.681331 0.537158 0.730720 0.628848
C21   C     C_R   0.782994 0.100733 0.148028 0.397730
C22   C     C_R   0.212538 0.202491 0.757711 0.395368
C23   C     C_R   0.218607 0.596861 0.368617 0.388568
C24   C     C_R   0.793414 0.515855 0.762925 0.378784
C25   C     C_R   0.832292 0.068249 0.186712 -0.168283
C26   C     C_R   0.163064 0.209243 0.753967 -0.169386
C27   C     C_R   0.169277 0.570393 0.326871 -0.166686
C28   C     C_R   0.840707 0.578037 0.767370 -0.234709
C29   C     C_R   0.831640 0.793875 0.105909 0.259804
C30   C     C_R   0.170807 0.939213 0.839931 0.277016
C31   C     C_R   0.166798 0.282930 0.397956 0.277868
C32   C     C_R   0.826860 0.514495 0.625253 0.280996
C33   C     C_R   0.781752 0.823509 0.066952 0.291064
C34   C     C_R   0.220623 0.931086 0.844882 0.307317
C35   C     C_R   0.217061 0.303736 0.439912 0.296018
C36   C     C_R   0.777420 0.475064 0.619264 0.312876
C37   C     C_R   0.756940 0.975570 0.088101 0.073358
C38   C     C_R   0.242659 0.068272 0.807389 0.050928
C39   C     C_R   0.243415 0.461733 0.425270 0.070567
C40   C     C_R   0.758525 0.511829 0.686033 0.042895
C41   C     C_R   0.603568 0.032493 0.991459 -0.114507
C42   C     C_R   0.397387 0.071877 0.878106 -0.175107
C43   C     C_R   0.397899 0.500155 0.520805 -0.110838
C44   C     C_R   0.603823 0.567751 0.628654 -0.157404
C45   C     C_R   0.633688 0.047839 0.939211 -0.065557
C46   C     C_R   0.370202 0.077550 0.935105 -0.096766
C47   C     C_R   0.368545 0.503081 0.574779 -0.067611
C48   C     C_R   0.629568 0.618232 0.572830 -0.086506
C49   C     C_R   0.611917 0.085597 0.856442 0.420980
C50   C     C_R   0.393323 0.044185 0.016890 0.431936
C51   C     C_R   0.391846 0.500472 0.659268 0.417278
C52   C     C_R   0.603437 0.661586 0.492857 0.437025
C53   C     C_R   0.625234 0.005808 0.074693 -0.069064
C54   C     C_R   0.372333 0.067087 0.795795 -0.107032
C55   C     C_R   0.375567 0.478733 0.437462 -0.067047
C56   C     C_R   0.629949 0.542045 0.709220 -0.121841
C57   C     C_R   0.857167 0.916423 0.167068 -0.260929
C58   C     C_R   0.142025 0.083535 0.796488 -0.268820
C59   C     C_R   0.142849 0.415121 0.339773 -0.267509
C60   C     C_R   0.857760 0.579988 0.698650 -0.237071
C61   C     C_R   0.476989 0.066874 0.846374 0.015543
C62   C     C_R   0.523703 0.054174 0.017439 -0.007221
C63   C     C_R   0.525617 0.530053 0.663504 0.026009
C64   C     C_R   0.477552 0.525206 0.493573 -0.015518
C65   C     C_R   0.472372 0.050960 0.988024 0.009166
C66   C     C_R   0.529481 0.068880 0.877334 0.103583
C67   C     C_R   0.527503 0.570212 0.521799 0.011097
C68   C     C_R   0.473149 0.515102 0.634088 0.096907
C69   C     C_R   0.449189 0.065276 0.903960 0.017799
C70   C     C_R   0.551974 0.048645 0.961658 0.062729
C71   C     C_R   0.552142 0.553990 0.604822 0.030079
C72   C     C_R   0.449621 0.516739 0.549714 0.062312
C73   C     C_R   0.450064 0.057402 0.761602 0.301146
C74   C     C_R   0.548260 0.068518 0.101531 0.304790
C75   C     C_R   0.553658 0.533632 0.747727 0.303678
C76   C     C_R   0.454669 0.482640 0.411019 0.306858
C77   C     C_R   0.398889 0.059320 0.739175 -0.084151
C78   C     C_R   0.597379 0.025838 0.128823 -0.067969
C79   C     C_R   0.604629 0.529085 0.767599 -0.072566
C80   C     C_R   0.404259 0.468302 0.383974 -0.067311
O25   O     O_2   0.296711 0.029446 0.694132 -0.433824
O26   O     O_2   0.694950 0.932470 0.182179 -0.532970
O27   O     O_2   0.704995 0.522665 0.809312 -0.411035
O28   O     O_2   0.304321 0.423823 0.329722 -0.539150
C81   C     C_R   0.560764 0.103983 0.828478 -0.030503
C82   C     C_R   0.443308 0.016342 0.040571 -0.072788
C83   C     C_R   0.443172 0.483890 0.684994 -0.057135
C84   C     C_R   0.552977 0.642891 0.469312 -0.059753
H1    H     H_    0.140633 0.314547 0.717042 0.142172
H2    H     H_    0.851858 0.165221 0.231930 0.141340
H3    H     H_    0.866813 0.594230 0.825983 0.118370
H4    H     H_    0.150975 0.673910 0.283738 0.159285
H5    H     H_    0.379429 0.049595 0.675719 0.185547
H6    H     H_    0.614888 0.028921 0.193157 0.154332
H7    H     H_    0.624912 0.524201 0.830758 0.197070
H8    H     H_    0.387691 0.440737 0.320600 0.143770
H9    H     H_    0.546215 0.163869 0.769930 0.085418
H10   H     H_    0.458778 0.960964 0.100355 0.128008
H11   H     H_    0.459039 0.431542 0.744242 0.086969
H12   H     H_    0.533854 0.688700 0.409166 0.134415
O29   O     O_3   0.980025 0.235919 0.469210 -0.631811
C85   C     C_3   0.930935 0.269164 0.465541 0.254075
H13   H     H_    0.928908 0.337510 0.522037 0.146323
H14   H     H_    0.908880 0.139066 0.456383 0.042839
C86   C     C_3   0.908628 0.397423 0.395093 -0.156106
H15   H     H_    0.909098 0.330227 0.337652 0.110924
H16   H     H_    0.870259 0.426908 0.392678 0.160290
H17   H     H_    0.929130 0.529807 0.402059 0.141461
O30   O     O_3   0.024506 0.769025 0.530952 -0.633038
C87   C     C_3   0.075206 0.766253 0.540999 0.252615
H18   H     H_    0.092231 0.904285 0.559563 0.071965
H19   H     H_    0.083113 0.722293 0.484048 0.102767
C88   C     C_3   0.098898 0.629867 0.607053 -0.239952
H20   H     H_    0.138429 0.626602 0.613333 0.140680
H21   H     H_    0.093676 0.675075 0.665509 0.151682
H22   H     H_    0.083215 0.489341 0.591808 0.150401
O31   O     O_3   0.021157 0.735880 0.030338 -0.637107
C89   C     C_3   0.069851 0.774528 0.031583 0.258761
H23   H     H_    0.071057 0.846167 0.974993 0.119203
H24   H     H_    0.092305 0.646460 0.039259 0.049637
C90   C     C_3   0.092767 0.902199 0.101894 -0.217375
H25   H     H_    0.094132 0.831946 0.159835 0.131099
H26   H     H_    0.130433 0.938150 0.101342 0.119877
H27   H     H_    0.071411 0.031461 0.096865 0.140748
O32   O     O_3   0.980469 0.260746 0.971771 -0.644862
C91   C     C_3   0.929660 0.240642 0.957964 0.285801
H28   H     H_    0.910616 0.342910 0.911924 0.071620
H29   H     H_    0.917897 0.259687 0.013997 0.088328
C92   C     C_3   0.914082 0.047048 0.926550 -0.238666
H30   H     H_    0.934118 0.942168 0.970221 0.170604
H31   H     H_    0.874500 0.028569 0.918657 0.127457
H32   H     H_    0.921501 0.025562 0.867406 0.143109
N5    N     N_R   0.856268 0.642472 0.080918 0.118512
O33   O     O_R   0.893388 0.673559 0.052907 -0.394394
O34   O     O_R   0.839016 0.475208 0.079265 -0.298804
N6    N     N_R   0.150562 0.804320 0.882551 0.104217
O35   O     O_R   0.131316 0.653952 0.845709 -0.335909
O36   O     O_R   0.161940 0.810376 0.960989 -0.346528
N7    N     N_R   0.139719 0.129649 0.416270 0.116938
O37   O     O_R   0.150250 0.961487 0.400734 -0.340884
O38   O     O_R   0.104839 0.158285 0.449689 -0.391529
N8    N     N_R   0.846051 0.480494 0.558240 0.094591
O39   O     O_R   0.840106 0.319329 0.523379 -0.344888
O40   O     O_R   0.870614 0.608776 0.533421 -0.392846
N9    N     N_R   0.757425 0.707393 0.000884 0.156954
O41   O     O_R   0.771732 0.710047 0.935572 -0.235107
O42   O     O_R   0.716467 0.627187 0.999806 -0.285979
N10   N     N_R   0.248547 0.778850 0.886609 0.100506
O43   O     O_R   0.267957 0.788412 0.964240 -0.253984
O44   O     O_R   0.242312 0.616947 0.852649 -0.317530
N11   N     N_R   0.241035 0.164763 0.497381 0.162988
O45   O     O_R   0.218241 0.082491 0.543601 -0.227015
O46   O     O_R   0.285934 0.119687 0.504447 -0.298455
N12   N     N_R   0.746816 0.390759 0.547249 0.133136
O47   O     O_R   0.747851 0.447837 0.475992 -0.266764
O48   O     O_R   0.715918 0.262147 0.552849 -0.356583
O49   O     O_3   0.641704 0.124015 0.806499 -0.585194
C93   C     C_3   0.622402 0.055253 0.727229 0.233094
H33   H     H_    0.595240 0.153009 0.690639 0.060244
H34   H     H_    0.605425 0.916428 0.727070 0.065125
C94   C     C_3   0.663077 0.038755 0.686766 -0.191790
H35   H     H_    0.690625 0.938358 0.720061 0.149570
H36   H     H_    0.647942 0.992332 0.623450 0.086113
H37   H     H_    0.680897 0.174629 0.685840 0.171166
O50   O     O_3   0.366039 0.002078 0.069786 -0.589006
C95   C     C_3   0.376248 0.130419 0.133973 0.265763
H38   H     H_    0.372211 0.275522 0.110965 0.095382
H39   H     H_    0.413572 0.110703 0.174410 0.106852
C96   C     C_3   0.340417 0.099201 0.183595 -0.167607
H40   H     H_    0.343759 0.955790 0.207815 0.149806
H41   H     H_    0.348044 0.197394 0.234879 0.096429
H42   H     H_    0.302691 0.121156 0.145369 0.185916
O51   O     O_3   0.363822 0.493872 0.714424 -0.575477
C97   C     C_3   0.389361 0.561455 0.792165 0.251002
H43   H     H_    0.409105 0.691741 0.787347 0.076506
H44   H     H_    0.415103 0.455905 0.826162 0.056428
C98   C     C_3   0.354855 0.602600 0.842787 -0.174580
H45   H     H_    0.340404 0.472047 0.861169 0.151036
H46   H     H_    0.374687 0.676566 0.898638 0.052245
H47   H     H_    0.324579 0.690311 0.808254 0.176514
O52   O     O_3   0.626711 0.727554 0.437704 -0.585797
C99   C     C_3   0.627699 0.586073 0.381756 0.258344
H48   H     H_    0.590346 0.550577 0.344586 0.104674
H49   H     H_    0.645480 0.459300 0.413254 0.125483
C100  C     C_3   0.656547 0.653006 0.324936 -0.134626
H50   H     H_    0.694076 0.691166 0.359813 0.202577
H51   H     H_    0.658276 0.541855 0.281464 0.110136
H52   H     H_    0.638681 0.775843 0.290822 0.131657
N13   N     N_R   0.230746 0.331805 0.709745 0.161208
O53   O     O_R   0.203179 0.386216 0.640198 -0.322167
O54   O     O_R   0.273208 0.407171 0.737303 -0.278894
N14   N     N_R   0.760238 0.262838 0.169547 0.128665
O55   O     O_R   0.778197 0.341934 0.239289 -0.325201
O56   O     O_R   0.724125 0.341912 0.117466 -0.303698
N15   N     N_R   0.788775 0.391283 0.825810 0.155683
O57   O     O_R   0.764337 0.237866 0.806562 -0.296215
O58   O     O_R   0.817192 0.408096 0.898800 -0.280881
N16   N     N_R   0.243050 0.761158 0.351759 0.133367
O59   O     O_R   0.224928 0.855820 0.285990 -0.335123
O60   O     O_R   0.281882 0.824033 0.403648 -0.308419
N17   N     N_R   0.471861 0.033895 0.695936 0.056008
O61   O     O_R   0.503944 0.906232 0.698966 -0.390883
O62   O     O_R   0.451096 0.105420 0.625511 -0.401253
N18   N     N_R   0.526365 0.153303 0.158258 0.073798
O63   O     O_R   0.537177 0.096120 0.232818 -0.308281
O64   O     O_R   0.501532 0.304949 0.138748 -0.330329
N19   N     N_R   0.533339 0.553784 0.815266 0.053109
O65   O     O_R   0.554849 0.477997 0.884445 -0.399522
O66   O     O_R   0.502622 0.684750 0.815443 -0.395382
N20   N     N_R   0.481909 0.426606 0.356392 0.072434
O67   O     O_R   0.516874 0.307185 0.379795 -0.327428
O68   O     O_R   0.467025 0.470949 0.280262 -0.323530

loop_
_geom_bond_atom_site_label_1
_geom_bond_atom_site_label_2
_geom_bond_distance
_ccdc_geom_bond_type
O17   V3    1.776830 S    
C30   N6    1.431552 S    
N7    O37   1.300375 A    
C10   O30   1.386318 S    
O1    C5    1.320174 A    
N5    O33   1.300886 A    
C23   C27   1.409059 A    
O19   V1    1.784496 S    
C41   C70   1.428967 A    
O13   V1    1.973733 S    
C96   H40   1.110854 S    
O12   C8    1.343699 A    
O3    C7    1.320024 A    
C11   C12   1.376060 D    
C87   C88   1.516641 S    
C68   C72   1.423111 A    
C48   C52   1.409238 A    
C21   C37   1.419180 A    
N14   O55   1.301748 A    
C87   H19   1.113503 S    
C85   C86   1.520160 S    
C92   H30   1.110112 S    
O4    V2    2.015740 S    
C34   C38   1.418464 A    
O51   C97   1.423397 S    
C52   O52   1.384435 S    
C100  H52   1.109465 S    
O7    C3    1.338045 A    
N7    O38   1.300665 A    
O32   C91   1.414405 S    
C43   C47   1.415113 A    
C25   C57   1.403698 A    
C32   C36   1.417927 A    
O9    V1    2.014111 S    
C24   C28   1.406198 A    
O10   V2    2.014111 S    
C14   O22   1.350099 S    
N4    C20   1.382770 A    
N11   O46   1.300527 A    
C22   C26   1.401114 A    
O4    C8    1.318084 A    
N17   O62   1.301197 A    
C97   H44   1.110472 S    
C64   C67   1.413993 A    
C49   C81   1.416561 A    
O1    V3    2.018735 S    
C98   H47   1.107262 S    
N18   O63   1.301612 A    
O2    V4    2.018734 S    
C51   C83   1.418460 A    
C65   C82   1.409266 A    
O3    V1    2.015740 S    
N8    O39   1.301087 A    
C91   C92   1.521501 S    
C61   C73   1.452388 A    
C67   C84   1.407705 A    
C56   C79   1.395099 A    
C31   N7    1.432244 S    
C1    O15   1.328510 A    
C62   C74   1.428574 A    
N19   O65   1.301262 A    
C80   H8    1.081982 S    
C2    O16   1.334669 A    
C24   C40   1.422006 A    
C89   C90   1.520147 S    
O2    C6    1.320081 A    
N20   O68   1.301474 A    
C16   C48   1.413079 A    
C95   H38   1.115278 S    
O14   V2    1.973733 S    
N1    C17   1.366441 A    
C97   H43   1.110325 S    
C90   H26   1.110422 S    
C81   H9    1.070022 S    
N17   O61   1.296396 A    
C44   C56   1.395101 A    
C100  H51   1.110685 S    
C29   N5    1.435122 S    
C93   C94   1.518592 S    
C36   C40   1.425789 A    
C44   C71   1.425099 A    
O11   C7    1.342747 A    
C17   O26   1.350572 S    
C25   H2    1.081736 S    
N12   O47   1.301495 A    
O15   V3    1.977808 S    
N9    O42   1.300772 A    
N5    O34   1.300962 A    
C52   C84   1.394433 A    
C63   C75   1.451386 A    
N12   O48   1.301348 A    
C91   H29   1.115608 S    
C96   H41   1.108039 S    
C23   N16   1.443980 S    
C31   C59   1.417363 A    
O50   C95   1.412027 S    
C73   N17   1.445544 S    
N4    C40   1.484866 S    
O16   V4    1.977808 S    
C1    C60   1.479962 S    
C92   H32   1.108061 S    
C92   H31   1.110820 S    
N10   O44   1.299367 A    
N20   O67   1.301643 A    
O5    V1    1.976308 S    
C28   C60   1.399409 A    
C86   H17   1.109215 S    
C31   C35   1.428212 A    
O7    V3    1.983281 S    
C88   H21   1.108480 S    
C63   C71   1.431514 A    
N1    C37   1.455676 S    
O8    V4    1.983278 S    
C17   C53   1.401483 A    
C4    C57   1.494493 S    
C20   C56   1.414946 A    
C54   C77   1.393669 A    
C9    C10   1.376196 D    
C50   O50   1.386065 S    
C7    C9    1.489796 S    
C53   C78   1.392399 A    
C19   C55   1.404855 A    
C30   C34   1.406630 A    
C63   C68   1.450242 A    
C22   N13   1.433576 S    
N3    C19   1.368356 A    
C55   C80   1.395735 A    
C14   C46   1.404452 A    
C62   C65   1.416175 A    
C94   H36   1.108874 S    
C35   N11   1.444266 S    
O52   C99   1.413270 S    
C34   N10   1.433139 S    
C8    C10   1.487281 S    
C76   C80   1.392161 A    
C21   N14   1.442111 S    
C15   C47   1.431569 A    
C28   H3    1.083834 S    
N11   O45   1.300999 A    
C61   C69   1.432835 A    
O5    C1    1.334952 A    
N13   O53   1.300303 A    
C82   H10   1.078928 S    
C9    O29   1.388552 S    
O29   C85   1.411222 S    
C86   H16   1.109572 S    
C46   C50   1.401885 A    
C65   C69   1.420144 A    
C83   H11   1.065021 S    
N15   O57   1.301942 A    
C22   C38   1.418951 A    
C45   C49   1.415617 A    
O8    C4    1.340159 A    
C94   H37   1.106356 S    
N3    C39   1.463149 S    
C3    C58   1.482224 S    
C95   C96   1.521143 S    
C4    O14   1.329367 A    
C98   H45   1.108136 S    
O9    C5    1.342309 A    
N19   O66   1.296307 A    
C68   C83   1.402913 A    
C27   C59   1.401201 A    
C42   C54   1.401492 A    
C90   H27   1.109503 S    
N16   O60   1.299949 A    
C26   C58   1.399243 A    
C41   C53   1.409136 A    
C30   C58   1.411076 A    
C74   N18   1.438621 S    
C12   O32   1.388390 S    
C78   H6    1.083044 S    
C42   C69   1.426915 A    
C75   N19   1.445162 S    
C43   C55   1.409616 A    
N6    O35   1.301036 A    
O6    V2    1.976308 S    
C2    C59   1.507530 S    
C94   H35   1.109696 S    
C64   C72   1.415672 A    
C79   H7    1.083072 S    
C91   H28   1.111039 S    
C96   H42   1.110783 S    
C89   H24   1.116533 S    
C93   H33   1.110761 S    
C50   C82   1.391104 A    
C13   N1    1.376500 A    
C88   H20   1.107159 S    
C88   H22   1.110885 S    
N10   O43   1.300524 A    
C66   C81   1.409495 A    
C15   N3    1.380180 A    
C74   C78   1.390186 A    
C20   O27   1.340081 S    
C77   H5    1.083408 S    
C27   H4    1.082637 S    
C16   N4    1.379911 A    
C73   C77   1.408450 A    
C3    O13   1.325901 A    
C26   H1    1.083042 S    
C21   C25   1.405181 A    
C24   N15   1.439847 S    
N15   O58   1.300909 A    
C85   H14   1.116875 S    
C84   H12   1.081262 S    
C75   C79   1.404429 A    
C93   H34   1.112284 S    
C67   C71   1.413864 A    
C44   C48   1.409535 A    
C99   C100  1.520693 S    
N14   O56   1.300557 A    
O6    C2    1.342066 A    
C15   O23   1.344655 S    
O11   V3    2.019068 S    
C85   H13   1.108640 S    
C5    C11   1.486652 S    
O12   V4    2.019068 S    
C6    C12   1.483826 S    
C86   H15   1.107057 S    
N2    C18   1.373015 A    
C19   O28   1.350539 S    
C18   O25   1.347469 S    
O10   C6    1.341599 A    
O20   V2    1.784497 S    
C100  H50   1.110340 S    
C99   H49   1.114725 S    
N16   O59   1.301857 A    
C51   O51   1.403033 S    
C66   C70   1.424314 A    
O31   C89   1.414633 S    
C14   N2    1.367615 A    
C47   C51   1.423736 A    
C97   C98   1.518267 S    
C43   C72   1.430502 A    
C33   N9    1.430687 S    
C33   C37   1.414143 A    
C99   H48   1.113283 S    
N6    O36   1.300183 A    
C98   H46   1.110030 S    
N18   O64   1.301662 A    
C35   C39   1.425056 A    
C13   O21   1.347363 S    
O49   C93   1.414748 S    
C29   C57   1.415107 A    
N8    O40   1.301208 A    
N2    C38   1.453415 S    
C18   C54   1.418464 A    
C36   N12   1.441076 S    
C49   O49   1.394647 S    
C29   C33   1.417534 A    
C16   O24   1.348789 S    
C13   C45   1.428854 A    
C62   C70   1.417612 A    
N13   O54   1.294492 A    
N9    O41   1.299104 A    
C42   C46   1.411952 A    
C76   N20   1.438291 S    
C87   H18   1.116289 S    
C41   C45   1.411506 A    
C89   H23   1.111010 S    
C64   C76   1.425491 A    
C95   H39   1.112368 S    
C11   O31   1.390331 S    
C32   C60   1.409525 A    
C90   H25   1.109314 S    
O30   C87   1.413814 S    
C32   N8    1.431081 S    
C61   C66   1.449281 A    
O18   V4    1.776832 S    
C23   C39   1.424559 A    
