data_mof_unit_26309.cif
_audit_creation_date              2012-12-10T17:43:37-0500
_audit_creation_method            fapswitch 2.2
_symmetry_space_group_name_H-M    P1
_symmetry_Int_Tables_number       1
_space_group_crystal_system       triclinic
_cell_length_a                    15.0578
_cell_length_b                    10.624416
_cell_length_c                    9.953254
_cell_angle_alpha                 93.076272
_cell_angle_beta                  92.584557
_cell_angle_gamma                 93.443795
_cell_volume                      1585.2931889

loop_
_atom_site_label
_atom_site_type_symbol
_atom_type_description
_atom_site_fract_x
_atom_site_fract_y
_atom_site_fract_z
_atom_type_partial_charge
C1    C     C_R   0.498378 0.260505 0.496105 0.838351
C2    C     C_R   0.914610 0.575976 0.626731 -0.005846
C3    C     C_R   0.942447 0.535130 0.257458 -0.184942
C4    C     C_R   0.034009 0.532205 0.253873 -0.113421
C5    C     C_R   0.086038 0.526405 0.374075 -0.021021
C6    C     C_R   0.047309 0.550366 0.498516 0.041465
C7    C     C_R   0.099585 0.557781 0.619364 0.106398
C8    C     C_R   0.060276 0.576911 0.742773 -0.207146
C9    C     C_R   0.968548 0.584430 0.746708 -0.105008
C10   C     C_R   0.173725 0.489414 0.373601 0.360725
C11   C     C_R   0.228530 0.508471 0.493703 -0.188388
C12   C     C_R   0.325749 0.498513 0.497181 0.894384
C13   C     C_R   0.190106 0.542245 0.615369 -0.292285
C14   C     C_R   0.334098 0.116038 0.541795 -0.180028
C15   C     C_R   0.261456 0.046272 0.588094 -0.186158
C16   C     C_R   0.274456 0.930964 0.644158 -0.215716
C17   C     C_R   0.359498 0.883826 0.648860 0.411807
C18   C     C_R   0.424827 0.937068 0.566393 -0.024334
C19   C     C_R   0.416740 0.061520 0.531320 0.053475
C20   C     C_R   0.492169 0.127479 0.486629 -0.048935
C21   C     C_R   0.567375 0.067195 0.449495 -0.182523
C22   C     C_R   0.568422 0.939015 0.459105 -0.144060
C23   C     C_R   0.497303 0.739908 0.504399 0.860278
C24   C     C_R   0.497991 0.873986 0.516663 -0.051307
C25   C     C_R   0.404875 0.306090 0.119680 -0.005423
C26   C     C_R   0.354871 0.212597 0.041530 -0.011851
C27   C     C_R   0.346724 0.220656 0.903571 -0.147487
C28   C     C_R   0.391835 0.318773 0.843062 -0.111751
C29   C     C_R   0.449242 0.408344 0.918917 0.138862
C30   C     C_R   0.452426 0.405360 0.062579 0.038927
C31   C     C_R   0.548677 0.589621 0.080875 0.487845
C32   C     C_R   0.547328 0.589172 0.936753 -0.079708
C33   C     C_R   0.673527 0.510752 0.503381 0.927772
C34   C     C_R   0.821277 0.580470 0.626863 0.365871
C35   C     C_R   0.770226 0.536299 0.508279 -0.230431
C36   C     C_R   0.811875 0.521866 0.386149 -0.311801
C37   C     C_R   0.902811 0.540458 0.381398 0.116710
C38   C     C_R   0.955002 0.557746 0.502319 0.035480
H1    H     H_    0.325088 0.210854 0.511852 0.164767
H2    H     H_    0.197439 0.087085 0.592875 0.184255
H3    H     H_    0.221892 0.888483 0.700868 0.184818
H4    H     H_    0.625023 0.890506 0.425097 0.147641
H5    H     H_    0.398963 0.304658 0.224404 0.229103
H6    H     H_    0.318048 0.137879 0.089023 0.198742
H7    H     H_    0.303395 0.152458 0.843842 0.183758
H8    H     H_    0.377937 0.323718 0.737782 0.189928
H9    H     H_    0.773645 0.495060 0.293125 0.193146
H10   H     H_    0.582921 0.663191 0.888095 0.241127
H11   H     H_    0.902559 0.529374 0.163605 0.161379
H12   H     H_    0.063135 0.529636 0.156485 0.172357
H13   H     H_    0.229733 0.551414 0.709079 0.228649
H14   H     H_    0.100052 0.581345 0.836664 0.155742
H15   H     H_    0.940482 0.589494 0.844688 0.205330
H16   H     H_    0.624873 0.119397 0.413647 0.149493
N1    N     N_R   0.499150 0.498800 0.142780 -0.151898
N2    N     N_R   0.499120 0.498720 0.857170 -0.119902
O1    O     O_R   0.500000 0.316780 0.614690 -0.631494
O2    O     O_R   0.499990 0.316750 0.385360 -0.658292
O3    O     O_R   0.367850 0.499980 0.614680 -0.618321
O4    O     O_R   0.367840 0.499960 0.385350 -0.566594
O5    O     O_R   0.500010 0.683250 0.614640 -0.520984
O6    O     O_R   0.500000 0.683220 0.385310 -0.563973
O7    O     O_R   0.632160 0.500040 0.614650 -0.528704
O8    O     O_R   0.632150 0.500020 0.385320 -0.622202
Zn1   Zn    Zn3+2 0.500010 0.500020 0.653130 1.055192
Zn2   Zn    Zn3+2 0.499990 0.499980 0.346870 1.016481
S1    S     S_3+6 0.771185 0.657250 0.764788 -0.030835
O9    O     O_2   0.739924 0.558221 0.856997 -0.352131
O10   O     O_2   0.835534 0.751209 0.842030 -0.329086
O11   O     O_3   0.684476 0.735910 0.709019 -0.540595
H17   H     H_    0.709491 0.793705 0.643530 0.338521
S2    S     S_3+6 0.393079 0.830414 0.807728 0.016270
O12   O     O_2   0.492222 0.851205 0.831808 -0.267853
O13   O     O_2   0.348779 0.904681 0.915845 -0.337685
O14   O     O_3   0.361778 0.677293 0.817554 -0.567671
H18   H     H_    0.355143 0.665401 0.914710 0.369977
O15   O     O_3   0.594347 0.685785 0.160851 -0.580860
C39   C     C_3   0.683779 0.702650 0.124366 0.148942
H19   H     H_    0.687958 0.752600 0.029511 0.220318
H20   H     H_    0.715162 0.610613 0.113492 0.156411
C40   C     C_3   0.737206 0.784911 0.232740 -0.801259
H21   H     H_    0.728488 0.746311 0.332977 0.244739
H22   H     H_    0.808998 0.787820 0.211120 0.235422
H23   H     H_    0.714813 0.882627 0.234105 0.251937
S3    S     S_3+6 0.203456 0.386848 0.238911 -0.009301
O16   O     O_2   0.254610 0.284463 0.297468 -0.357902
O17   O     O_2   0.123726 0.323681 0.160635 -0.292139
O18   O     O_3   0.264937 0.471082 0.134558 -0.561177
H24   H     H_    0.224731 0.532979 0.098624 0.337633

loop_
_geom_bond_atom_site_label_1
_geom_bond_atom_site_label_2
_ccdc_geom_bond_type
O7    Zn1   S    
C10   S3    S    
C35   C36   A    
C25   H5    S    
C40   H21   S    
C3    H11   S    
C26   H6    S    
C7    C8    A    
O15   C39   S    
C28   H8    S    
C26   C27   A    
C29   C30   A    
C18   C24   A    
C5    C6    A    
C36   C37   A    
C34   C35   A    
C21   H16   S    
C39   H20   S    
C16   C17   A    
C15   C16   A    
C36   H9    S    
C18   C19   A    
C14   H1    S    
C13   H13   S    
C12   O3    A    
O2    Zn2   S    
C23   O6    A    
C19   C20   A    
C8    C9    A    
C23   C24   S    
C6    C38   A    
O11   H17   S    
C8    H14   S    
C2    C34   A    
O4    Zn2   S    
C21   C22   A    
C32   H10   S    
S2    O14   S    
C40   H22   S    
C31   O15   S    
S3    O17   D    
O6    Zn2   S    
S1    O9    D    
S2    O13   D    
C39   H19   S    
C4    C5    A    
C25   C26   A    
S3    O16   D    
C4    H12   S    
S1    O10   D    
O8    Zn2   S    
O14   H18   S    
C37   C38   A    
C1    O1    A    
C2    C38   A    
C31   C32   A    
C23   O5    A    
C33   O7    A    
C17   C18   A    
C20   C21   A    
C22   C24   A    
C9    H15   S    
C3    C4    A    
C40   H23   S    
S3    O18   S    
C25   C30   A    
C28   C29   A    
C1    C20   S    
C14   C19   A    
O1    Zn1   S    
S2    O12   D    
C34   S1    S    
C11   C12   S    
C6    C7    A    
C29   N2    A    
C30   N1    A    
S1    O11   S    
C5    C10   A    
C1    O2    A    
O3    Zn1   S    
C11   C13   A    
C39   C40   S    
C27   H7    S    
C22   H4    S    
C33   O8    A    
C33   C35   S    
C15   H2    S    
C10   C11   A    
C12   O4    A    
O5    Zn1   S    
C7    C13   A    
O18   H24   S    
C3    C37   A    
C17   S2    S    
C27   C28   A    
C14   C15   A    
C31   N1    A    
C2    C9    A    
C16   H3    S    
C32   N2    A    
N2    Zn1   S    
N1    Zn2   S    
