data_mof_unit_8423.cif
_audit_creation_date              2012-12-10T18:58:45-0500
_audit_creation_method            fapswitch 2.2
_symmetry_space_group_name_H-M    P1
_symmetry_Int_Tables_number       1
_space_group_crystal_system       triclinic
_cell_length_a                    12.981254
_cell_length_b                    10.839309
_cell_length_c                    9.568259
_cell_angle_alpha                 89.776945
_cell_angle_beta                  95.676551
_cell_angle_gamma                 90.69762
_cell_volume                      1339.62248453

loop_
_atom_site_label
_atom_site_type_symbol
_atom_type_description
_atom_site_fract_x
_atom_site_fract_y
_atom_site_fract_z
_atom_type_partial_charge
C1    C     C_R   0.500856 0.262443 0.500282 0.794328
C2    C     C_R   0.027790 0.521044 0.564795 -0.009877
C3    C     C_R   0.973538 0.465358 0.444833 -0.024672
C4    C     C_R   0.866304 0.452710 0.437265 -0.115982
C5    C     C_R   0.865544 0.554721 0.661939 -0.183855
C6    C     C_R   0.972963 0.563906 0.674596 0.417005
C7    C     C_R   0.509221 0.063203 0.626703 0.150964
C8    C     C_R   0.508258 0.129345 0.501080 -0.103192
C9    C     C_R   0.517470 0.065131 0.375704 -0.198133
C10   C     C_R   0.515750 0.936723 0.375218 -0.137466
C11   C     C_R   0.506392 0.871046 0.500269 -0.111893
C12   C     C_R   0.300764 0.498422 0.474249 0.830308
C13   C     C_R   0.508115 0.935925 0.626264 0.119476
C14   C     C_3   0.433858 0.929089 0.736017 -0.437518
C15   C     C_3   0.435987 0.068931 0.737396 -0.469122
C16   C     C_R   0.533148 0.601755 0.076406 0.144452
C17   C     C_R   0.457773 0.404707 0.069127 -0.036483
C18   C     C_R   0.458177 0.404481 0.920543 -0.021272
C19   C     C_R   0.529291 0.603268 0.928874 0.100696
C20   C     C_3   0.628911 0.671019 0.926601 -0.495835
C21   C     C_3   0.638625 0.662662 0.085390 0.838296
C22   C     C_R   0.500078 0.737619 0.499793 0.816449
C23   C     C_R   0.699322 0.499331 0.526160 0.850210
C24   C     C_R   0.812026 0.501306 0.542630 -0.145289
C25   C     C_R   0.188316 0.491464 0.460691 -0.164083
C26   C     C_R   0.027287 0.424796 0.333609 0.676779
C27   C     C_R   0.134238 0.438961 0.341255 -0.239149
C28   C     C_R   0.135246 0.532473 0.571518 -0.194203
Cu1   Cu    Cu3+1 0.499990 0.499980 0.640670 0.969456
Cu2   Cu    Cu3+1 0.500010 0.500020 0.359330 1.008601
H1    H     H_    0.824630 0.405739 0.348970 0.237357
H2    H     H_    0.468630 0.888094 0.835989 0.208487
H3    H     H_    0.360539 0.110642 0.698957 0.202191
H4    H     H_    0.473529 0.107644 0.837411 0.202702
H5    H     H_    0.424754 0.326627 0.120246 0.133570
H6    H     H_    0.425378 0.326419 0.861262 0.130023
H7    H     H_    0.687012 0.617271 0.876103 0.215530
H8    H     H_    0.618341 0.766503 0.885807 0.195241
H9    H     H_    0.823934 0.591834 0.744355 0.188375
H10   H     H_    0.174999 0.406220 0.255385 0.186793
H11   H     H_    0.178492 0.573846 0.662335 0.214692
H12   H     H_    0.521057 0.113462 0.276971 0.174495
H13   H     H_    0.516740 0.889646 0.276072 0.224073
H14   H     H_    0.357357 0.889232 0.695599 0.210447
N1    N     N_R   0.500660 0.500930 0.148010 -0.192987
N2    N     N_R   0.500660 0.500890 0.852110 -0.166630
O1    O     O_R   0.500000 0.319640 0.618810 -0.585379
O2    O     O_R   0.500010 0.319680 0.381230 -0.596820
O3    O     O_R   0.348990 0.499960 0.599490 -0.583254
O4    O     O_R   0.349000 0.500000 0.361910 -0.579434
O5    O     O_R   0.499990 0.680320 0.618770 -0.583851
O6    O     O_R   0.500000 0.680360 0.381190 -0.561282
O7    O     O_R   0.651000 0.500000 0.638090 -0.588195
O8    O     O_R   0.651010 0.500040 0.400510 -0.529735
Cl1   Cl    Cl    0.744702 0.567978 0.146793 -0.535697
F1    F     F_    0.641471 0.777129 0.148680 -0.664206
F2    F     F_    0.976515 0.372230 0.217450 -0.620374
Cl2   Cl    Cl    0.034506 0.632472 0.828226 -0.565132

loop_
_geom_bond_atom_site_label_1
_geom_bond_atom_site_label_2
_ccdc_geom_bond_type
C16   N1    A    
C21   F1    S    
C12   O4    A    
C23   C24   S    
C1    O2    A    
C23   O7    A    
C16   C21   S    
C25   C27   A    
C1    C8    S    
C20   H8    S    
C9    C10   A    
C6    Cl2   S    
C15   H4    S    
C19   C20   S    
C7    C13   A    
C27   H10   S    
C7    C15   S    
C12   O3    A    
Cu2   O4    S    
C19   N2    A    
C7    C8    A    
Cu1   O3    S    
C13   C14   S    
C25   C28   A    
C20   H7    S    
Cu2   O8    S    
C9    H12   S    
C2    C6    A    
C5    C24   A    
Cu1   O7    S    
Cu1   O1    S    
C16   C19   A    
C18   N2    A    
C17   H5    S    
C17   N1    A    
C17   C18   A    
C22   O6    A    
C2    C3    A    
C5    H9    S    
C26   C27   A    
C5    C6    A    
C4    C24   A    
C26   F2    S    
C22   O5    A    
C4    H1    S    
C10   C11   A    
C12   C25   S    
Cu1   Cu2   S    
C3    C4    A    
C28   H11   S    
C11   C13   A    
Cu2   N1    S    
C20   C21   S    
C23   O8    A    
C14   H14   S    
Cu1   N2    S    
Cu1   O5    S    
Cu2   O2    S    
C21   Cl1   S    
Cu2   O6    S    
C14   C15   S    
C1    O1    A    
C2    C28   A    
C11   C22   S    
C10   H13   S    
C18   H6    S    
C15   H3    S    
C3    C26   A    
C14   H2    S    
C8    C9    A    
