data_mof_unit_24550.cif
_audit_creation_date              2012-10-26T19:03:54-0400
_audit_creation_method            fapswitch 2.2
_symmetry_space_group_name_H-M    P1
_symmetry_Int_Tables_number       1
_space_group_crystal_system       triclinic
_cell_length_a                    15.908967
_cell_length_b                    12.99683
_cell_length_c                    11.765957
_cell_angle_alpha                 100.434499
_cell_angle_beta                  93.07049
_cell_angle_gamma                 93.592813
_cell_volume                      2382.63906105

loop_
_atom_site_label
_atom_site_type_symbol
_atom_type_description
_atom_site_fract_x
_atom_site_fract_y
_atom_site_fract_z
_atom_type_partial_charge
C1    C     C_R   0.500611 0.299211 0.477905 0.589177
C2    C     C_R   0.505314 0.185896 0.464771 -0.041583
C3    C     C_R   0.499566 0.013229 0.343709 0.254727
C4    C     C_R   0.340264 0.498800 0.500503 0.580404
C5    C     C_R   0.498202 0.121722 0.355372 -0.107733
C6    C     C_R   0.519620 0.142456 0.563320 -0.063044
C7    C     C_R   0.526522 0.035022 0.555013 -0.030771
C8    C     C_R   0.510677 0.968973 0.444873 -0.010878
C9    C     C_R   0.505095 0.860851 0.438836 -0.123648
C10   C     C_R   0.537935 0.882936 0.647192 0.118063
C11   C     C_R   0.547295 0.992421 0.654659 0.277807
C12   C     C_3   0.946946 0.460997 0.627330 0.291040
C13   C     C_R   0.403474 0.426080 0.030673 -0.083144
C14   C     C_R   0.417414 0.423796 0.147756 0.266725
C15   C     C_R   0.541634 0.535945 0.155602 0.063464
C16   C     C_R   0.505019 0.701522 0.522694 0.525715
C17   C     C_R   0.533220 0.532423 0.033709 -0.024993
C18   C     C_R   0.464017 0.473834 0.969131 0.002187
C19   C     C_R   0.457283 0.462788 0.845600 0.392080
C20   C     C_R   0.580806 0.579647 0.854442 0.016724
C21   C     C_R   0.591339 0.586177 0.975408 -0.138056
C22   C     C_R   0.659476 0.500801 0.499365 0.552470
C23   C     C_3   0.914948 0.484334 0.499980 -0.089537
C24   C     C_3   0.050806 0.457971 0.626188 0.374337
C25   C     C_3   0.043237 0.416960 0.375351 0.295580
C26   C     C_3   0.939046 0.408919 0.378980 0.330670
C27   C     C_1   0.748289 0.497352 0.497609 0.107812
C28   C     C_3   0.082026 0.488034 0.501165 -0.068253
C29   C     C_3   0.920960 0.550651 0.838747 -0.129960
C30   C     C_3   0.482135 0.832252 0.818922 -0.190697
C31   C     C_3   0.355177 0.251694 0.157564 -0.265182
C32   C     C_3   0.169493 0.743621 0.538332 -0.255553
C33   C     C_3   0.955603 0.598712 0.499408 -0.294275
C34   C     C_3   0.052833 0.601984 0.495189 -0.036829
C35   C     C_1   0.823155 0.491799 0.497412 0.095334
C36   C     C_1   0.174751 0.490923 0.501569 0.179571
C37   C     C_1   0.250567 0.494181 0.501292 0.157757
C38   C     C_R   0.515411 0.816820 0.538093 -0.053712
Cu1   Cu    Cu3+1 0.506190 0.507730 0.615930 1.068326
Cu2   Cu    Cu3+1 0.493810 0.492270 0.384070 1.042733
H1    H     H_    0.929287 0.633198 0.428706 0.212908
H2    H     H_    0.937800 0.657914 0.572002 0.153157
H3    H     H_    0.878423 0.289790 0.832329 0.399118
H4    H     H_    0.102410 0.714173 0.845032 0.377976
H5    H     H_    0.872790 0.588756 0.692474 0.229322
H6    H     H_    0.857338 0.520809 0.857853 0.163881
H7    H     H_    0.931581 0.631945 0.888641 0.169439
H8    H     H_    0.968010 0.503023 0.871348 0.260833
H9    H     H_    0.593895 0.781778 0.744153 0.264800
H10   H     H_    0.432136 0.775120 0.770548 0.149849
H11   H     H_    0.455625 0.909643 0.843318 0.210801
H12   H     H_    0.489884 0.809496 0.356474 0.220565
H13   H     H_    0.502643 0.805158 0.899571 0.198811
H14   H     H_    0.429434 0.026329 0.085153 0.342689
H15   H     H_    0.538700 0.181229 0.923877 0.387363
H16   H     H_    0.316491 0.226483 0.816749 0.368350
H17   H     H_    0.199575 0.246373 0.625977 0.386442
H18   H     H_    0.301239 0.392298 0.204214 0.307609
H19   H     H_    0.328040 0.209254 0.222468 0.189152
H20   H     H_    0.418825 0.224745 0.139782 0.157953
H21   H     H_    0.314039 0.232298 0.076108 0.155323
H22   H     H_    0.110231 0.422717 0.072470 0.391819
H23   H     H_    0.490772 0.156267 0.279092 0.161882
H24   H     H_    0.085071 0.167283 0.182440 0.369411
H25   H     H_    0.767045 0.199619 0.375092 0.381303
H26   H     H_    0.844868 0.581989 0.176713 0.368970
H27   H     H_    0.057792 0.745180 0.613911 0.300018
H28   H     H_    0.205365 0.793534 0.614203 0.170864
H29   H     H_    0.148388 0.794529 0.477560 0.162238
H30   H     H_    0.212415 0.688376 0.493795 0.157326
H31   H     H_    0.523358 0.193283 0.647112 0.233931
H32   H     H_    0.626455 0.621710 0.811705 0.128329
H33   H     H_    0.344086 0.388958 0.991519 0.193218
H34   H     H_    0.644858 0.633260 0.023083 0.136846
H35   H     H_    0.593830 0.582587 0.206876 0.143240
H36   H     H_    0.064532 0.623993 0.412687 0.228028
N1    N     N_R   0.515490 0.519350 0.790130 -0.255333
N2    N     N_R   0.484510 0.480650 0.209890 -0.213035
N3    N     N_2   0.925032 0.552142 0.715198 -0.454616
N4    N     N_2   0.553763 0.841348 0.749566 -0.455112
N5    N     N_2   0.360102 0.363440 0.202033 -0.442090
N6    N     N_2   0.096722 0.689651 0.577132 -0.437450
O1    O     O_R   0.504390 0.354460 0.582000 -0.446410
O2    O     O_2   0.872893 0.246288 0.592371 -0.127265
O3    O     O_3   0.925428 0.324594 0.798144 -0.455803
O4    O     O_2   0.113848 0.514597 0.862341 -0.215592
O5    O     O_2   0.197457 0.581654 0.725400 -0.249081
O6    O     O_3   0.063508 0.670273 0.784180 -0.535011
O7    O     O_2   0.561227 0.867736 0.184142 -0.251821
O8    O     O_2   0.407715 0.868872 0.186072 -0.299921
O9    O     O_3   0.489393 0.013880 0.100721 -0.489772
O10   O     O_2   0.637445 0.014523 0.863762 -0.186191
O11   O     O_2   0.650599 0.159723 0.759309 -0.248156
O12   O     O_R   0.493940 0.341410 0.386200 -0.485743
O13   O     O_3   0.510945 0.130177 0.857659 -0.501729
O14   O     O_2   0.290691 0.420166 0.804050 -0.224565
O15   O     O_2   0.365992 0.332392 0.646254 -0.244588
O16   O     O_3   0.374407 0.260852 0.831287 -0.550194
O17   O     O_2   0.094692 0.327669 0.781619 -0.167864
O18   O     O_2   0.031282 0.238160 0.601028 -0.161291
O19   O     O_3   0.185102 0.315012 0.608097 -0.457887
O20   O     O_2   0.034490 0.568287 0.223062 -0.242550
O21   O     O_2   0.172240 0.518092 0.274656 -0.333672
O22   O     O_3   0.076600 0.389151 0.126098 -0.377466
O23   O     O_R   0.384660 0.506540 0.597940 -0.432257
O24   O     O_2   0.184110 0.314338 0.308992 -0.297091
O25   O     O_2   0.097889 0.218473 0.418748 -0.187717
O26   O     O_3   0.045599 0.220497 0.211501 -0.381580
O27   O     O_2   0.880399 0.225813 0.229542 -0.145936
O28   O     O_2   0.939692 0.197035 0.410753 -0.154916
O29   O     O_3   0.792833 0.271590 0.404208 -0.473442
O30   O     O_2   0.911241 0.396853 0.140503 -0.142572
O31   O     O_2   0.788076 0.412177 0.251076 -0.245232
O32   O     O_3   0.878848 0.578345 0.248760 -0.536984
O33   O     O_R   0.374210 0.493480 0.402140 -0.477000
O34   O     O_R   0.506060 0.658590 0.613800 -0.531188
O35   O     O_R   0.495610 0.645540 0.418000 -0.510526
O36   O     O_R   0.625790 0.506520 0.597860 -0.508192
O37   O     O_R   0.615340 0.493460 0.402060 -0.490782
O38   O     O_2   0.796523 0.383465 0.692961 -0.299241
S1    S     S_3+6 0.883985 0.349585 0.672227 0.094403
S2    S     S_3+6 0.879663 0.449769 0.252853 0.098903
S3    S     S_3+6 0.108028 0.555465 0.750955 0.089511
S4    S     S_3+6 0.489002 0.936951 0.201467 0.001333
S5    S     S_3+6 0.590430 0.074914 0.786557 0.053537
S6    S     S_3+6 0.371357 0.370452 0.774093 0.043718
S7    S     S_3+6 0.088135 0.331856 0.654826 0.150097
S8    S     S_3+6 0.081193 0.478008 0.250202 0.081454
S9    S     S_3+6 0.094088 0.290719 0.334286 0.131501
S10   S     S_3+6 0.890864 0.272131 0.356739 0.171788

loop_
_geom_bond_atom_site_label_1
_geom_bond_atom_site_label_2
_ccdc_geom_bond_type
O24   S9    D    
C15   H35   S    
C30   H11   S    
O18   S7    D    
C31   H21   S    
C4    O33   A    
H16   O16   S    
O25   S9    D    
C25   S9    S    
O10   S5    D    
C7    C8    A    
C3    S4    S    
C25   C28   S    
C7    C11   A    
C12   C23   S    
C13   C18   A    
C29   H7    S    
C33   H2    S    
Cu1   N1    S    
C36   C37   T    
C11   S5    S    
C25   S8    S    
C18   C19   A    
O20   S8    D    
Cu2   O33   S    
C12   N3    S    
C5    H23   S    
Cu1   O23   S    
C1    C2    S    
C23   C26   S    
C31   H19   S    
C19   N1    A    
H25   O29   S    
C12   S1    S    
C8    C9    A    
C23   C33   S    
O22   S8    S    
C24   S7    S    
O3    S1    S    
C26   S10   S    
C32   H28   S    
C30   N4    S    
Cu2   O35   S    
C30   H10   S    
C28   C34   S    
C13   C14   A    
C2    C6    A    
C9    H12   S    
O6    S3    S    
C16   O34   A    
H24   O26   S    
H22   O22   S    
C6    H31   S    
C30   H13   S    
O31   S2    D    
C29   H8    S    
H3    O3    S    
C22   O37   A    
H15   O13   S    
C3    C8    A    
H18   N5    S    
Cu1   Cu2   S    
C10   N4    S    
C1    O12   A    
O17   S7    D    
C27   C35   T    
O2    S1    D    
C21   H34   S    
C24   S3    S    
C17   C21   A    
O32   S2    S    
C31   H20   S    
O30   S2    D    
O13   S5    S    
O29   S10   S    
C29   N3    S    
C17   C18   A    
O14   S6    D    
H5    N3    S    
C4    C37   S    
O21   S8    D    
O26   S9    S    
C6    C7    A    
C20   N1    A    
C13   H33   S    
C23   C35   S    
O9    S4    S    
Cu2   N2    S    
C2    C5    A    
O27   S10   D    
C32   N6    S    
O38   S1    D    
C15   C17   A    
C22   O36   A    
C34   N6    S    
H26   O32   S    
O8    S4    D    
C24   C28   S    
Cu2   O12   S    
O15   S6    D    
C3    C5    A    
C32   H30   S    
C32   H29   S    
O7    S4    D    
C1    O1    A    
Cu1   O36   S    
H17   O19   S    
C4    O23   A    
C12   C24   S    
C19   S6    S    
C31   N5    S    
H9    N4    S    
C10   C38   A    
C29   H6    S    
C22   C27   S    
C33   H1    S    
C25   C26   S    
Cu1   O1    S    
H14   O9    S    
C16   O35   A    
O5    S3    D    
C9    C38   A    
O19   S7    S    
C33   C34   S    
O28   S10   D    
C14   N2    A    
O11   S5    D    
C10   C11   A    
C15   N2    A    
O16   S6    S    
Cu2   O37   S    
C20   C21   A    
C28   C36   S    
H27   N6    S    
Cu1   O34   S    
C34   H36   S    
O4    S3    D    
C20   H32   S    
C26   S2    S    
C14   N5    S    
H4    O6    S    
C16   C38   S    
