data_mof_unit_62233.cif
_audit_creation_date              2012-12-10T16:55:21-0500
_audit_creation_method            fapswitch 2.2
_symmetry_space_group_name_H-M    P1
_symmetry_Int_Tables_number       1
_space_group_crystal_system       triclinic
_cell_length_a                    29.314666
_cell_length_b                    30.089041
_cell_length_c                    21.214626
_cell_angle_alpha                 89.999311
_cell_angle_beta                  132.055284
_cell_angle_gamma                 90.002849
_cell_volume                      13893.9092287

loop_
_atom_site_label
_atom_site_type_symbol
_atom_type_description
_atom_site_fract_x
_atom_site_fract_y
_atom_site_fract_z
_atom_type_partial_charge
Br1   Br    Br    0.176351 0.170421 0.221800 -0.287640
Br2   Br    Br    0.703090 0.847745 0.572896 -0.230289
Br3   Br    Br    0.703716 0.151845 0.573560 -0.230729
Br4   Br    Br    0.296286 0.848150 0.426442 -0.230732
Br5   Br    Br    0.796903 0.652252 0.427096 -0.230289
Br6   Br    Br    0.203091 0.347745 0.572897 -0.230289
Br7   Br    Br    0.203716 0.651845 0.573560 -0.230729
Br8   Br    Br    0.796286 0.348150 0.426442 -0.230732
Br9   Br    Br    0.432878 0.132742 0.489093 -0.361481
Br10  Br    Br    0.567118 0.867257 0.510905 -0.361485
Br11  Br    Br    0.567526 0.132630 0.511089 -0.361054
Br12  Br    Br    0.823643 0.829573 0.778190 -0.287640
Br13  Br    Br    0.432474 0.867371 0.488912 -0.361055
Br14  Br    Br    0.932877 0.632742 0.489092 -0.361480
Br15  Br    Br    0.067118 0.367257 0.510905 -0.361484
Br16  Br    Br    0.067525 0.632630 0.511089 -0.361054
Br17  Br    Br    0.932474 0.367371 0.488912 -0.361055
Br18  Br    Br    0.488421 0.073567 0.281475 -0.236939
Br19  Br    Br    0.511593 0.926446 0.718545 -0.236947
Br20  Br    Br    0.510842 0.074169 0.717579 -0.236063
Br21  Br    Br    0.489154 0.925833 0.282418 -0.236074
Br22  Br    Br    0.988422 0.573567 0.281476 -0.236939
Br23  Br    Br    0.824111 0.169957 0.778942 -0.287881
Br24  Br    Br    0.011593 0.426445 0.718544 -0.236947
Br25  Br    Br    0.010842 0.574169 0.717579 -0.236063
Br26  Br    Br    0.989154 0.425833 0.282418 -0.236073
Br27  Br    Br    0.175890 0.830039 0.221060 -0.287882
Br28  Br    Br    0.676351 0.670421 0.221800 -0.287640
Br29  Br    Br    0.323644 0.329573 0.778191 -0.287640
Br30  Br    Br    0.324111 0.669957 0.778942 -0.287881
Br31  Br    Br    0.675890 0.330039 0.221060 -0.287882
Br32  Br    Br    0.296903 0.152253 0.427096 -0.230289
C1    C     C_R   0.306516 0.189985 0.117175 0.902634
C2    C     C_R   0.634254 0.875131 0.691894 -0.093173
C3    C     C_R   0.262916 0.845017 0.200392 0.265437
C4    C     C_R   0.763111 0.655191 0.200732 0.265602
C5    C     C_R   0.236887 0.344806 0.799263 0.265602
C6    C     C_R   0.237085 0.654981 0.799609 0.265438
C7    C     C_R   0.762916 0.345017 0.200392 0.265437
C8    C     C_R   0.255150 0.155397 0.259014 0.214225
C9    C     C_R   0.744846 0.844599 0.740980 0.214227
C10   C     C_R   0.745189 0.155093 0.741475 0.214243
C11   C     C_R   0.254812 0.844904 0.258526 0.214243
C12   C     C_R   0.755150 0.655397 0.259014 0.214225
C13   C     C_R   0.634382 0.124799 0.692007 -0.093218
C14   C     C_R   0.244847 0.344599 0.740980 0.214227
C15   C     C_R   0.245189 0.655093 0.741475 0.214243
C16   C     C_R   0.754812 0.344904 0.258526 0.214243
C17   C     C_R   0.305212 0.146027 0.344705 0.195209
C18   C     C_R   0.694784 0.853970 0.655290 0.195209
C19   C     C_R   0.695186 0.145750 0.655744 0.195067
C20   C     C_R   0.304815 0.854247 0.344257 0.195067
C21   C     C_R   0.805211 0.646027 0.344705 0.195208
C22   C     C_R   0.194784 0.353970 0.655290 0.195209
C23   C     C_R   0.195186 0.645750 0.655744 0.195067
C24   C     C_R   0.365618 0.875201 0.307993 -0.093216
C25   C     C_R   0.804815 0.354247 0.344257 0.195067
C26   C     C_R   0.360867 0.131214 0.369815 0.217366
C27   C     C_R   0.639130 0.868784 0.630182 0.217364
C28   C     C_R   0.639424 0.131059 0.630443 0.217535
C29   C     C_R   0.360577 0.868940 0.369558 0.217535
C30   C     C_R   0.860866 0.631214 0.369814 0.217366
C31   C     C_R   0.139130 0.368784 0.630182 0.217364
C32   C     C_R   0.139424 0.631059 0.630443 0.217535
C33   C     C_R   0.860576 0.368940 0.369558 0.217535
C34   C     C_R   0.865744 0.624868 0.308105 -0.093177
C35   C     C_R   0.134254 0.375131 0.691894 -0.093173
C36   C     C_R   0.134382 0.624799 0.692007 -0.093218
C37   C     C_R   0.865618 0.375201 0.307993 -0.093215
C38   C     C_R   0.321385 0.145211 0.228451 -0.119474
C39   C     C_R   0.678614 0.854787 0.771547 -0.119472
C40   C     C_R   0.678723 0.145114 0.771705 -0.119605
C41   C     C_R   0.693483 0.810015 0.882825 0.902633
C42   C     C_R   0.321277 0.854886 0.228296 -0.119606
C43   C     C_R   0.821384 0.645211 0.228451 -0.119474
C44   C     C_R   0.178614 0.354787 0.771547 -0.119472
C45   C     C_R   0.178723 0.645113 0.771705 -0.119605
C46   C     C_R   0.821277 0.354886 0.228296 -0.119606
C47   C     C_R   0.337378 0.154762 0.180168 -0.133344
C48   C     C_R   0.662622 0.845238 0.819833 -0.133345
C49   C     C_R   0.662607 0.154770 0.819814 -0.133318
C50   C     C_R   0.337393 0.845230 0.180186 -0.133318
C51   C     C_R   0.837378 0.654762 0.180168 -0.133345
C52   C     C_R   0.693499 0.189986 0.882822 0.902608
C53   C     C_R   0.162622 0.345238 0.819833 -0.133345
C54   C     C_R   0.162607 0.654770 0.819814 -0.133318
C55   C     C_R   0.837393 0.345230 0.180186 -0.133318
C56   C     C_R   0.389205 0.135363 0.200401 0.308504
C57   C     C_R   0.610799 0.864641 0.799605 0.308507
C58   C     C_R   0.610588 0.135551 0.799296 0.308299
C59   C     C_R   0.389411 0.864450 0.200703 0.308302
C60   C     C_R   0.889205 0.635363 0.200402 0.308505
C61   C     C_R   0.110799 0.364640 0.799605 0.308507
C62   C     C_R   0.110588 0.635551 0.799296 0.308299
C63   C     C_R   0.306501 0.810014 0.117178 0.902609
C64   C     C_R   0.889411 0.364450 0.200703 0.308302
C65   C     C_R   0.424681 0.105311 0.267702 0.250470
C66   C     C_R   0.575325 0.894693 0.732306 0.250460
C67   C     C_R   0.575056 0.105541 0.731926 0.251013
C68   C     C_R   0.424942 0.894459 0.268073 0.251008
C69   C     C_R   0.924681 0.605312 0.267703 0.250470
C70   C     C_R   0.075324 0.394693 0.732305 0.250460
C71   C     C_R   0.075056 0.605541 0.731926 0.251013
C72   C     C_R   0.924942 0.394460 0.268073 0.251007
C73   C     C_R   0.412659 0.099286 0.321903 -0.167514
C74   C     C_R   0.806516 0.689985 0.117175 0.902634
C75   C     C_R   0.587342 0.900716 0.678099 -0.167512
C76   C     C_R   0.587298 0.099343 0.677998 -0.167583
C77   C     C_R   0.412701 0.900657 0.322002 -0.167581
C78   C     C_R   0.912659 0.599286 0.321904 -0.167514
C79   C     C_R   0.087342 0.400715 0.678099 -0.167512
C80   C     C_R   0.087298 0.599343 0.677998 -0.167583
C81   C     C_R   0.912701 0.400657 0.322002 -0.167581
C82   C     C_R   0.942609 0.437283 0.384227 0.902806
C83   C     C_R   0.057391 0.562717 0.615773 0.902801
C84   C     C_R   0.057408 0.437303 0.615810 0.902845
C85   C     C_R   0.193483 0.310015 0.882825 0.902633
C86   C     C_R   0.942592 0.562697 0.384191 0.902841
C87   C     C_R   0.442609 0.937284 0.384227 0.902807
C88   C     C_R   0.557391 0.062717 0.615773 0.902801
C89   C     C_R   0.557408 0.937303 0.615810 0.902845
C90   C     C_R   0.442592 0.062697 0.384191 0.902842
C91   C     C_R   0.334784 0.249059 0.000475 0.854340
C92   C     C_R   0.665216 0.750941 0.999525 0.854334
C93   C     C_R   0.665223 0.249065 0.999540 0.854289
C94   C     C_R   0.334777 0.750934 0.000460 0.854286
C95   C     C_R   0.834784 0.749059 0.000475 0.854340
C96   C     C_R   0.193499 0.689986 0.882822 0.902608
C97   C     C_R   0.165216 0.250941 0.999525 0.854334
C98   C     C_R   0.165223 0.749065 0.999540 0.854289
C99   C     C_R   0.834777 0.250935 0.000460 0.854286
C100  C     C_1   0.385817 0.248223 0.999939 -0.029464
C101  C     C_1   0.614183 0.751776 0.000061 -0.029468
C102  C     C_1   0.614195 0.248231 0.000086 -0.029496
C103  C     C_1   0.385805 0.751769 0.999914 -0.029499
C104  C     C_1   0.885818 0.748223 0.999939 -0.029463
C105  C     C_1   0.114183 0.251776 0.000061 -0.029468
C106  C     C_1   0.114195 0.748231 0.000086 -0.029496
C107  C     C_R   0.806501 0.310014 0.117178 0.902608
C108  C     C_1   0.885805 0.251769 0.999914 -0.029499
C109  C     C_1   0.428272 0.247955 0.999839 0.104802
C110  C     C_1   0.571728 0.752045 0.000161 0.104800
C111  C     C_1   0.571741 0.247961 0.000189 0.104805
C112  C     C_1   0.428259 0.752039 0.999811 0.104804
C113  C     C_1   0.928272 0.747955 0.999839 0.104802
C114  C     C_1   0.071728 0.252045 0.000161 0.104800
C115  C     C_1   0.071741 0.747961 0.000189 0.104805
C116  C     C_1   0.928259 0.252039 0.999811 0.104804
C117  C     C_1   0.478718 0.247863 0.999942 0.098671
C118  C     C_R   0.365744 0.124868 0.308105 -0.093177
C119  C     C_1   0.521281 0.752137 0.000058 0.098671
C120  C     C_1   0.521296 0.247865 0.000086 0.098694
C121  C     C_1   0.478704 0.752135 0.999914 0.098694
C122  C     C_1   0.978719 0.747863 0.999942 0.098671
C123  C     C_1   0.021281 0.252137 0.000058 0.098671
C124  C     C_1   0.021296 0.747865 0.000086 0.098694
C125  C     C_1   0.978704 0.252135 0.999914 0.098694
C126  C     C_R   0.263111 0.155191 0.200733 0.265602
C127  C     C_R   0.736887 0.844805 0.799263 0.265602
C128  C     C_R   0.737085 0.154981 0.799609 0.265438
Cl1   Cl    Cl    0.408570 0.147987 0.139097 -0.517380
Cl2   Cl    Cl    0.802986 0.843135 0.908350 -0.550626
Cl3   Cl    Cl    0.803089 0.156664 0.908752 -0.550322
Cl4   Cl    Cl    0.196911 0.843336 0.091249 -0.550323
Cl5   Cl    Cl    0.697012 0.656862 0.091645 -0.550620
Cl6   Cl    Cl    0.302986 0.343135 0.908350 -0.550626
Cl7   Cl    Cl    0.303089 0.656664 0.908752 -0.550322
Cl8   Cl    Cl    0.696911 0.343336 0.091249 -0.550323
Cl9   Cl    Cl    0.591438 0.852020 0.860915 -0.517373
Cl10  Cl    Cl    0.591041 0.148355 0.860332 -0.517492
Cl11  Cl    Cl    0.408957 0.851646 0.139666 -0.517491
Cl12  Cl    Cl    0.908570 0.647987 0.139097 -0.517381
Cl13  Cl    Cl    0.091437 0.352020 0.860915 -0.517373
Cl14  Cl    Cl    0.091041 0.648355 0.860332 -0.517492
Cl15  Cl    Cl    0.908957 0.351646 0.139666 -0.517491
Cl16  Cl    Cl    0.197012 0.156862 0.091645 -0.550620
Cu1   Cu    Cu3+1 0.280720 0.280980 0.061500 1.131603
Cu2   Cu    Cu3+1 0.957580 0.500000 0.500070 1.166002
Cu3   Cu    Cu3+1 0.542420 0.000000 0.499930 1.166001
Cu4   Cu    Cu3+1 0.457580 0.000000 0.500070 1.166002
Cu5   Cu    Cu3+1 0.719280 0.719020 0.938500 1.131599
Cu6   Cu    Cu3+1 0.719280 0.280980 0.938500 1.131661
Cu7   Cu    Cu3+1 0.280720 0.719020 0.061500 1.131661
Cu8   Cu    Cu3+1 0.780720 0.780980 0.061500 1.131603
Cu9   Cu    Cu3+1 0.219280 0.219020 0.938500 1.131600
Cu10  Cu    Cu3+1 0.219280 0.780980 0.938500 1.131660
Cu11  Cu    Cu3+1 0.780720 0.219020 0.061500 1.131661
Cu12  Cu    Cu3+1 0.042420 0.500000 0.499930 1.166001
O1    O     O_R   0.321010 0.231060 0.142100 -0.575877
O2    O     O_R   0.730960 0.821350 0.961860 -0.523639
O3    O     O_R   0.730960 0.178650 0.961860 -0.523662
O4    O     O_R   0.269040 0.821350 0.038140 -0.523663
O5    O     O_R   0.769040 0.678650 0.038140 -0.523641
O6    O     O_R   0.230960 0.321350 0.961860 -0.523639
O7    O     O_R   0.230960 0.678650 0.961860 -0.523662
O8    O     O_R   0.769040 0.321350 0.038140 -0.523663
O9    O     O_R   0.337910 0.276140 0.051940 -0.530807
O10   O     O_R   0.662090 0.723860 0.948060 -0.530809
O11   O     O_R   0.662090 0.276140 0.948060 -0.530519
O12   O     O_R   0.678990 0.768940 0.857900 -0.575879
O13   O     O_R   0.337910 0.723860 0.051940 -0.530519
O14   O     O_R   0.837910 0.776140 0.051940 -0.530807
O15   O     O_R   0.162090 0.223860 0.948060 -0.530809
O16   O     O_R   0.162090 0.776140 0.948060 -0.530519
O17   O     O_R   0.837910 0.223860 0.051940 -0.530519
O18   O     O_R   0.285940 0.223740 0.947980 -0.561908
O19   O     O_R   0.714060 0.776260 0.052020 -0.561907
O20   O     O_R   0.714060 0.223740 0.052020 -0.562157
O21   O     O_R   0.285940 0.776260 0.947980 -0.562157
O22   O     O_R   0.785940 0.723740 0.947980 -0.561908
O23   O     O_R   0.678990 0.231060 0.857900 -0.575750
O24   O     O_R   0.214060 0.276260 0.052020 -0.561907
O25   O     O_R   0.214060 0.723740 0.052020 -0.562157
O26   O     O_R   0.785940 0.276260 0.947980 -0.562157
O27   O     O_R   0.990910 0.454660 0.410130 -0.532910
O28   O     O_R   0.009090 0.545340 0.589870 -0.532909
O29   O     O_R   0.009090 0.454660 0.589870 -0.532853
O30   O     O_R   0.990910 0.545340 0.410130 -0.532856
O31   O     O_R   0.490910 0.954660 0.410130 -0.532910
O32   O     O_R   0.509090 0.045340 0.589870 -0.532909
O33   O     O_R   0.509090 0.954660 0.589870 -0.532853
O34   O     O_R   0.321010 0.768940 0.142100 -0.575750
O35   O     O_R   0.490910 0.045340 0.410130 -0.532856
O36   O     O_R   0.919170 0.454670 0.410130 -0.577252
O37   O     O_R   0.080830 0.545330 0.589870 -0.577253
O38   O     O_R   0.080830 0.454670 0.589870 -0.577281
O39   O     O_R   0.919170 0.545330 0.410130 -0.577280
O40   O     O_R   0.419170 0.954670 0.410130 -0.577252
O41   O     O_R   0.580830 0.045330 0.589870 -0.577253
O42   O     O_R   0.580830 0.954670 0.589870 -0.577281
O43   O     O_R   0.419170 0.045330 0.410130 -0.577280
O44   O     O_R   0.821010 0.731060 0.142100 -0.575877
O45   O     O_R   0.178990 0.268940 0.857900 -0.575879
O46   O     O_R   0.178990 0.731060 0.857900 -0.575750
O47   O     O_R   0.821010 0.268940 0.142100 -0.575750
O48   O     O_R   0.269040 0.178650 0.038140 -0.523641

loop_
_geom_bond_atom_site_label_1
_geom_bond_atom_site_label_2
_ccdc_geom_bond_type
C46   C55   A    
Cu7   O25   S    
Cu9   O45   S    
Cu4   O43   S    
C64   Cl15  S    
C91   C100  S    
C123  C125  T    
C76   C88   S    
Cu2   O29   S    
C38   C118  A    
C96   O7    A    
Br7   C23   S    
C116  C125  S    
C3    C11   A    
C108  C116  T    
Br2   C18   S    
C70   C79   A    
C52   O23   A    
C109  C117  S    
C16   C25   A    
C13   C28   A    
C73   C118  A    
C37   C81   A    
C101  C110  T    
Br22  C69   S    
C92   C101  S    
Br4   C20   S    
C2    C75   A    
C32   C36   A    
Cu1   O24   S    
C8    C126  A    
Br6   C22   S    
C83   O37   A    
Cu12  O38   S    
C20   C29   A    
C11   C20   A    
C22   C31   A    
C10   C128  A    
C56   Cl1   S    
Br14  C30   S    
C41   O12   A    
C92   O10   A    
C112  C121  S    
Cu1   Cu9   S    
C52   O3    A    
C1    O1    A    
Br9   C26   S    
C36   C80   A    
Cu2   Cu12  S    
C48   C57   A    
Cu3   O35   S    
C39   C48   A    
C4    Cl5   S    
C99   C108  S    
C54   C62   A    
Br1   C8    S    
Br26  C72   S    
C102  C111  T    
C9    C127  A    
C53   C61   A    
C12   C21   A    
Br19  C66   S    
C24   C77   A    
C114  C123  S    
C74   O44   A    
C90   O43   A    
Cu11  O20   S    
C86   O30   A    
Cu7   O7    S    
C79   C84   S    
C50   C63   S    
Br18  C65   S    
C59   C68   A    
Cu3   O41   S    
Cu5   O5    S    
Cu11  O3    S    
C40   C49   A    
C13   C76   A    
C10   C19   A    
C35   C79   A    
C65   C73   A    
C78   C86   S    
C68   C77   A    
Cu1   O9    S    
C55   C64   A    
C99   O26   A    
C87   O31   A    
Br13  C29   S    
Cu2   O36   S    
C37   C46   A    
C83   O28   A    
C42   C50   A    
Cu5   O10   S    
Cu9   O18   S    
C47   C56   A    
Cu2   O28   S    
Cu12  O27   S    
C87   O40   A    
C74   O5    A    
C13   C40   A    
C94   O13   A    
C96   O46   A    
C6    Cl7   S    
C36   C45   A    
C31   C35   A    
C63   O34   A    
Cu1   O1    S    
Cu1   O6    S    
C30   C34   A    
C54   C96   S    
Cu7   O13   S    
C7    C46   A    
Br30  C15   S    
C24   C42   A    
C95   C104  S    
Cu8   O44   S    
Cu12  O37   S    
Cu7   Cu10  S    
C25   C33   A    
Br21  C68   S    
Br3   C19   S    
Br25  C71   S    
C69   C78   A    
Br28  C12   S    
C50   C59   A    
C72   C81   A    
C91   O18   A    
C7    Cl8   S    
Cu5   O22   S    
C38   C126  A    
Cu8   O14   S    
C97   O24   A    
C110  C119  S    
C61   C70   A    
C128  Cl3   S    
Br12  C9    S    
C51   C60   A    
C4    C43   A    
Br8   C25   S    
C21   C30   A    
C105  C114  T    
C95   O22   A    
C85   O45   A    
C106  C115  T    
C88   O32   A    
C3    C42   A    
C23   C32   A    
C14   C22   A    
C6    C15   A    
C127  Cl2   S    
Cu10  O16   S    
Cu4   O33   S    
C34   C78   A    
Cu3   O42   S    
C53   C85   S    
C115  C124  S    
Br23  C10   S    
C26   C118  A    
Cu2   O39   S    
C1    O48   A    
C63   O4    A    
C62   Cl14  S    
C58   Cl10  S    
C49   C58   A    
C60   C69   A    
C126  Cl16  S    
C103  C112  T    
C5    C44   A    
C67   C76   A    
C45   C54   A    
C98   O25   A    
C90   O35   A    
C64   C72   A    
C92   O19   A    
C107  O47   A    
C2    C27   A    
Cu8   O2    S    
C4    C12   A    
Cu6   O8    S    
C17   C26   A    
C18   C27   A    
Br11  C28   S    
C98   C106  S    
C9    C18   A    
C49   C52   S    
C98   O16   A    
C107  O8    A    
C77   C87   S    
C15   C23   A    
C81   C82   S    
Cu5   Cu8   S    
Br5   C21   S    
C100  C109  T    
C58   C67   A    
Br15  C31   S    
C111  C120  S    
C89   O33   A    
C89   O42   A    
C93   O20   A    
Cu3   O31   S    
C38   C47   A    
C122  C124  T    
C82   O27   A    
C91   O9    A    
C1    C47   S    
Cu6   O11   S    
C41   O2    A    
C55   C107  S    
C94   O21   A    
C88   O41   A    
C94   C103  S    
Cu11  O17   S    
C5    Cl6   S    
C35   C44   A    
C6    C45   A    
Cu12  O30   S    
C86   O39   A    
C39   C127  A    
C62   C71   A    
Br29  C14   S    
C104  C113  T    
Br17  C33   S    
C3    Cl4   S    
C40   C128  A    
C51   C74   S    
C59   Cl11  S    
C57   C66   A    
Br31  C16   S    
C82   O36   A    
Cu9   O15   S    
Br10  C27   S    
C5    C14   A    
C56   C65   A    
C57   Cl9   S    
Cu8   O19   S    
C93   C102  S    
C43   C51   A    
Br20  C67   S    
C60   Cl12  S    
Cu7   O34   S    
C33   C37   A    
C34   C43   A    
C2    C39   A    
C61   Cl13  S    
Cu6   O23   S    
C41   C48   S    
Cu4   O40   S    
C73   C90   S    
Br24  C70   S    
Cu6   Cu11  S    
C119  C121  T    
Cu10  O4    S    
C95   O14   A    
Br32  C17   S    
Cu4   O32   S    
C66   C75   A    
Cu3   Cu4   S    
C97   O15   A    
Br27  C11   S    
Cu9   O48   S    
C97   C105  S    
C93   O11   A    
C85   O6    A    
Cu10  O21   S    
C84   O38   A    
Cu6   O26   S    
C75   C89   S    
C24   C29   A    
C71   C80   A    
C19   C28   A    
Br16  C32   S    
C113  C122  S    
C84   O29   A    
Cu5   O12   S    
C117  C120  T    
C44   C53   A    
C80   C83   S    
Cu11  O47   S    
C8    C17   A    
C7    C16   A    
Cu10  O46   S    
C99   O17   A    
