data_mof_unit_48593.cif
_audit_creation_date              2012-12-11T15:44:51-0500
_audit_creation_method            fapswitch 2.2
_symmetry_space_group_name_H-M    P1
_symmetry_Int_Tables_number       1
_space_group_crystal_system       triclinic
_cell_length_a                    19.444467
_cell_length_b                    11.051292
_cell_length_c                    18.651493
_cell_angle_alpha                 89.414428
_cell_angle_beta                  91.140675
_cell_angle_gamma                 89.887298
_cell_volume                      4006.94075815

loop_
_atom_site_label
_atom_site_type_symbol
_atom_type_description
_atom_site_fract_x
_atom_site_fract_y
_atom_site_fract_z
_atom_type_partial_charge
C1    C     C_R   0.759173 0.535061 0.646828 0.515760
C2    C     C_R   0.241854 0.539654 0.349603 0.531111
C3    C     C_R   0.259173 0.035061 0.646828 0.515762
C4    C     C_R   0.741854 0.039655 0.349603 0.531102
C5    C     C_R   0.822905 0.198816 0.509663 -0.142338
C6    C     C_R   0.166213 0.084594 0.472766 -0.146665
C7    C     C_R   0.322905 0.698815 0.509663 -0.142338
C8    C     C_R   0.666214 0.584592 0.472765 -0.146664
C9    C     C_R   0.811512 0.166602 0.437135 -0.162562
C10   C     C_R   0.178960 0.050931 0.543321 -0.152815
C11   C     C_R   0.311512 0.666601 0.437135 -0.162559
C12   C     C_R   0.678961 0.550929 0.543320 -0.152815
C13   C     C_3   0.646882 0.033065 0.483778 0.160974
C14   C     C_3   0.335030 0.248679 0.554883 0.134936
C15   C     C_3   0.146882 0.533067 0.483778 0.160973
C16   C     C_3   0.835030 0.748678 0.554885 0.134937
C17   C     C_3   0.661676 0.056478 0.562562 -0.205069
C18   C     C_3   0.322005 0.283104 0.476211 -0.208763
C19   C     C_3   0.161676 0.556480 0.562562 -0.205070
C20   C     C_3   0.822005 0.783106 0.476213 -0.208763
C21   C     C_R   0.781756 0.148094 0.563723 0.033771
C22   C     C_R   0.208873 0.168886 0.438971 -0.000701
C23   C     C_R   0.281757 0.648095 0.563723 0.033772
C24   C     C_R   0.708874 0.668885 0.438971 -0.000698
C25   C     C_R   0.989751 0.334653 0.420943 -0.015041
C26   C     C_R   0.998246 0.346305 0.572396 -0.030842
C27   C     C_R   0.489751 0.834653 0.420943 -0.015042
C28   C     C_R   0.498247 0.846305 0.572396 -0.030843
C29   C     C_R   0.986698 0.113732 0.429662 -0.090502
C30   C     C_R   0.016491 0.125920 0.576110 -0.064175
C31   C     C_R   0.486699 0.613732 0.429663 -0.090500
C32   C     C_R   0.516494 0.625922 0.576111 -0.064174
C33   C     C_R   0.990917 0.008535 0.470994 -0.122872
C34   C     C_R   0.007535 0.014757 0.543789 -0.097278
C35   C     C_R   0.490921 0.508536 0.470996 -0.122869
C36   C     C_R   0.507539 0.514759 0.543790 -0.097277
C37   C     C_R   0.003976 0.233844 0.537313 -0.015206
C38   C     C_R   0.994859 0.227550 0.461879 -0.016428
C39   C     C_R   0.503977 0.733844 0.537313 -0.015206
C40   C     C_R   0.494860 0.727550 0.461880 -0.016431
C41   C     C_R   0.991886 0.454869 0.529787 -0.025793
C42   C     C_R   0.974671 0.443319 0.456088 -0.003233
C43   C     C_R   0.491887 0.954869 0.529787 -0.025792
C44   C     C_R   0.474672 0.943319 0.456088 -0.003231
C45   C     C_R   0.792349 0.173984 0.639234 0.560218
C46   C     C_R   0.206868 0.175427 0.359955 0.584695
C47   C     C_R   0.292349 0.673984 0.639234 0.560218
C48   C     C_R   0.706868 0.675427 0.359955 0.584702
C49   C     C_R   0.002549 0.574406 0.557360 0.311828
C50   C     C_R   0.950796 0.544078 0.415928 0.321334
C51   C     C_R   0.502549 0.074406 0.557361 0.311833
C52   C     C_R   0.450798 0.044079 0.415928 0.321332
C53   C     C_R   0.990114 0.673852 0.511291 -0.114704
C54   C     C_R   0.964652 0.659347 0.442232 -0.112405
C55   C     C_R   0.490113 0.173853 0.511293 -0.114704
C56   C     C_R   0.464651 0.159349 0.442233 -0.112409
C57   C     C_R   0.744748 0.076209 0.075974 0.047410
C58   C     C_R   0.251858 0.065587 0.925644 -0.023962
C59   C     C_R   0.244742 0.576206 0.075971 0.047392
C60   C     C_R   0.751860 0.565591 0.925644 -0.023968
C61   C     C_R   0.806199 0.122279 0.049983 -0.020409
C62   C     C_R   0.226125 0.975792 0.970828 0.040874
C63   C     C_R   0.306189 0.622288 0.049982 -0.020210
C64   C     C_R   0.726130 0.475795 0.970827 0.040859
C65   C     C_R   0.815906 0.127821 0.976451 0.066255
C66   C     C_R   0.221966 0.990349 0.043920 0.007308
C67   C     C_R   0.315901 0.627829 0.976452 0.066287
C68   C     C_R   0.721974 0.490345 0.043920 0.007272
C69   C     C_R   0.703170 0.045832 0.953098 -0.133671
C70   C     C_R   0.273255 0.188647 0.029627 -0.156102
C71   C     C_R   0.203170 0.545818 0.953094 -0.133702
C72   C     C_R   0.773260 0.688645 0.029629 -0.156065
C73   C     C_R   0.692260 0.042838 0.026783 -0.084381
C74   C     C_R   0.275566 0.173344 0.955302 -0.216755
C75   C     C_R   0.192257 0.542824 0.026779 -0.084434
C76   C     C_R   0.775570 0.673346 0.955303 -0.216749
C77   C     C_3   0.880259 0.091077 0.067367 0.519096
C78   C     C_3   0.157265 0.916912 0.965344 0.540151
C79   C     C_3   0.380248 0.591111 0.067377 0.519038
C80   C     C_3   0.657271 0.416912 0.965343 0.540163
C81   C     C_3   0.886206 0.073172 0.987301 0.505580
C82   C     C_3   0.154124 0.924001 0.046792 0.433480
C83   C     C_3   0.386206 0.573199 0.987312 0.505534
C84   C     C_3   0.654136 0.423986 0.046792 0.433512
C85   C     C_R   0.764259 0.093056 0.927502 0.034333
C86   C     C_R   0.244145 0.098344 0.074309 0.015657
C87   C     C_R   0.264259 0.593050 0.927500 0.034301
C88   C     C_R   0.744149 0.598341 0.074310 0.015642
C89   C     C_R   0.970909 0.347650 0.646527 0.547567
C90   C     C_R   0.026924 0.344920 0.351735 0.576585
C91   C     C_R   0.470910 0.847650 0.646527 0.547568
C92   C     C_R   0.526924 0.844920 0.351736 0.576590
C93   C     C_R   0.043321 0.347260 0.065274 0.030628
C94   C     C_R   0.001650 0.347476 0.921810 0.094135
C95   C     C_R   0.543322 0.847262 0.065273 0.030580
C96   C     C_R   0.501654 0.847484 0.921808 0.094122
C97   C     C_R   0.984865 0.410138 0.042928 0.102529
C98   C     C_R   0.962811 0.406342 0.972950 0.059541
C99   C     C_R   0.484867 0.910144 0.042925 0.102655
C100  C     C_R   0.462815 0.906353 0.972947 0.059599
C101  C     C_R   0.062948 0.289535 0.942029 -0.177004
C102  C     C_R   0.082684 0.285540 0.014862 -0.168791
C103  C     C_R   0.562952 0.789541 0.942028 -0.177031
C104  C     C_R   0.582686 0.785544 0.014862 -0.168884
C105  C     C_3   0.971428 0.542927 0.048067 0.163707
C106  C     C_3   0.940538 0.535758 0.973575 0.153892
C107  C     C_3   0.471429 0.042933 0.048066 0.163711
C108  C     C_3   0.440542 0.035771 0.973572 0.153881
C109  C     C_R   0.760542 0.532269 0.851535 0.547305
C110  C     C_R   0.238820 0.532854 0.148526 0.530090
C111  C     C_R   0.260543 0.032267 0.851536 0.547311
C112  C     C_R   0.738822 0.032856 0.148527 0.530065
C113  C     C_R   0.773809 0.124856 0.852781 0.550939
C114  C     C_R   0.225940 0.129868 0.146345 0.564129
C115  C     C_R   0.273808 0.624855 0.852780 0.550942
C116  C     C_R   0.725941 0.629866 0.146345 0.564133
C117  C     C_R   0.973457 0.347488 0.850491 0.571948
C118  C     C_R   0.063223 0.352281 0.139706 0.562617
C119  C     C_R   0.473459 0.847488 0.850489 0.571953
C120  C     C_R   0.563222 0.852282 0.139705 0.562630
C121  C     C_R   0.756794 0.088467 0.419608 0.019441
C122  C     C_R   0.234289 0.101907 0.582732 -0.011411
C123  C     C_R   0.256794 0.588466 0.419608 0.019438
C124  C     C_R   0.734290 0.601905 0.582732 -0.011411
C125  C     C_R   0.721884 0.033662 0.474219 0.009689
C126  C     C_R   0.262448 0.208342 0.555402 0.029274
C127  C     C_R   0.221884 0.533662 0.474219 0.009686
C128  C     C_R   0.762449 0.708340 0.555402 0.029272
C129  C     C_R   0.735419 0.058643 0.545265 0.008723
C130  C     C_R   0.250044 0.241682 0.483904 -0.040399
C131  C     C_R   0.235419 0.558644 0.545265 0.008724
C132  C     C_R   0.750045 0.741682 0.483904 -0.040397
Cr1   Cr    Cr6+3 0.885860 0.491680 0.749630 0.989987
Cr2   Cr    Cr6+3 0.114140 0.491680 0.250370 1.015601
Cr3   Cr    Cr6+3 0.385860 0.991680 0.749630 0.989970
Cr4   Cr    Cr6+3 0.614140 0.991680 0.250370 1.015611
Cr5   Cr    Cr6+3 0.730490 0.332970 0.748720 1.017685
Cr6   Cr    Cr6+3 0.269510 0.332970 0.251280 0.963254
Cr7   Cr    Cr6+3 0.230490 0.832970 0.748720 1.017696
Cr8   Cr    Cr6+3 0.769510 0.832970 0.251280 0.963190
Cr9   Cr    Cr6+3 0.887570 0.179310 0.750150 1.011329
Cr10  Cr    Cr6+3 0.112430 0.179310 0.249850 0.999589
Cr11  Cr    Cr6+3 0.387570 0.679310 0.750150 1.011322
Cr12  Cr    Cr6+3 0.612430 0.679310 0.249850 0.999549
H1    H     H_    0.861850 0.264665 0.523316 0.118226
H2    H     H_    0.128302 0.032971 0.443121 0.147640
H3    H     H_    0.361851 0.764664 0.523316 0.118226
H4    H     H_    0.628304 0.532968 0.443120 0.147640
H5    H     H_    0.002040 0.763625 0.527479 0.101279
H6    H     H_    0.955774 0.739149 0.409698 0.071046
H7    H     H_    0.502037 0.263626 0.527482 0.101279
H8    H     H_    0.455771 0.239150 0.409700 0.071052
H9    H     H_    0.664841 0.009638 0.916464 0.099817
H10   H     H_    0.289162 0.275060 0.051212 0.186183
H11   H     H_    0.164844 0.509619 0.916459 0.099819
H12   H     H_    0.789169 0.775056 0.051215 0.186216
H13   H     H_    0.644706 0.005490 0.045551 0.107047
H14   H     H_    0.293859 0.245750 0.921289 0.125008
H15   H     H_    0.144705 0.505470 0.045547 0.107038
H16   H     H_    0.793865 0.745753 0.921292 0.125021
H17   H     H_    0.094868 0.249846 0.901628 0.114748
H18   H     H_    0.129696 0.240238 0.031351 0.133710
H19   H     H_    0.594870 0.749846 0.901628 0.114773
H20   H     H_    0.629697 0.740240 0.031352 0.133713
H21   H     H_    0.020895 0.594535 0.051670 0.129019
H22   H     H_    0.883668 0.539770 0.970392 0.153553
H23   H     H_    0.520896 0.094542 0.051674 0.129015
H24   H     H_    0.383672 0.039785 0.970387 0.153553
H25   H     H_    0.842914 0.205265 0.395503 0.130684
H26   H     H_    0.150209 0.974193 0.563124 0.135582
H27   H     H_    0.342915 0.705264 0.395504 0.130689
H28   H     H_    0.650210 0.474190 0.563123 0.135581
H29   H     H_    0.125481 0.441490 0.473933 0.123437
H30   H     H_    0.871505 0.673026 0.564389 0.123372
H31   H     H_    0.625481 0.941488 0.473933 0.123436
H32   H     H_    0.371504 0.173026 0.564389 0.123371
H33   H     H_    0.645218 0.145776 0.581899 0.184941
H34   H     H_    0.327125 0.381115 0.464938 0.182909
H35   H     H_    0.145218 0.645778 0.581898 0.184941
H36   H     H_    0.827125 0.881117 0.464941 0.182908
H37   H     H_    0.649769 0.978044 0.598012 0.148569
H38   H     H_    0.345736 0.224780 0.436542 0.126655
H39   H     H_    0.149770 0.478046 0.598012 0.148568
H40   H     H_    0.845738 0.724784 0.436543 0.126652
H41   H     H_    0.983050 0.922736 0.445684 0.091780
H42   H     H_    0.014110 0.934736 0.576355 0.091737
H43   H     H_    0.483055 0.422736 0.445685 0.091783
H44   H     H_    0.514117 0.434738 0.576356 0.091731
H45   H     H_    0.973384 0.105649 0.373292 0.120626
H46   H     H_    0.033065 0.126261 0.631814 0.128769
H47   H     H_    0.473386 0.605648 0.373293 0.120636
H48   H     H_    0.533068 0.626264 0.631815 0.128767
O1    O     O_R   0.957020 0.451640 0.669920 -0.462578
O2    O     O_R   0.042980 0.451640 0.330080 -0.462662
O3    O     O_R   0.457020 0.951640 0.669920 -0.462578
O4    O     O_R   0.542980 0.951640 0.330080 -0.462661
O5    O     O_R   0.736470 0.210100 0.823360 -0.459387
O6    O     O_R   0.263530 0.210100 0.176640 -0.523931
O7    O     O_R   0.236470 0.710100 0.823360 -0.459382
O8    O     O_R   0.763530 0.710100 0.176640 -0.523933
O9    O     O_R   0.831960 0.093290 0.830130 -0.533707
O10   O     O_R   0.168040 0.093290 0.169870 -0.470548
O11   O     O_R   0.331960 0.593290 0.830130 -0.533714
O12   O     O_R   0.668040 0.593290 0.169870 -0.470548
O13   O     O_R   0.945600 0.250580 0.824860 -0.460399
O14   O     O_R   0.054400 0.250580 0.175140 -0.464821
O15   O     O_R   0.445600 0.750580 0.824860 -0.460399
O16   O     O_R   0.554400 0.750580 0.175140 -0.464923
O17   O     O_3   0.834640 0.334650 0.749500 -0.282437
O18   O     O_3   0.165360 0.334650 0.250500 -0.314360
O19   O     O_3   0.334640 0.834650 0.749500 -0.282435
O20   O     O_3   0.665360 0.834650 0.250500 -0.314338
O21   O     O_R   0.821450 0.543440 0.674610 -0.531656
O22   O     O_R   0.178550 0.543440 0.325390 -0.465941
O23   O     O_R   0.321450 0.043440 0.674610 -0.531657
O24   O     O_R   0.678550 0.043440 0.325390 -0.465938
O25   O     O_R   0.715320 0.458650 0.668100 -0.539504
O26   O     O_R   0.284680 0.458650 0.331900 -0.552686
O27   O     O_R   0.215320 0.958650 0.668100 -0.539502
O28   O     O_R   0.784680 0.958650 0.331900 -0.552711
O29   O     O_R   0.737170 0.209590 0.674530 -0.521972
O30   O     O_R   0.262830 0.209590 0.325470 -0.501056
O31   O     O_R   0.237170 0.709590 0.674530 -0.521972
O32   O     O_R   0.762830 0.709590 0.325470 -0.501058
O33   O     O_R   0.832710 0.092740 0.669580 -0.490746
O34   O     O_R   0.167290 0.092740 0.330420 -0.529516
O35   O     O_R   0.332710 0.592740 0.669580 -0.490748
O36   O     O_R   0.667290 0.592740 0.330420 -0.529512
O37   O     O_R   0.946290 0.250060 0.676040 -0.538153
O38   O     O_R   0.053710 0.250060 0.323960 -0.540275
O39   O     O_R   0.446290 0.750060 0.676040 -0.538153
O40   O     O_R   0.553710 0.750060 0.323960 -0.540270
O41   O     O_R   0.956270 0.452200 0.830470 -0.480810
O42   O     O_R   0.043730 0.452200 0.169530 -0.508455
O43   O     O_R   0.456270 0.952200 0.830470 -0.480835
O44   O     O_R   0.543730 0.952200 0.169530 -0.508427
O45   O     O_R   0.820760 0.543950 0.823440 -0.535376
O46   O     O_R   0.179240 0.543950 0.176560 -0.523993
O47   O     O_R   0.320760 0.043950 0.823440 -0.535389
O48   O     O_R   0.679240 0.043950 0.176560 -0.523985
O49   O     O_R   0.714570 0.459210 0.828640 -0.453103
O50   O     O_R   0.285430 0.459210 0.171360 -0.489986
O51   O     O_R   0.214570 0.959210 0.828640 -0.453102
O52   O     O_R   0.785430 0.959210 0.171360 -0.490083
O53   O     O_3   0.893720 0.981263 0.105822 -0.542096
C133  C     C_3   0.934222 0.998748 0.168715 -0.057333
H49   H     H_    0.908524 0.060980 0.206298 0.128015
H50   H     H_    0.986310 0.032177 0.155523 0.190882
H51   H     H_    0.940697 0.910909 0.197180 0.068630
O54   O     O_3   0.163058 0.798864 0.938069 -0.521524
C134  C     C_3   0.098054 0.758981 0.914603 0.002620
H52   H     H_    0.080824 0.810101 0.865813 0.152930
H53   H     H_    0.061098 0.765533 0.959136 0.165953
H54   H     H_    0.100420 0.664505 0.897198 0.144259
O55   O     O_3   0.393707 0.481302 0.105840 -0.542126
C135  C     C_3   0.434332 0.498745 0.168648 -0.057448
H55   H     H_    0.408668 0.560841 0.206329 0.127968
H56   H     H_    0.486368 0.532320 0.155362 0.191097
H57   H     H_    0.440930 0.410863 0.197041 0.068571
O56   O     O_3   0.663064 0.298870 0.938059 -0.521526
C136  C     C_3   0.598061 0.258993 0.914587 0.002619
H58   H     H_    0.580831 0.310130 0.865802 0.152927
H59   H     H_    0.561105 0.265529 0.959120 0.165982
H60   H     H_    0.600429 0.164524 0.897169 0.144243
O57   O     O_3   0.917294 0.193089 0.091286 -0.696560
H61   H     H_    0.890909 0.229701 0.130649 0.313009
O58   O     O_3   0.108906 0.990744 0.927542 -0.727568
H62   H     H_    0.109774 0.071236 0.949530 0.319602
O59   O     O_3   0.417251 0.693151 0.091308 -0.696625
H63   H     H_    0.390903 0.729610 0.130747 0.313061
O60   O     O_3   0.608909 0.490751 0.927550 -0.727570
H64   H     H_    0.609776 0.571237 0.949545 0.319604
O61   O     O_3   0.938957 0.138252 0.956304 -0.669070
H65   H     H_    0.981866 0.094224 0.969891 0.361974
O62   O     O_3   0.098137 0.992273 0.070434 -0.705150
H66   H     H_    0.056629 0.942181 0.061286 0.336571
O63   O     O_3   0.438955 0.638291 0.956323 -0.669087
H67   H     H_    0.481866 0.594272 0.969916 0.361951
O64   O     O_3   0.598147 0.492241 0.070440 -0.705236
H68   H     H_    0.556640 0.442147 0.061280 0.336515
O65   O     O_3   0.887125 0.951193 0.968035 -0.749272
H69   H     H_    0.889659 0.949632 0.915041 0.326373
O66   O     O_3   0.159950 0.811279 0.081675 -0.701291
H70   H     H_    0.166440 0.828655 0.133455 0.335419
O67   O     O_3   0.387141 0.451216 0.968051 -0.749262
H71   H     H_    0.389674 0.449654 0.915057 0.326376
O68   O     O_3   0.659969 0.311260 0.081668 -0.701292
H72   H     H_    0.666462 0.328628 0.133449 0.335414
O69   O     O_3   0.921953 0.570132 0.099768 -0.574394
C137  C     C_3   0.931228 0.691326 0.120751 -0.121343
H73   H     H_    0.931203 0.754419 0.074006 0.173390
H74   H     H_    0.888276 0.718466 0.154905 0.167792
H75   H     H_    0.979768 0.701229 0.152714 0.106454
O70   O     O_3   0.976586 0.609072 0.924674 -0.611141
C138  C     C_3   0.935912 0.710042 0.905223 -0.153034
H76   H     H_    0.910782 0.747881 0.952479 0.174427
H77   H     H_    0.967508 0.781750 0.881012 0.103177
H78   H     H_    0.898047 0.686765 0.863253 0.164884
O71   O     O_3   0.421953 0.070131 0.099769 -0.574372
C139  C     C_3   0.431205 0.191343 0.120725 -0.121330
H79   H     H_    0.431110 0.254408 0.073970 0.173447
H80   H     H_    0.388277 0.218454 0.154918 0.167771
H81   H     H_    0.479768 0.201318 0.152637 0.106433
O72   O     O_3   0.476594 0.109085 0.924675 -0.611150
C140  C     C_3   0.435916 0.210041 0.905201 -0.153027
H82   H     H_    0.410757 0.247877 0.952440 0.174353
H83   H     H_    0.467513 0.281763 0.881009 0.103162
H84   H     H_    0.398077 0.186748 0.863210 0.164907
O73   O     O_3   0.609815 0.124453 0.444104 -0.540464
C141  C     C_3   0.636751 0.244086 0.445638 -0.095655
H85   H     H_    0.664615 0.263124 0.395496 0.148341
H86   H     H_    0.670577 0.264847 0.492238 0.099310
H87   H     H_    0.593495 0.309142 0.446228 0.105517
O74   O     O_3   0.347524 0.352277 0.597235 -0.551446
C142  C     C_3   0.343253 0.322609 0.670938 -0.084550
H88   H     H_    0.369657 0.237109 0.685604 0.109948
H89   H     H_    0.288651 0.319608 0.687316 0.132204
H90   H     H_    0.370281 0.392306 0.702901 0.151699
O75   O     O_3   0.109815 0.624455 0.444103 -0.540464
C143  C     C_3   0.136753 0.744087 0.445638 -0.095656
H91   H     H_    0.164617 0.763125 0.395497 0.148341
H92   H     H_    0.170577 0.764846 0.492239 0.099311
H93   H     H_    0.093497 0.809143 0.446227 0.105518
O76   O     O_3   0.847523 0.852273 0.597239 -0.551449
C144  C     C_3   0.843249 0.822602 0.670940 -0.084548
H94   H     H_    0.869659 0.737107 0.685607 0.109956
H95   H     H_    0.788646 0.819588 0.687315 0.132197
H96   H     H_    0.870269 0.892304 0.702907 0.151706
O77   O     O_3   0.912994 0.522483 0.352911 -0.565716
C145  C     C_3   0.920372 0.613600 0.300188 -0.072862
H97   H     H_    0.975114 0.638265 0.292027 0.124641
H98   H     H_    0.889936 0.695116 0.312955 0.115049
H99   H     H_    0.899649 0.577399 0.249091 0.186311
O78   O     O_3   0.037002 0.588366 0.623436 -0.562940
C146  C     C_3   0.028054 0.702045 0.656019 -0.106484
H100  H     H_    0.066579 0.767666 0.636271 0.092806
H101  H     H_    0.036950 0.691024 0.714661 0.137289
H102  H     H_    0.975567 0.738456 0.647794 0.107665
O79   O     O_3   0.412996 0.022486 0.352911 -0.565720
C147  C     C_3   0.420380 0.113600 0.300187 -0.072847
H103  H     H_    0.475122 0.138271 0.292033 0.124653
H104  H     H_    0.389938 0.195112 0.312947 0.115062
H105  H     H_    0.399667 0.077391 0.249088 0.186326
O80   O     O_3   0.537003 0.088365 0.623437 -0.562937
C148  C     C_3   0.528057 0.202047 0.656019 -0.106490
H106  H     H_    0.566582 0.267667 0.636268 0.092805
H107  H     H_    0.536956 0.191029 0.714661 0.137279
H108  H     H_    0.475569 0.238458 0.647797 0.107662

loop_
_geom_bond_atom_site_label_1
_geom_bond_atom_site_label_2
_ccdc_geom_bond_type
C52   O79   S    
C11   H27   S    
Cr2   O18   S    
C19   H35   S    
C137  H75   S    
C9    H25   S    
C12   H28   S    
C2    C123  S    
C106  H22   S    
C118  O14   A    
C6    H2    S    
C94   C117  S    
C95   C99   A    
C92   O40   A    
C3    O23   A    
O60   H64   S    
C84   O64   S    
C29   C33   A    
C34   H42   S    
Cr12  O12   S    
Cr8   O28   S    
C35   C36   A    
O76   C144  S    
C115  O11   A    
C70   C74   A    
C9    C121  A    
C113  O9    A    
C7    H3    S    
C20   H40   S    
C97   C105  S    
C122  C126  A    
C15   C127  S    
O53   C133  S    
C22   C130  A    
C19   C131  S    
Cr2   O46   S    
C20   C132  S    
C41   C49   A    
C116  O12   A    
C133  H50   S    
C107  H23   S    
C145  H97   S    
C15   H29   S    
C120  O16   A    
C143  H93   S    
C23   C47   S    
C147  H103  S    
C146  H101  S    
C62   C66   A    
C10   C122  A    
O74   C142  S    
C60   C76   A    
C36   H44   S    
C25   C42   A    
C43   C44   A    
C37   C38   A    
C66   C82   S    
C91   O3    A    
C110  O50   A    
C16   C20   S    
C89   O1    A    
C45   O33   A    
C148  H108  S    
C55   H7    S    
C108  O72   S    
C119  O43   A    
Cr5   O5    S    
C2    O22   A    
Cr4   O48   S    
C78   O54   S    
C29   H45   S    
C18   C130  S    
Cr9   O17   S    
C139  H79   S    
Cr7   O31   S    
C13   H31   S    
C47   O31   A    
C111  O51   A    
Cr3   O43   S    
Cr11  O35   S    
C83   O63   S    
C98   C106  S    
C104  H20   S    
C57   C61   A    
C16   O76   S    
C59   C63   A    
C14   C126  S    
C60   C64   A    
Cr7   O19   S    
Cr8   O8    S    
C1    C124  S    
C49   C53   A    
C112  O52   A    
C51   C55   A    
Cr10  O14   S    
C46   O30   A    
C14   O74   S    
C127  C131  A    
C146  H100  S    
C61   C65   A    
Cr2   O2    S    
C5    C21   A    
C50   O77   S    
Cr5   O25   S    
C2    O26   A    
C94   C98   A    
Cr11  O11   S    
C135  H57   S    
C67   C83   S    
C72   H12   S    
Cr5   O29   S    
Cr1   O17   S    
C147  H105  S    
C97   C98   A    
C54   H6    S    
C53   C54   A    
C5    C9    A    
C25   C90   S    
C79   O59   S    
C64   C68   A    
C136  H58   S    
C48   O36   A    
Cr10  O38   S    
Cr6   O30   S    
C73   H13   S    
C57   C73   A    
C144  H95   S    
C60   C109  S    
Cr4   O20   S    
C27   C44   A    
C61   C77   S    
C140  H83   S    
C135  H56   S    
C29   C38   A    
C107  C108  S    
Cr7   O51   S    
C13   O73   S    
C139  H81   S    
C44   C52   A    
C108  H24   S    
O63   H67   S    
C53   H5    S    
Cr1   O45   S    
C33   C34   A    
C21   C45   S    
C100  C108  S    
C5    H1    S    
C30   C34   A    
C24   C48   S    
C39   C40   A    
O78   C146  S    
Cr8   O32   S    
C134  H54   S    
C48   O32   A    
C115  O7    A    
Cr6   O18   S    
C91   O39   A    
C143  H92   S    
C121  C125  A    
C125  C129  A    
C25   C38   A    
C123  C127  A    
C117  O41   A    
C27   C40   A    
C8    C12   A    
O69   C137  S    
Cr2   O42   S    
C23   C131  A    
C21   C129  A    
C42   C50   A    
C35   H43   S    
C56   H8    S    
C93   C97   A    
C69   C85   A    
C58   C74   A    
C16   H30   S    
C133  H49   S    
C142  H90   S    
C87   C115  S    
C62   C78   S    
O56   C136  S    
C83   O67   S    
C66   C86   A    
C136  H60   S    
C33   H41   S    
O58   H62   S    
C110  O46   A    
C13   C17   S    
C45   O29   A    
C78   O58   S    
C85   C113  S    
C82   O62   S    
Cr5   O49   S    
C107  O71   S    
C7    C23   A    
C96   C100  A    
C8    C24   A    
C28   C91   S    
C30   H46   S    
Cr9   O13   S    
C17   H37   S    
C47   O35   A    
O80   C148  S    
C18   H34   S    
Cr1   O1    S    
C114  O6    A    
O66   H70   S    
C90   O38   A    
Cr11  O39   S    
C133  H51   S    
C58   C62   A    
Cr3   O19   S    
C55   C56   A    
C101  C102  A    
C41   C42   A    
C96   C119  S    
O62   H66   S    
C80   C84   S    
C134  H52   S    
C15   C19   S    
C50   C54   A    
C145  H98   S    
C4    O24   A    
Cr10  O10   S    
C147  H104  S    
Cr4   O4    S    
C117  O13   A    
O70   C138  S    
C126  C130  A    
Cr9   O37   S    
C6    C22   A    
C31   H47   S    
C31   C40   A    
C32   H48   S    
C137  H73   S    
C32   C39   A    
C14   H32   S    
Cr11  O15   S    
C4    O28   A    
C145  H99   S    
O64   H68   S    
C114  O10   A    
C69   C73   A    
C148  H107  S    
C77   O57   S    
C124  C128  A    
C142  H88   S    
O59   H63   S    
C64   C80   S    
C8    H4    S    
C139  H80   S    
Cr10  O34   S    
C141  H86   S    
C74   H14   S    
C58   C111  S    
C68   C84   S    
C138  H77   S    
C138  H76   S    
C15   O75   S    
C28   C39   A    
O54   C134  S    
C69   H9    S    
C30   C37   A    
Cr5   O17   S    
O71   C139  S    
O67   H71   S    
C24   C132  A    
C65   C81   S    
O79   C147  S    
C90   O2    A    
C77   C81   S    
C102  H18   S    
C71   H11   S    
C81   O65   S    
Cr1   O41   S    
C71   C87   A    
C22   C46   S    
C84   O68   S    
C1    O21   A    
C31   C35   A    
C32   C36   A    
Cr12  O20   S    
C49   O78   S    
Cr8   O20   S    
C141  H85   S    
C103  H19   S    
Cr12  O40   S    
C11   C123  A    
C93   C102  A    
C6    C10   A    
C146  H102  S    
C26   C37   A    
C95   C120  S    
C10   H26   S    
C99   C107  S    
C105  C106  S    
C28   C43   A    
Cr2   O22   S    
C80   O60   S    
C79   C83   S    
C43   C51   A    
C105  H21   S    
C4    C121  S    
C81   O61   S    
C144  H94   S    
Cr3   O3    S    
O75   C143  S    
C3    O27   A    
C140  H82   S    
C96   C103  A    
C103  C104  A    
C1    O25   A    
Cr8   O52   S    
C13   C125  S    
Cr12  O16   S    
C141  H87   S    
O77   C145  S    
C14   C18   S    
C72   C76   A    
C20   H36   S    
C63   C79   S    
O73   C141  S    
C26   C89   S    
C7    C11   A    
Cr9   O9    S    
C116  O8    A    
Cr7   O7    S    
C134  H53   S    
C57   C112  S    
C18   H38   S    
Cr4   O44   S    
C59   C110  S    
C78   C82   S    
Cr3   O23   S    
O68   H72   S    
C94   C101  A    
C51   O80   S    
C80   O56   S    
C109  O49   A    
O57   H61   S    
C77   O53   S    
Cr6   O50   S    
C3    C122  S    
C82   O66   S    
C106  O70   S    
C72   C88   A    
C138  H78   S    
Cr9   O33   S    
C63   C67   A    
C142  H89   S    
C76   H16   S    
C17   C129  S    
C19   H39   S    
C136  H59   S    
Cr11  O19   S    
C112  O48   A    
O65   H69   S    
C111  O47   A    
C88   C116  S    
C144  H96   S    
Cr7   O27   S    
C118  O42   A    
C99   C100  A    
C12   C124  A    
C140  H84   S    
C135  H55   S    
O61   H65   S    
C46   O34   A    
C27   C92   S    
C16   C128  S    
Cr6   O6    S    
O72   C140  S    
C68   C88   A    
C119  O15   A    
C93   C118  S    
Cr10  O18   S    
O55   C135  S    
C70   C86   A    
C59   C75   A    
C95   C104  A    
C105  O69   S    
C75   H15   S    
C128  C132  A    
C113  O5    A    
C70   H10   S    
C92   O4    A    
C65   C85   A    
C109  O45   A    
C67   C87   A    
C86   C114  S    
Cr1   O21   S    
C143  H91   S    
C101  H17   S    
C120  O44   A    
C71   C75   A    
Cr3   O47   S    
C137  H74   S    
Cr6   O26   S    
C79   O55   S    
Cr12  O36   S    
C17   H33   S    
C89   O37   A    
C148  H106  S    
C52   C56   A    
C26   C41   A    
Cr4   O24   S    
