data_mof_unit_47147.cif
_audit_creation_date              2012-12-10T17:02:05-0500
_audit_creation_method            fapswitch 2.2
_symmetry_space_group_name_H-M    P1
_symmetry_Int_Tables_number       1
_space_group_crystal_system       triclinic
_cell_length_a                    10.981993
_cell_length_b                    10.757347
_cell_length_c                    9.790289
_cell_angle_alpha                 107.77043
_cell_angle_beta                  99.088123
_cell_angle_gamma                 90.332289
_cell_volume                      1085.79000082

loop_
_atom_site_label
_atom_site_type_symbol
_atom_type_description
_atom_site_fract_x
_atom_site_fract_y
_atom_site_fract_z
_atom_type_partial_charge
C1    C     C_R   0.492300 0.253399 0.445128 0.849095
C2    C     C_2   0.594572 0.926660 0.488625 0.280726
C3    C     C_2   0.509986 0.516505 0.087476 0.058425
C4    C     C_R   0.261745 0.490161 0.499613 0.859409
C5    C     C_2   0.528610 0.474065 0.931705 0.540781
C6    C     C_R   0.511559 0.746287 0.554483 0.823034
C7    C     C_R   0.736290 0.484429 0.498063 0.892589
C8    C     C_R   0.158613 0.525217 0.770381 0.291616
C9    C     C_R   0.111558 0.592767 0.894345 0.252234
C10   C     C_R   0.991246 0.557641 0.900284 0.301287
C11   C     C_R   0.915027 0.486997 0.770281 0.374879
C12   C     C_R   0.080308 0.494616 0.634251 -0.114750
C13   C     C_R   0.951962 0.479728 0.633739 -0.127438
C14   C     C_R   0.127131 0.467321 0.500627 -0.176543
C15   C     C_R   0.043865 0.412994 0.368448 0.371032
C16   C     C_R   0.915899 0.410396 0.367580 0.372196
C17   C     C_R   0.868854 0.456105 0.499344 -0.165472
C18   C     C_2   0.491499 0.112796 0.426622 0.172361
C19   C     C_2   0.594475 0.060135 0.475266 0.327352
C20   C     C_2   0.524330 0.885918 0.570859 0.152799
Cl1   Cl    Cl    0.096604 0.338804 0.201484 -0.337259
Cl2   Cl    Cl    0.437294 0.991734 0.688496 -0.386067
Cl3   Cl    Cl    0.350114 0.020704 0.352727 -0.421967
Cl4   Cl    Cl    0.519497 0.304335 0.845058 -0.392649
Cl5   Cl    Cl    0.243167 0.393973 0.796704 -0.465060
Cl6   Cl    Cl    0.946635 0.578857 0.070642 -0.322220
Cl7   Cl    Cl    0.805186 0.373998 0.786054 -0.355206
Cl8   Cl    Cl    0.816322 0.339370 0.199085 -0.354413
Cl9   Cl    Cl    0.706850 0.824814 0.408876 -0.440930
Cl10  Cl    Cl    0.740203 0.139092 0.493985 -0.428383
Cu1   Cu    Cu3+1 0.521920 0.521810 0.644910 1.191603
Cu2   Cu    Cu3+1 0.478080 0.478190 0.355090 1.126868
H1    H     H_    0.549880 0.607995 0.163247 0.211969
H2    H     H_    0.403990 0.357949 0.068069 0.297787
H3    H     H_    0.779605 0.821901 0.921324 0.396654
H4    H     H_    0.262006 0.694802 0.269907 0.387264
N1    N     N_2   0.445130 0.445430 0.137370 -0.254222
N2    N     N_2   0.554930 0.554500 0.862630 -0.049998
O1    O     O_R   0.511700 0.332330 0.577400 -0.532134
O2    O     O_2   0.715011 0.693997 0.097246 -0.213831
O3    O     O_3   0.734754 0.738893 0.858705 -0.482536
O4    O     O_2   0.329761 0.723324 0.007769 -0.240244
O5    O     O_2   0.147493 0.820831 0.103456 -0.160788
O6    O     O_3   0.233327 0.622710 0.178926 -0.453861
O7    O     O_R   0.474680 0.295500 0.332650 -0.540830
O8    O     O_R   0.338160 0.518420 0.622400 -0.562902
O9    O     O_R   0.301140 0.481590 0.377650 -0.521208
O10   O     O_R   0.525320 0.704500 0.667350 -0.487902
O11   O     O_R   0.488300 0.667670 0.422600 -0.603879
O12   O     O_R   0.698860 0.518410 0.622350 -0.534990
O13   O     O_R   0.661840 0.481580 0.377600 -0.539659
O14   O     O_2   0.551944 0.810312 0.996085 -0.169354
S1    S     S_3+6 0.638241 0.701813 0.959711 0.181889
S2    S     S_3+6 0.209036 0.695047 0.048228 0.122849

loop_
_geom_bond_atom_site_label_1
_geom_bond_atom_site_label_2
_ccdc_geom_bond_type
C16   Cl8   S    
Cu2   O13   S    
C11   Cl7   S    
H2    N1    S    
C6    C20   S    
C9    C10   A    
O5    S2    D    
Cu1   Cu2   S    
Cu1   N2    S    
C13   C17   A    
C8    C12   A    
C1    O7    A    
C10   Cl6   S    
C12   C14   A    
C7    O13   A    
C4    O8    A    
Cu2   N1    S    
O14   S1    D    
C8    Cl5   S    
C11   C13   A    
O3    S1    S    
C1    C18   S    
C5    Cl4   S    
C6    O10   A    
C2    Cl9   S    
Cu1   O1    S    
O2    S1    D    
Cu1   O10   S    
C6    O11   A    
C4    C14   S    
H3    O3    S    
Cu2   O9    S    
Cu2   O11   S    
H4    O6    S    
C10   C11   A    
C1    O1    A    
Cu1   O12   S    
C2    C20   D    
C18   Cl3   S    
O6    S2    S    
N2    S1    S    
C15   Cl1   S    
C12   C13   A    
C3    N1    D    
C18   C19   D    
Cu2   O7    S    
C3    H1    S    
C14   C15   A    
C8    C9    A    
C9    S2    S    
C3    C5    S    
C2    C19   S    
C5    N2    D    
C19   Cl10  S    
C4    O9    A    
O4    S2    D    
C15   C16   A    
C7    O12   A    
C20   Cl2   S    
C16   C17   A    
C7    C17   S    
Cu1   O8    S    
