data_mof_unit_35949.cif
_audit_creation_date              2012-12-10T17:43:23-0500
_audit_creation_method            fapswitch 2.2
_symmetry_space_group_name_H-M    P1
_symmetry_Int_Tables_number       1
_space_group_crystal_system       triclinic
_cell_length_a                    15.09931
_cell_length_b                    13.707774
_cell_length_c                    10.632693
_cell_angle_alpha                 89.759995
_cell_angle_beta                  89.976114
_cell_angle_gamma                 90.031532
_cell_volume                      2200.71294282

loop_
_atom_site_label
_atom_site_type_symbol
_atom_type_description
_atom_site_fract_x
_atom_site_fract_y
_atom_site_fract_z
_atom_type_partial_charge
C1    C     C_R   0.328545 0.499977 0.500385 0.814207
C2    C     C_R   0.671466 0.500028 0.499681 0.811183
C3    C     C_R   0.953535 0.500252 0.500037 -0.023189
C4    C     C_R   0.046454 0.500097 0.500621 -0.045098
C5    C     C_R   0.906937 0.410552 0.499201 0.099710
C6    C     C_R   0.093174 0.589666 0.501437 0.075478
C7    C     C_R   0.954095 0.679392 0.500946 0.094660
C8    C     C_R   0.046523 0.321141 0.499757 0.094768
C9    C     C_R   0.046986 0.678900 0.501778 0.148643
C10   C     C_R   0.953188 0.321218 0.498950 0.092423
C11   C     C_R   0.436573 0.792861 0.565582 0.043633
C12   C     C_R   0.563383 0.207143 0.434341 0.043471
C13   C     C_R   0.563381 0.793361 0.434323 0.030995
C14   C     C_R   0.436584 0.206644 0.565608 0.037725
C15   C     C_R   0.565554 0.896607 0.432919 -0.005293
C16   C     C_R   0.434352 0.103401 0.566908 -0.004373
C17   C     C_R   0.434349 0.896091 0.566893 -0.004960
C18   C     C_R   0.565556 0.103916 0.432938 -0.005658
C19   C     C_R   0.499960 0.948254 0.499926 -0.024393
C20   C     C_R   0.499958 0.051752 0.499929 -0.025558
C21   C     C_R   0.631533 0.948693 0.366429 0.102919
C22   C     C_R   0.368261 0.051326 0.633183 0.104041
C23   C     C_R   0.368258 0.947654 0.633173 0.104002
C24   C     C_R   0.631552 0.052362 0.366475 0.106722
C25   C     C_R   0.500012 0.500243 0.259092 0.791588
C26   C     C_R   0.499992 0.499758 0.740908 0.791404
C27   C     C_3   0.500630 0.592881 0.039921 -0.131247
C28   C     C_3   0.499379 0.407120 0.960079 -0.130760
C29   C     C_3   0.573080 0.545466 0.957639 -0.166539
C30   C     C_3   0.426929 0.454535 0.042360 -0.165415
C31   C     C_3   0.427542 0.546564 0.957724 -0.169552
C32   C     C_3   0.572467 0.453438 0.042276 -0.169876
C33   C     C_3   0.499993 0.499238 0.877723 0.017349
C34   C     C_3   0.500015 0.500763 0.122276 0.017098
C35   C     C_R   0.814391 0.411827 0.498788 -0.201213
C36   C     C_R   0.185714 0.588333 0.501674 -0.202358
C37   C     C_R   0.768256 0.500116 0.499335 -0.099348
C38   C     C_R   0.231784 0.499965 0.500954 -0.123048
C39   C     C_R   0.814384 0.588516 0.499740 -0.235548
C40   C     C_R   0.185530 0.411639 0.500656 -0.197872
C41   C     C_R   0.907028 0.590076 0.500192 0.053197
C42   C     C_R   0.092934 0.410390 0.500409 0.098999
Cu1   Cu    Cu3+1 0.500000 0.597420 0.500000 0.937392
Cu2   Cu    Cu3+1 0.500000 0.402580 0.500000 0.939258
H1    H     H_    0.777262 0.655967 0.499895 0.159842
H2    H     H_    0.222189 0.343743 0.500388 0.193354
N1    N     N_R   0.500000 0.743810 0.500000 -0.208809
N2    N     N_R   0.500000 0.256190 0.500000 -0.209796
O1    O     O_R   0.370260 0.582280 0.500030 -0.593287
O2    O     O_R   0.629740 0.417720 0.499970 -0.594849
O3    O     O_R   0.629740 0.582280 0.499970 -0.593516
O4    O     O_R   0.370260 0.417720 0.500030 -0.593457
O5    O     O_R   0.499980 0.582260 0.316850 -0.586640
O6    O     O_R   0.500020 0.417740 0.683150 -0.586942
O7    O     O_R   0.500020 0.582260 0.683150 -0.582711
O8    O     O_R   0.499980 0.417740 0.316850 -0.581970
H3    H     H_    0.368300 0.584588 0.919901 0.133882
H4    H     H_    0.631710 0.415414 0.080099 0.133562
H5    H     H_    0.501174 0.668990 0.075230 0.143285
H6    H     H_    0.498835 0.331011 0.924770 0.143276
H7    H     H_    0.632841 0.582577 0.919780 0.133270
H8    H     H_    0.367168 0.417425 0.080218 0.134823
H9    H     H_    0.777654 0.343939 0.498198 0.192243
H10   H     H_    0.222445 0.656229 0.502217 0.192076
N3    N     N_3   0.909292 0.771784 0.500722 -0.619574
H11   H     H_    0.869872 0.776619 0.420138 0.222340
H12   H     H_    0.869119 0.775999 0.580613 0.220568
N4    N     N_3   0.094664 0.230749 0.499972 -0.616866
H13   H     H_    0.077517 0.191110 0.419853 0.220227
H14   H     H_    0.077008 0.190534 0.579850 0.218051
N5    N     N_3   0.094814 0.769497 0.502947 -0.607786
H15   H     H_    0.076687 0.809944 0.423449 0.237952
H16   H     H_    0.076068 0.808548 0.582910 0.235260
N6    N     N_3   0.904872 0.230886 0.497806 -0.616675
H17   H     H_    0.921935 0.190219 0.577521 0.220872
H18   H     H_    0.922456 0.191661 0.417527 0.218309
H19   H     H_    0.387674 0.750936 0.616909 0.164411
H20   H     H_    0.612278 0.249070 0.383007 0.164518
H21   H     H_    0.612278 0.751825 0.382996 0.163052
H22   H     H_    0.387698 0.248185 0.616948 0.165315
N7    N     N_3   0.698512 0.895846 0.299340 -0.636284
H23   H     H_    0.695599 0.915380 0.204334 0.221006
H24   H     H_    0.760554 0.915218 0.334896 0.219047
N8    N     N_3   0.301105 0.104198 0.699901 -0.624278
H25   H     H_    0.239153 0.085059 0.663798 0.225332
H26   H     H_    0.303627 0.084549 0.794891 0.218537
N9    N     N_3   0.301098 0.894266 0.699882 -0.624997
H27   H     H_    0.239147 0.913573 0.663783 0.225207
H28   H     H_    0.303621 0.913289 0.794875 0.218926
N10   N     N_3   0.698621 0.105759 0.299591 -0.624685
H29   H     H_    0.696016 0.086698 0.204615 0.218938
H30   H     H_    0.760617 0.086514 0.335587 0.226070

loop_
_geom_bond_atom_site_label_1
_geom_bond_atom_site_label_2
_ccdc_geom_bond_type
N9    H27   S    
C13   H21   S    
C27   C29   S    
C11   N1    A    
C19   C20   A    
C25   O8    A    
C32   H4    S    
C12   N2    A    
C26   O7    A    
C6    C9    A    
N7    H23   S    
C39   C41   A    
C15   C19   A    
C17   C23   A    
N6    H18   S    
C18   C24   A    
C35   C37   A    
C25   O5    A    
C29   C32   S    
C30   C31   S    
C29   C33   S    
C1    O1    A    
C2    O2    A    
N9    H28   S    
Cu1   O5    S    
C11   C17   A    
N4    H13   S    
N3    H12   S    
C12   H20   S    
C31   C33   S    
C14   H22   S    
C11   H19   S    
C25   C34   S    
C39   H1    S    
Cu2   O4    S    
C40   C42   A    
C23   N9    S    
C26   O6    A    
N7    H24   S    
C28   H6    S    
C27   C34   S    
C29   H7    S    
N6    H17   S    
C30   C34   S    
C27   C31   S    
C28   C32   S    
N8    H25   S    
C4    C6    A    
C13   N1    A    
Cu1   O1    S    
C14   N2    A    
C22   N8    S    
C40   H2    S    
Cu1   Cu2   S    
C7    N3    S    
Cu2   O8    S    
C26   C33   S    
N10   H30   S    
C13   C15   A    
C15   C21   A    
C16   C20   A    
C1    C38   S    
Cu1   O7    S    
C21   N7    S    
C28   C33   S    
C8    N4    S    
C30   H8    S    
C14   C16   A    
C3    C4    A    
N5    H16   S    
Cu2   O2    S    
C7    C9    A    
C3    C41   A    
C16   C22   A    
C9    N5    S    
C8    C42   A    
C3    C5    A    
C24   N10   S    
C31   H3    S    
C28   C30   S    
C5    C10   A    
C37   C39   A    
C27   H5    S    
C38   C40   A    
C10   N6    S    
C2    C37   S    
Cu1   O3    S    
N10   H29   S    
C4    C42   A    
C5    C35   A    
C36   C38   A    
C17   C19   A    
C6    C36   A    
C18   C20   A    
C7    C41   A    
C1    O4    A    
C2    O3    A    
Cu2   O6    S    
N5    H15   S    
C8    C10   A    
N3    H11   S    
C21   C24   A    
C12   C18   A    
N4    H14   S    
C22   C23   A    
N8    H26   S    
C35   H9    S    
C36   H10   S    
Cu1   N1    S    
Cu2   N2    S    
C32   C34   S    
