data_mof_unit_58107.cif
_audit_creation_date              2012-12-11T15:27:43-0500
_audit_creation_method            fapswitch 2.2
_symmetry_space_group_name_H-M    P1
_symmetry_Int_Tables_number       1
_space_group_crystal_system       triclinic
_cell_length_a                    23.351153
_cell_length_b                    7.297905
_cell_length_c                    15.091444
_cell_angle_alpha                 89.849679
_cell_angle_beta                  108.606453
_cell_angle_gamma                 90.034151
_cell_volume                      2437.37071038

loop_
_atom_site_label
_atom_site_type_symbol
_atom_type_description
_atom_site_fract_x
_atom_site_fract_y
_atom_site_fract_z
_atom_type_partial_charge
O1    O     O_R   0.711000 0.648610 0.341170 -0.538237
O2    O     O_R   0.289000 0.351390 0.658830 -0.538237
O3    O     O_R   0.789000 0.148610 0.158830 -0.533932
O4    O     O_R   0.211000 0.851390 0.841170 -0.533932
O5    O     O_R   0.829650 0.322030 0.336650 -0.530763
O6    O     O_R   0.170350 0.677970 0.663350 -0.530764
O7    O     O_R   0.670350 0.822030 0.163350 -0.538265
O8    O     O_R   0.329650 0.177970 0.836650 -0.538266
C1    C     C_R   0.854288 0.485679 0.356776 0.721254
C2    C     C_R   0.145712 0.514321 0.643224 0.721254
C3    C     C_R   0.645720 0.985837 0.143237 0.720716
C4    C     C_R   0.354280 0.014163 0.856763 0.720717
O9    O     O_R   0.713950 0.319280 0.352070 -0.536463
O10   O     O_R   0.286050 0.680720 0.647930 -0.536463
O11   O     O_R   0.786050 0.819280 0.147930 -0.540241
O12   O     O_R   0.213950 0.180720 0.852070 -0.540241
O13   O     O_R   0.672470 0.142870 0.174360 -0.527777
O14   O     O_R   0.327530 0.857130 0.825640 -0.527777
O15   O     O_R   0.827530 0.642870 0.325640 -0.535610
O16   O     O_R   0.172470 0.357130 0.674360 -0.535610
C5    C     C_R   0.701764 0.487201 0.375762 0.699171
C6    C     C_R   0.298236 0.512799 0.624238 0.699172
C7    C     C_R   0.798284 0.987680 0.124299 0.698539
C8    C     C_R   0.201716 0.012320 0.875701 0.698539
O17   O     O_3   0.736530 0.478650 0.191680 -0.377928
O18   O     O_3   0.263470 0.521350 0.808320 -0.377928
O19   O     O_3   0.763470 0.978650 0.308320 -0.378950
O20   O     O_3   0.236530 0.021350 0.691680 -0.378951
V1    V     V_3+5 0.752500 0.206170 0.260820 1.505349
V2    V     V_3+5 0.247500 0.793830 0.739180 1.505345
V3    V     V_3+5 0.747500 0.706170 0.239180 1.479704
V4    V     V_3+5 0.252500 0.293830 0.760820 1.479702
C9    C     C_R   0.829234 0.996785 0.054080 -0.081631
C10   C     C_R   0.170765 0.003215 0.945919 -0.081632
C11   C     C_R   0.670773 0.493659 0.445939 -0.081771
C12   C     C_R   0.329228 0.506341 0.554062 -0.081771
C13   C     C_R   0.822197 0.023042 0.891166 -0.029057
C14   C     C_R   0.177801 0.976959 0.108832 -0.029058
C15   C     C_R   0.677944 0.495305 0.609361 -0.028469
C16   C     C_R   0.322059 0.504700 0.390641 -0.028473
C17   C     C_R   0.794993 0.994501 0.959932 -0.175904
C18   C     C_R   0.205006 0.005500 0.040067 -0.175906
C19   C     C_R   0.704965 0.511385 0.539614 -0.178065
C20   C     C_R   0.295036 0.488617 0.460387 -0.178067
C21   C     C_R   0.892400 0.010929 0.081072 -0.101985
C22   C     C_R   0.107599 0.989073 0.918926 -0.101984
C23   C     C_R   0.607721 0.476113 0.419649 -0.100910
C24   C     C_R   0.392280 0.523888 0.580354 -0.100909
C25   C     C_R   0.921923 0.007925 0.011797 0.040677
C26   C     C_R   0.078075 0.992077 0.988201 0.040676
C27   C     C_R   0.578153 0.490709 0.488571 0.040270
C28   C     C_R   0.421849 0.509294 0.511432 0.040271
C29   C     C_R   0.886243 0.041726 0.916881 0.029222
C30   C     C_R   0.113755 0.958272 0.083116 0.029221
C31   C     C_R   0.614080 0.472648 0.584576 0.029472
C32   C     C_R   0.385922 0.527357 0.415428 0.029470
C33   C     C_R   0.985640 0.979499 0.033645 0.053258
C34   C     C_R   0.014359 0.020502 0.966353 0.053258
C35   C     C_R   0.514193 0.515081 0.465607 0.053070
C36   C     C_R   0.485809 0.484923 0.534397 0.053070
C37   C     C_R   0.979264 0.100116 0.881426 -0.195137
C38   C     C_R   0.020735 0.899879 0.118570 -0.195136
C39   C     C_R   0.521589 0.419694 0.622418 -0.194940
C40   C     C_R   0.478414 0.580311 0.377587 -0.194940
C41   C     C_R   0.916349 0.100968 0.853809 -0.067041
C42   C     C_R   0.083649 0.899021 0.146186 -0.067041
C43   C     C_R   0.584484 0.423793 0.649966 -0.066611
C44   C     C_R   0.415518 0.576215 0.350039 -0.066612
H1    H     H_    0.000507 0.166061 0.835770 0.140179
H2    H     H_    0.999491 0.833930 0.164224 0.140178
H3    H     H_    0.500929 0.361260 0.670724 0.140319
H4    H     H_    0.499074 0.638746 0.329282 0.140319
C45   C     C_1   0.416774 0.006870 0.918709 -0.141961
C46   C     C_1   0.583226 0.993130 0.081291 -0.141961
C47   C     C_1   0.083220 0.507268 0.581277 -0.142667
C48   C     C_1   0.916779 0.492732 0.418723 -0.142666
C49   C     C_1   0.469152 0.002343 0.969950 0.044457
C50   C     C_1   0.530848 0.997657 0.030050 0.044457
C51   C     C_1   0.030846 0.502548 0.530044 0.044827
C52   C     C_1   0.969154 0.497451 0.469956 0.044827
C53   C     C_1   0.885384 0.182034 0.763625 0.342011
N1    N     N_1   0.861040 0.247642 0.691479 -0.339335
C54   C     C_1   0.114615 0.817927 0.236363 0.342015
N2    N     N_1   0.138959 0.752292 0.308502 -0.339339
C55   C     C_1   0.616142 0.357773 0.743260 0.340506
N3    N     N_1   0.641051 0.304194 0.817925 -0.337667
C56   C     C_1   0.383861 0.642243 0.256748 0.340509
N4    N     N_1   0.358952 0.695831 0.182087 -0.337669
C57   C     C_1   0.075504 0.943201 0.822115 0.278929
N5    N     N_1   0.050216 0.905998 0.744972 -0.344209
C58   C     C_1   0.924497 0.056795 0.177885 0.278927
N6    N     N_1   0.949784 0.093989 0.255030 -0.344206
C59   C     C_1   0.423958 0.585699 0.674798 0.279389
N7    N     N_1   0.448905 0.635603 0.750018 -0.345866
C60   C     C_1   0.576042 0.414302 0.325205 0.279390
N8    N     N_1   0.551095 0.364397 0.249986 -0.345866
H5    H     H_    0.253711 0.020756 0.059672 0.130341
H6    H     H_    0.746288 0.979245 0.940329 0.130339
H7    H     H_    0.246441 0.471227 0.441528 0.132083
H8    H     H_    0.753561 0.528775 0.558472 0.132079
C61   C     C_1   0.782602 0.021107 0.795395 0.356165
N9    N     N_1   0.750509 0.018881 0.718975 -0.333233
C62   C     C_1   0.217394 0.978897 0.204605 0.356167
N10   N     N_1   0.249487 0.981126 0.281025 -0.333234
C63   C     C_1   0.717455 0.513318 0.704670 0.356777
N11   N     N_1   0.749475 0.528320 0.780694 -0.332056
C64   C     C_1   0.282548 0.486691 0.295331 0.356785
N12   N     N_1   0.250529 0.471692 0.219306 -0.332051

loop_
_geom_bond_atom_site_label_1
_geom_bond_atom_site_label_2
_ccdc_geom_bond_type
O17   V3    S    
C56   N4    T    
O1    C5    A    
C61   N9    T    
O19   V1    S    
O13   V1    S    
O3    C7    A    
C60   N8    T    
C10   C18   A    
O15   V3    S    
C53   N1    T    
C25   C33   A    
C33   C38   A    
C22   C57   S    
C49   C50   S    
O7    C3    A    
C35   C40   A    
C26   C30   A    
C36   C39   A    
C40   C44   A    
O9    V1    S    
C14   C18   A    
C55   N3    T    
O4    C8    A    
C20   H7    S    
O1    V3    S    
C9    C21   A    
C31   C43   A    
C38   H2    S    
O2    V4    S    
O3    V1    S    
C28   C36   A    
C42   C54   S    
C1    O15   A    
C15   C31   A    
C2    O16   A    
C16   C32   A    
O2    C6    A    
C64   N12   T    
C10   C22   A    
C1    C48   S    
C11   C19   A    
C16   C20   A    
C13   C29   A    
C34   C37   A    
O11   C7    A    
C11   C23   A    
C35   C36   A    
O12   C8    A    
C4    C45   S    
O10   V2    S    
O5    V1    S    
C39   C43   A    
C43   C55   S    
O7    V3    S    
C24   C59   S    
C38   C42   A    
O8    V4    S    
C19   H8    S    
C18   H5    S    
C58   N6    T    
O18   V4    S    
C23   C27   A    
C7    C9    S    
C32   C44   A    
C8    C10   S    
C26   C34   A    
O5    C1    A    
C14   C62   S    
C2    C47   S    
C41   C53   S    
C54   N2    T    
C14   C30   A    
C21   C25   A    
O8    C4    A    
O9    C5    A    
C59   N7    T    
C16   C64   S    
O14   V2    S    
O6    V2    S    
C39   H3    S    
C12   C20   A    
C27   C35   A    
C29   C41   A    
O16   V4    S    
C37   H1    S    
C15   C63   S    
C3    O13   A    
C23   C60   S    
C48   C52   T    
C3    C46   S    
O6    C2    A    
C15   C19   A    
O11   V3    S    
C30   C42   A    
O12   V4    S    
C6    C12   S    
C63   N11   T    
C22   C26   A    
C9    C17   A    
O10   C6    A    
O20   V2    S    
C5    C11   S    
C13   C61   S    
C33   C34   A    
C25   C29   A    
C12   C24   A    
C27   C31   A    
C40   H4    S    
C13   C17   A    
C21   C58   S    
C51   C52   S    
C37   C41   A    
C24   C28   A    
C46   C50   T    
C4    O14   A    
C62   N10   T    
C44   C56   S    
C45   C49   T    
C17   H6    S    
C57   N5    T    
C47   C51   T    
O4    V2    S    
C28   C32   A    
