data_mof_unit_54764.cif
_audit_creation_date              2012-12-11T15:36:55-0500
_audit_creation_method            fapswitch 2.2
_symmetry_space_group_name_H-M    P1
_symmetry_Int_Tables_number       1
_space_group_crystal_system       triclinic
_cell_length_a                    15.041519
_cell_length_b                    15.072245
_cell_length_c                    34.848745
_cell_angle_alpha                 91.337736
_cell_angle_beta                  91.904879
_cell_angle_gamma                 60.16159
_cell_volume                      6849.18383468

loop_
_atom_site_label
_atom_site_type_symbol
_atom_type_description
_atom_site_fract_x
_atom_site_fract_y
_atom_site_fract_z
_atom_type_partial_charge
C1    C     C_R   0.611379 0.301289 0.444232 0.564689
C2    C     C_R   0.625677 0.071038 0.761795 0.277428
C3    C     C_R   0.080778 0.772390 0.884170 -0.132273
C4    C     C_R   0.108833 0.758990 0.846010 -0.123399
C5    C     C_R   0.124077 0.671255 0.825835 0.023627
C6    C     C_R   0.118407 0.593488 0.844961 -0.128481
C7    C     C_R   0.089845 0.607015 0.883189 -0.127937
C8    C     C_R   0.214380 0.575743 0.767287 -0.107921
C9    C     C_R   0.227475 0.571610 0.727841 -0.095666
C10   C     C_R   0.163455 0.656688 0.705184 0.057617
C11   C     C_R   0.084238 0.744846 0.721788 -0.068248
C12   C     C_R   0.071378 0.749196 0.761237 -0.106885
C13   C     C_R   0.606247 0.153610 0.787049 0.033913
C14   C     C_R   0.665046 0.767721 0.165991 -0.115780
C15   C     C_R   0.137314 0.665167 0.784243 0.029282
C16   C     C_R   0.226299 0.711044 0.649294 0.061661
C17   C     C_R   0.253409 0.696306 0.610692 -0.126107
C18   C     C_R   0.196604 0.571867 0.602770 -0.130678
C19   C     C_R   0.166395 0.587690 0.640691 -0.150935
C20   C     C_R   0.183634 0.654257 0.664388 -0.004689
C21   C     C_R   0.243615 0.623351 0.587942 -0.007768
C22   C     C_R   0.670134 0.082597 0.906727 -0.002668
C23   C     C_R   0.603608 0.057420 0.886131 -0.169776
C24   C     C_R   0.554037 0.190093 0.640575 -0.148823
C25   C     C_R   0.575657 0.087282 0.848025 -0.103271
C26   C     C_2   0.289846 0.486193 0.308495 0.563891
C27   C     C_3   0.095268 0.816832 0.441449 0.010534
C28   C     C_3   0.992806 0.882683 0.420086 -0.252898
C29   C     C_3   0.902613 0.898348 0.443838 -0.446764
C30   C     C_2   0.843876 0.129227 0.332796 0.603635
C31   C     C_2   0.824581 0.175710 0.414925 0.600896
C32   C     C_2   0.251435 0.779705 0.673026 0.558652
C33   C     C_2   0.755139 0.192906 0.911374 0.584334
C34   C     C_2   0.797181 0.185397 0.678731 0.571586
C35   C     C_R   0.824654 0.608259 0.158726 -0.124756
C36   C     C_3   0.741060 0.912937 0.784435 0.005543
C37   C     C_3   0.748275 0.825125 0.807921 -0.255531
C38   C     C_3   0.858816 0.748840 0.819411 -0.479954
C39   C     C_2   0.514439 0.800427 0.327933 0.561914
C40   C     C_R   0.549937 0.221310 0.602915 -0.129474
C41   C     C_R   0.704567 0.230445 0.615197 -0.129577
C42   C     C_R   0.709835 0.198967 0.653263 0.059686
C43   C     C_R   0.630786 0.182851 0.666364 0.003593
C44   C     C_R   0.622876 0.245603 0.590312 -0.006412
C45   C     C_R   0.045559 0.739220 0.048593 0.540128
C46   C     C_R   0.747639 0.680234 0.182300 0.026935
C47   C     C_R   0.747475 0.746698 0.064074 0.545227
C48   C     C_R   0.751350 0.040313 0.050654 0.554145
C49   C     C_R   0.017106 0.722430 0.939819 0.541855
C50   C     C_R   0.717136 0.730270 0.954851 0.541432
C51   C     C_R   0.821955 0.626723 0.119501 -0.124203
C52   C     C_R   0.720359 0.026291 0.942474 0.569835
C53   C     C_R   0.762322 0.574802 0.238594 -0.099392
C54   C     C_R   0.749228 0.567759 0.277600 -0.081830
C55   C     C_R   0.726171 0.651053 0.302210 0.057672
C56   C     C_R   0.724305 0.738313 0.288151 -0.073940
C57   C     C_R   0.616153 0.140245 0.829373 0.003729
C58   C     C_R   0.736382 0.745760 0.249121 -0.103185
C59   C     C_R   0.751932 0.665404 0.223959 0.029149
C60   C     C_R   0.593784 0.721583 0.353735 0.061083
C61   C     C_R   0.593068 0.610031 0.449311 0.542601
C62   C     C_R   0.565269 0.712572 0.390692 -0.123215
C63   C     C_R   0.731706 0.563366 0.402547 -0.122230
C64   C     C_R   0.762315 0.573085 0.366383 -0.141491
C65   C     C_R   0.693769 0.650257 0.341468 -0.002994
C66   C     C_R   0.632121 0.631497 0.414612 -0.010207
C67   C     C_R   0.102867 0.729366 0.084917 0.022052
C68   C     C_R   0.674626 0.173800 0.850875 -0.134544
C69   C     C_R   0.146675 0.636886 0.105096 -0.124282
C70   C     C_R   0.171219 0.634650 0.144043 -0.116281
C71   C     C_R   0.153503 0.724426 0.163345 0.028059
C72   C     C_R   0.120529 0.814349 0.142505 -0.124202
C73   C     C_R   0.304625 0.590828 0.442235 0.545120
C74   C     C_R   0.095277 0.816871 0.103412 -0.127335
C75   C     C_R   0.220284 0.756782 0.225769 -0.099609
C76   C     C_R   0.232006 0.746224 0.265679 -0.072113
C77   C     C_R   0.181006 0.705252 0.285451 0.062966
C78   C     C_R   0.113039 0.681530 0.265508 -0.072558
C79   C     C_R   0.699480 0.148527 0.889708 0.047408
C80   C     C_R   0.102206 0.691024 0.225787 -0.102076
C81   C     C_R   0.158166 0.725614 0.205555 0.028834
C82   C     C_R   0.255810 0.571606 0.336882 0.052245
C83   C     C_R   0.278384 0.547227 0.375774 -0.172676
C84   C     C_R   0.204239 0.727044 0.392902 0.265487
C85   C     C_R   0.605720 0.300447 0.553791 0.551508
C86   C     C_R   0.182212 0.752059 0.354003 -0.115489
C87   C     C_R   0.207564 0.675558 0.325928 -0.050768
C88   C     C_R   0.257106 0.623261 0.403718 -0.012037
C89   C     C_R   0.725954 0.096204 0.087388 0.029656
C90   C     C_R   0.589074 0.246309 0.771590 -0.153713
C91   C     C_R   0.805242 0.090746 0.111461 -0.123141
C92   C     C_R   0.787803 0.116941 0.150168 -0.118869
C93   C     C_R   0.690451 0.151191 0.164996 0.025943
C94   C     C_R   0.608913 0.165750 0.140343 -0.120505
C95   C     C_R   0.626759 0.137512 0.101745 -0.121757
C96   C     C_R   0.605444 0.254174 0.223151 -0.109582
C97   C     C_R   0.587425 0.606147 0.559198 0.536421
C98   C     C_R   0.596596 0.263227 0.262950 -0.089504
C99   C     C_R   0.658150 0.178840 0.286472 0.056710
C100  C     C_R   0.725720 0.084259 0.269698 -0.080132
C101  C     C_R   0.595643 0.255682 0.732284 -0.099292
C102  C     C_R   0.736077 0.075783 0.230014 -0.106636
C103  C     C_R   0.677011 0.161034 0.206634 0.027216
C104  C     C_R   0.742751 0.171824 0.351139 0.046121
C105  C     C_R   0.732625 0.196508 0.390915 0.024912
C106  C     C_R   0.549524 0.255534 0.384604 -0.148878
C107  C     C_R   0.560032 0.229844 0.345926 -0.143666
C108  C     C_R   0.654645 0.192020 0.328572 -0.027400
C109  C     C_R   0.298519 0.589012 0.551804 0.538079
C110  C     C_R   0.633361 0.244954 0.407068 -0.025701
C111  C     C_R   0.691144 0.690046 0.919850 0.021438
C112  C     C_R   0.618458 0.172976 0.707533 0.021172
C113  C     C_R   0.763119 0.594985 0.904346 -0.124117
C114  C     C_R   0.750454 0.568319 0.866762 -0.117346
C115  C     C_R   0.665865 0.636399 0.844000 0.027682
C116  C     C_R   0.589807 0.727544 0.860623 -0.125308
C117  C     C_R   0.602067 0.753871 0.898231 -0.128854
C118  C     C_R   0.568781 0.649806 0.782563 -0.107343
C119  C     C_R   0.563661 0.649135 0.742549 -0.108057
C120  C     C_R   0.652255 0.618030 0.721262 0.026713
C121  C     C_R   0.741423 0.716791 0.103401 0.022383
C122  C     C_R   0.746857 0.583077 0.740695 -0.106576
C123  C     C_R   0.629795 0.082124 0.722157 -0.062488
C124  C     C_R   0.752041 0.583586 0.780731 -0.117790
C125  C     C_R   0.662603 0.619489 0.802076 0.024326
C126  C     C_R   0.717157 0.540285 0.656803 -0.113708
C127  C     C_R   0.703342 0.539115 0.617042 -0.122335
C128  C     C_R   0.549824 0.705357 0.620583 -0.117908
C129  C     C_R   0.563615 0.706373 0.660311 -0.110527
C130  C     C_R   0.645300 0.622256 0.678893 0.021125
C131  C     C_R   0.617290 0.619885 0.598709 0.011790
C132  C     C_R   0.067072 0.698349 0.902605 0.018611
C133  C     C_R   0.661568 0.785596 0.126872 -0.124365
Cr1   Cr    Cr6+3 0.426010 0.422500 0.497000 1.021188
Cr2   Cr    Cr6+3 0.651300 0.426310 0.501970 1.052402
Cr3   Cr    Cr6+3 0.422670 0.651170 0.501050 1.056385
Cr4   Cr    Cr6+3 0.905130 0.911420 0.992650 1.045058
Cr5   Cr    Cr6+3 0.911860 0.682710 0.002320 1.013727
Cr6   Cr    Cr6+3 0.682710 0.906840 0.004710 1.018550
H1    H     H_    0.598544 0.855728 0.115410 0.133814
H2    H     H_    0.198439 0.564087 0.159670 0.117270
H3    H     H_    0.072624 0.650641 0.280516 0.111865
H4    H     H_    0.884701 0.572519 0.102117 0.127287
H5    H     H_    0.052235 0.668664 0.210647 0.108021
H6    H     H_    0.319901 0.467424 0.383947 0.160892
H7    H     H_    0.106912 0.884206 0.157006 0.105703
H8    H     H_    0.882566 0.058366 0.101214 0.122478
H9    H     H_    0.564550 0.142221 0.083688 0.120061
H10   H     H_    0.492802 0.243358 0.328979 0.172511
H11   H     H_    0.543880 0.336697 0.275515 0.142357
H12   H     H_    0.487635 0.764361 0.399603 0.175596
H13   H     H_    0.558776 0.320238 0.205348 0.116889
H14   H     H_    0.838822 0.518191 0.357269 0.134242
H15   H     H_    0.851290 0.105930 0.168959 0.116342
H16   H     H_    0.772168 0.017906 0.287393 0.113390
H17   H     H_    0.790193 0.002777 0.217476 0.107532
H18   H     H_    0.533334 0.192203 0.151500 0.109987
H19   H     H_    0.473472 0.290400 0.396261 0.154316
H20   H     H_    0.832278 0.543845 0.920405 0.127095
H21   H     H_    0.545344 0.827802 0.909256 0.128861
H22   H     H_    0.508434 0.771565 0.676674 0.126253
H23   H     H_    0.888578 0.539919 0.170902 0.108588
H24   H     H_    0.751178 0.499783 0.288192 0.133334
H25   H     H_    0.490181 0.673686 0.728208 0.148315
H26   H     H_    0.498972 0.675987 0.798243 0.120514
H27   H     H_    0.809282 0.496660 0.854908 0.116535
H28   H     H_    0.816207 0.558939 0.724946 0.107701
H29   H     H_    0.825277 0.561197 0.794867 0.102856
H30   H     H_    0.780776 0.474468 0.670444 0.141735
H31   H     H_    0.756539 0.471947 0.601047 0.140183
H32   H     H_    0.524292 0.782240 0.843751 0.112359
H33   H     H_    0.482812 0.768835 0.607384 0.151634
H34   H     H_    0.784818 0.500230 0.420499 0.148733
H35   H     H_    0.064833 0.843067 0.898574 0.137980
H36   H     H_    0.774367 0.512150 0.219553 0.114948
H37   H     H_    0.080016 0.548660 0.896765 0.131271
H38   H     H_    0.133601 0.544391 0.652165 0.118454
H39   H     H_    0.289012 0.503229 0.715053 0.109954
H40   H     H_    0.265665 0.510305 0.784643 0.107736
H41   H     H_    0.114847 0.818876 0.831786 0.125839
H42   H     H_    0.034190 0.810553 0.704322 0.125537
H43   H     H_    0.009964 0.818017 0.773828 0.102312
H44   H     H_    0.290793 0.735324 0.599303 0.172618
H45   H     H_    0.154498 0.567985 0.091586 0.128573
H46   H     H_    0.129828 0.525289 0.829717 0.107126
H47   H     H_    0.603796 0.823033 0.183699 0.120449
H48   H     H_    0.187940 0.515572 0.585671 0.137300
H49   H     H_    0.578372 0.008803 0.898639 0.130116
H50   H     H_    0.584657 0.327075 0.721143 0.125433
H51   H     H_    0.572820 0.311096 0.790105 0.117379
H52   H     H_    0.526849 0.064060 0.832585 0.162576
H53   H     H_    0.645102 0.018727 0.702986 0.120066
H54   H     H_    0.493353 0.177834 0.650328 0.119661
H55   H     H_    0.707821 0.802588 0.307002 0.111471
H56   H     H_    0.061862 0.889258 0.088604 0.124206
H57   H     H_    0.486302 0.231902 0.584323 0.136741
H58   H     H_    0.703575 0.217586 0.837011 0.157068
H59   H     H_    0.762137 0.247363 0.605431 0.166467
H60   H     H_    0.729773 0.815658 0.238292 0.102768
H61   H     H_    0.343743 0.431188 0.255798 0.327708
H62   H     H_    0.095621 0.856509 0.468676 0.166527
H63   H     H_    0.102488 0.742540 0.449837 0.110369
H64   H     H_    0.985046 0.958059 0.413750 0.242296
H65   H     H_    0.990759 0.845342 0.392470 0.165634
H66   H     H_    0.907582 0.823681 0.449315 0.138049
H67   H     H_    0.143982 0.831754 0.345711 0.165703
H68   H     H_    0.829661 0.947812 0.427887 0.174784
H69   H     H_    0.902164 0.935866 0.471702 0.186803
H70   H     H_    0.926563 0.141884 0.291057 0.339810
H71   H     H_    0.953096 0.185821 0.421038 0.342283
H72   H     H_    0.282700 0.895451 0.673988 0.338419
H73   H     H_    0.851394 0.249729 0.909742 0.337657
H74   H     H_    0.887135 0.118473 0.725514 0.343082
H75   H     H_    0.776214 0.951211 0.801835 0.143532
H76   H     H_    0.784510 0.881680 0.757555 0.139498
H77   H     H_    0.702962 0.856297 0.834347 0.177415
H78   H     H_    0.284709 0.764857 0.280854 0.135918
H79   H     H_    0.715102 0.785202 0.790724 0.188653
H80   H     H_    0.904871 0.713473 0.793467 0.150864
H81   H     H_    0.860795 0.687532 0.837100 0.155730
H82   H     H_    0.892959 0.787801 0.836649 0.166043
H83   H     H_    0.452192 0.839243 0.274501 0.334209
H84   H     H_    0.263240 0.784403 0.210546 0.112051
O1    O     O_R   0.324990 0.503440 0.453910 -0.529457
O2    O     O_R   0.675430 0.831160 0.051290 -0.516997
O3    O     O_R   0.698870 0.998880 0.039560 -0.502258
O4    O     O_R   0.522030 0.339050 0.458320 -0.509649
O5    O     O_R   0.811290 0.006780 0.950620 -0.476016
O6    O     O_R   0.980960 0.812920 0.953200 -0.504690
O7    O     O_R   0.001480 0.656720 0.955830 -0.519226
O8    O     O_R   0.809240 0.683250 0.968050 -0.501164
O9    O     O_R   0.652500 0.818540 0.967340 -0.519507
O10   O     O_R   0.677620 0.987170 0.961730 -0.507239
O11   O     O_3   0.833240 0.833660 0.999890 -0.245600
O12   O     O_R   0.639980 0.519500 0.542640 -0.505222
O13   O     O_R   0.676180 0.324490 0.458320 -0.467486
O14   O     O_R   0.643570 0.521510 0.464260 -0.500834
O15   O     O_R   0.504630 0.675350 0.460920 -0.503513
O16   O     O_R   0.339850 0.642450 0.459830 -0.453704
O17   O     O_R   0.321120 0.501280 0.538470 -0.515010
O18   O     O_R   0.518440 0.337050 0.536710 -0.499283
O19   O     O_R   0.672300 0.322330 0.542880 -0.507208
O20   O     O_2   0.292014 0.406975 0.317203 -0.543404
O21   O     O_R   0.322282 0.494612 0.272289 -0.700433
O22   O     O_3   0.178363 0.805028 0.419605 -0.542725
O23   O     O_R   0.500750 0.673190 0.545480 -0.515300
O24   O     O_2   0.917424 0.050875 0.345108 -0.541902
O25   O     O_R   0.854464 0.178581 0.301249 -0.681835
O26   O     O_2   0.838634 0.135086 0.446211 -0.535633
O27   O     O_R   0.894027 0.203977 0.402090 -0.663640
O28   O     O_2   0.264148 0.769486 0.707821 -0.530448
O29   O     O_R   0.263946 0.854784 0.655129 -0.716076
O30   O     O_2   0.742616 0.210226 0.945822 -0.502389
O31   O     O_R   0.819002 0.218783 0.892044 -0.715803
O32   O     O_2   0.844979 0.228736 0.671368 -0.536132
O33   O     O_R   0.826629 0.121413 0.710661 -0.703094
O34   O     O_R   0.336260 0.640450 0.538210 -0.506070
O35   O     O_3   0.636735 0.980612 0.775348 -0.590622
O36   O     O_2   0.450152 0.882647 0.341242 -0.514143
O37   O     O_R   0.510332 0.779767 0.288781 -0.697235
O38   O     O_3   0.499990 0.499990 0.500010 -0.253243
O39   O     O_R   0.834210 0.019400 0.034570 -0.503951
O40   O     O_R   0.002210 0.824620 0.031030 -0.504650
O41   O     O_R   0.024400 0.669340 0.039790 -0.517456
O42   O     O_R   0.830490 0.694950 0.045870 -0.500822

loop_
_geom_bond_atom_site_label_1
_geom_bond_atom_site_label_2
_ccdc_geom_bond_type
C55   C56   A    
C93   C94   A    
C33   O30   D    
Cr3   O15   S    
C13   C90   A    
C18   C21   A    
C41   C42   A    
C54   C55   A    
C19   C20   A    
C11   H42   S    
C104  C108  A    
C105  C110  A    
C128  C129  A    
C93   C103  S    
C91   H8    S    
C114  C115  A    
C53   C59   A    
C14   C46   A    
C102  C103  A    
H83   O37   S    
C53   C54   A    
C101  C112  A    
C50   C111  S    
C99   C108  S    
C32   O28   D    
C53   H36   S    
C126  C127  A    
C29   H69   S    
C30   O25   S    
Cr6   O3    S    
C120  C130  S    
C61   O15   A    
Cr2   O19   S    
C34   O33   S    
C28   C29   S    
C96   H13   S    
C84   C86   A    
C22   C79   A    
C73   O16   A    
Cr4   O5    S    
C101  H50   S    
C27   O22   S    
C36   H76   S    
C98   H11   S    
C23   H49   S    
C14   H47   S    
C98   C99   A    
C78   C80   A    
C47   C121  S    
C13   C57   S    
C106  C107  A    
C126  C130  A    
C1    O13   A    
C115  C116  A    
C97   O12   A    
C18   H48   S    
C29   H66   S    
C116  C117  A    
C31   O26   D    
C60   C62   A    
C18   C19   A    
C49   O7    A    
C2    C13   A    
C118  C119  A    
C85   O19   A    
C36   H75   S    
C83   H6    S    
C61   C66   S    
C52   O5    A    
C90   C101  A    
C12   H43   S    
C10   C20   S    
C8    C9    A    
C80   H5    S    
C34   C42   S    
C45   C67   S    
C27   H63   S    
C107  C108  A    
C49   O6    A    
C63   H34   S    
C70   C71   A    
C118  C125  A    
C36   O35   S    
C54   H24   S    
C89   C91   A    
C9    C10   A    
H61   O21   S    
C37   H77   S    
Cr4   O39   S    
C1    O4    A    
C68   C79   A    
C83   C88   A    
C63   C66   A    
C75   H84   S    
C26   C82   S    
C124  H29   S    
C117  H21   S    
C109  O34   A    
C31   C105  S    
C86   H67   S    
C94   C95   A    
C25   C57   A    
C37   H79   S    
C4    H41   S    
C100  C102  A    
C104  C105  A    
C55   C65   S    
C120  C122  A    
C52   O10   A    
C114  H27   S    
C22   C23   A    
C49   C132  S    
C58   H60   S    
C35   H23   S    
C30   O24   D    
C62   C66   A    
Cr3   O23   S    
C3    C132  A    
C28   H65   S    
C38   H81   S    
Cr5   O7    S    
C6    H46   S    
C76   C77   A    
C97   C131  S    
C112  C123  A    
C72   C74   A    
C25   H52   S    
C97   O23   A    
C86   C87   A    
C4    C5    A    
C45   O41   A    
C58   C59   A    
C77   C78   A    
C64   H14   S    
C17   C21   A    
Cr2   O14   S    
C31   O27   S    
C96   C98   A    
C68   H58   S    
C127  H31   S    
C89   C95   A    
C75   C76   A    
C73   C88   S    
Cr6   O10   S    
C37   C38   S    
C41   H59   S    
C1    C110  S    
C48   O3    A    
C17   H44   S    
C3    H35   S    
C99   C100  A    
C47   O2    A    
C12   C15   A    
C76   H78   S    
C16   C20   A    
Cr3   O34   S    
C7    H37   S    
Cr6   O11   S    
C85   O18   A    
C129  H22   S    
C50   O8    A    
C111  C113  A    
C67   C74   A    
C113  H20   S    
C119  C120  A    
C50   O9    A    
H70   O25   S    
C77   C87   S    
C7    C132  A    
Cr6   O9    S    
C39   O36   D    
C39   O37   S    
C133  H1    S    
C56   H55   S    
C44   C85   S    
Cr4   O40   S    
C100  H16   S    
Cr4   O6    S    
C2    O35   S    
Cr5   O41   S    
C60   C65   A    
C128  H33   S    
C8    C15   A    
Cr1   O1    S    
C48   C89   S    
Cr4   O11   S    
C35   C51   A    
H72   O29   S    
C41   C44   A    
Cr2   O12   S    
Cr1   O38   S    
Cr5   O11   S    
C16   C32   S    
C42   C43   A    
C57   C68   A    
C122  C124  A    
C3    C4    A    
C128  C131  A    
C102  H17   S    
C91   C92   A    
C38   H82   S    
C40   H57   S    
C113  C114  A    
C106  C110  A    
C109  O17   A    
C67   C69   A    
C19   H38   S    
C74   H56   S    
C33   O31   S    
C70   H2    S    
C122  H28   S    
C73   O1    A    
Cr3   O38   S    
C26   O20   D    
C28   H64   S    
Cr1   O17   S    
C38   H80   S    
C75   C81   A    
C95   H9    S    
C84   C88   A    
Cr5   O42   S    
C33   C79   S    
C80   C81   A    
C29   H68   S    
C119  H25   S    
Cr1   O18   S    
C21   C109  S    
C11   C12   A    
C34   O32   D    
Cr2   O38   S    
C6    C7    A    
C14   C133  A    
C51   H4    S    
C62   H12   S    
C94   H18   S    
C32   O29   S    
C118  H26   S    
C115  C125  S    
Cr6   O2    S    
C111  C117  A    
C61   O14   A    
C64   C65   A    
C78   H3    S    
C129  C130  A    
C71   C72   A    
C126  H30   S    
C106  H19   S    
Cr1   O4    S    
C27   H62   S    
C8    H40   S    
C47   O42   A    
C5    C6    A    
C24   H54   S    
C51   C121  A    
C39   C60   S    
C48   O39   A    
C92   C93   A    
C24   C40   A    
C56   C58   A    
C22   C52   S    
C26   O21   S    
C23   C25   A    
H73   O31   S    
C69   C70   A    
C127  C131  A    
C5    C15   S    
C45   O40   A    
C10   C11   A    
C69   H45   S    
C63   C64   A    
C107  H10   S    
C40   C44   A    
C90   H51   S    
C116  H32   S    
C46   C59   S    
C36   C37   S    
C82   C83   A    
C43   C112  S    
Cr3   O16   S    
C30   C104  S    
C27   C28   S    
C72   H7    S    
C24   C43   A    
Cr2   O13   S    
C84   O22   S    
H74   O33   S    
C92   H15   S    
C121  C133  A    
C123  H53   S    
C96   C103  A    
C35   C46   A    
H71   O27   S    
C2    C123  A    
C9    H39   S    
C82   C87   A    
C16   C17   A    
C124  C125  A    
C71   C81   S    
Cr5   O8    S    
