data_mof_unit_5637.cif
_audit_creation_date              2013-03-05T15:50:13-0500
_audit_creation_method            fapswitch 2.2
_symmetry_space_group_name_H-M    P1
_symmetry_Int_Tables_number       1
_space_group_crystal_system       triclinic
_cell_length_a                    14.903819
_cell_length_b                    15.630519
_cell_length_c                    9.653352
_cell_angle_alpha                 91.194822
_cell_angle_beta                  88.582647
_cell_angle_gamma                 90.542015
_cell_volume                      2247.52424786

loop_
_atom_site_label
_atom_site_type_symbol
_atom_site_description
_atom_site_fract_x
_atom_site_fract_y
_atom_site_fract_z
_atom_type_partial_charge
O1    O     O_R   0.409820 0.909830 0.618810 -0.580559
O2    O     O_R   0.409820 0.090170 0.618810 -0.612150
O3    O     O_R   0.909820 0.409830 0.618810 -0.580472
O4    O     O_R   0.909820 0.590170 0.618810 -0.612113
O5    O     O_R   0.409840 0.909830 0.381240 -0.574474
O6    O     O_R   0.409840 0.090170 0.381240 -0.593276
O7    O     O_R   0.909840 0.409830 0.381240 -0.574458
O8    O     O_R   0.909840 0.590170 0.381240 -0.593272
C1    C     C_R   0.380878 0.882253 0.500295 0.747760
C2    C     C_R   0.379197 0.117679 0.503211 0.732502
C3    C     C_R   0.880919 0.382213 0.500290 0.747752
C4    C     C_R   0.879216 0.617697 0.503212 0.732590
Cu1   Cu    Cu3+1 0.499990 0.000000 0.640660 0.996576
Cu2   Cu    Cu3+1 0.999990 0.500000 0.640660 0.996615
Cu3   Cu    Cu3+1 0.500010 0.000000 0.359340 1.001070
Cu4   Cu    Cu3+1 0.000010 0.500000 0.359340 1.001129
O9    O     O_R   0.590170 0.090170 0.618760 -0.532115
O10   O     O_R   0.590170 0.909830 0.618760 -0.587078
O11   O     O_R   0.090170 0.590170 0.618760 -0.532163
O12   O     O_R   0.090170 0.409830 0.618760 -0.587140
O13   O     O_R   0.590190 0.090180 0.381190 -0.531159
O14   O     O_R   0.590190 0.909820 0.381190 -0.585026
O15   O     O_R   0.090190 0.590180 0.381190 -0.531205
O16   O     O_R   0.090190 0.409820 0.381190 -0.584973
C5    C     C_R   0.617259 0.119910 0.500199 0.865387
C6    C     C_R   0.610649 0.875070 0.498522 0.862386
C7    C     C_R   0.117276 0.619897 0.500199 0.865473
C8    C     C_R   0.110644 0.375066 0.498522 0.862340
H1    H     H_    0.325194 0.207454 0.290977 0.160019
H2    H     H_    0.404372 0.718750 0.443349 0.134610
H3    H     H_    0.825282 0.707540 0.291015 0.160162
H4    H     H_    0.904534 0.218546 0.444851 0.134383
C9    C     C_R   0.267933 0.168125 0.765302 -0.167558
C10   C     C_R   0.196642 0.924546 0.573867 -0.160480
C11   C     C_R   0.767955 0.668145 0.765299 -0.166553
C12   C     C_R   0.696525 0.424728 0.572049 -0.160249
H5    H     H_    0.331673 0.144837 0.794264 0.179116
H6    H     H_    0.245368 0.976307 0.574857 0.129191
H7    H     H_    0.831707 0.644885 0.794270 0.179088
H8    H     H_    0.745265 0.476477 0.572956 0.128878
C13   C     C_R   0.204526 0.175151 0.873478 -0.271278
C14   C     C_R   0.107966 0.944067 0.609440 -0.229999
C15   C     C_R   0.704540 0.675157 0.873466 -0.271214
C16   C     C_R   0.607773 0.444370 0.606805 -0.230020
H9    H     H_    0.220502 0.151346 0.974524 0.127572
H10   H     H_    0.090915 0.009608 0.637113 0.138895
H11   H     H_    0.720517 0.651357 0.974515 0.127534
H12   H     H_    0.590677 0.509996 0.633763 0.138699
C17   C     C_R   0.621854 0.712754 0.852204 0.059031
C18   C     C_R   0.541674 0.380364 0.606412 0.042690
C19   C     C_R   0.121847 0.212763 0.852228 0.058970
C20   C     C_R   0.041876 0.880054 0.608878 0.043278
C21   C     C_R   0.606332 0.749093 0.723927 -0.178254
C22   C     C_R   0.565373 0.295771 0.570879 -0.137660
C23   C     C_R   0.106323 0.249101 0.723951 -0.178149
C24   C     C_R   0.065517 0.795571 0.572452 -0.137516
H13   H     H_    0.541639 0.777561 0.707741 0.184667
H14   H     H_    0.513587 0.246836 0.570669 0.149569
H15   H     H_    0.041632 0.277576 0.707772 0.184609
H16   H     H_    0.013737 0.746632 0.572126 0.149855
C25   C     C_R   0.673163 0.748256 0.617116 0.044901
C26   C     C_R   0.655241 0.274630 0.536647 0.033956
C27   C     C_R   0.173145 0.248247 0.617127 0.045022
C28   C     C_R   0.155312 0.774538 0.537487 0.034096
C29   C     C_R   0.250345 0.197522 0.630855 0.154808
C30   C     C_R   0.221472 0.839861 0.538019 0.108167
C31   C     C_R   0.750369 0.697542 0.630852 0.155075
C32   C     C_R   0.721416 0.339940 0.537112 0.108147
C33   C     C_R   0.306032 0.180670 0.509932 -0.061086
C34   C     C_R   0.310879 0.818569 0.501553 -0.063136
C35   C     C_R   0.806074 0.680711 0.509942 -0.061341
C36   C     C_R   0.810914 0.318532 0.501535 -0.063020
C37   C     C_R   0.285941 0.219736 0.385141 -0.187872
C38   C     C_R   0.335135 0.734758 0.468562 -0.194018
C39   C     C_R   0.786009 0.719803 0.385166 -0.188407
C40   C     C_R   0.835236 0.234631 0.469405 -0.193862
H17   H     H_    0.707286 0.810156 0.284222 0.161766
H18   H     H_    0.791849 0.105663 0.450689 0.220285
H19   H     H_    0.207213 0.310081 0.284183 0.161640
H20   H     H_    0.291768 0.605818 0.449392 0.220339
C41   C     C_R   0.717768 0.778406 0.379904 -0.144562
C42   C     C_R   0.770974 0.170638 0.471327 -0.021387
C43   C     C_R   0.217709 0.278349 0.379881 -0.144116
C44   C     C_R   0.270908 0.670740 0.470554 -0.021972
C45   C     C_R   0.665290 0.797663 0.497200 -0.088183
C46   C     C_R   0.681312 0.189944 0.501599 -0.066643
C47   C     C_R   0.165265 0.297643 0.497200 -0.088071
C48   C     C_R   0.181315 0.689946 0.501611 -0.066672
H21   H     H_    0.362018 0.024290 0.134204 0.125323
H22   H     H_    0.862029 0.524348 0.134207 0.125342
C49   C     C_R   0.659675 0.954618 0.131241 0.381101
C50   C     C_R   0.159650 0.454502 0.131183 0.380947
C51   C     C_R   0.716474 0.899800 0.054120 -0.363457
C52   C     C_R   0.216452 0.399718 0.053976 -0.363312
H23   H     H_    0.775633 0.873786 0.100008 0.202376
H24   H     H_    0.275590 0.373652 0.099845 0.202368
C53   C     C_R   0.716951 0.903647 0.911601 -0.266487
C54   C     C_R   0.216981 0.403698 0.911459 -0.266104
H25   H     H_    0.775100 0.879332 0.854776 0.233341
H26   H     H_    0.275157 0.379453 0.854581 0.232815
C55   C     C_R   0.660857 0.962159 0.851410 0.410058
C56   C     C_R   0.160862 0.462230 0.851377 0.410054
C57   C     C_R   0.579014 0.983494 0.921936 0.092379
C58   C     C_R   0.079008 0.483487 0.921925 0.092302
C59   C     C_R   0.578579 0.981103 0.070411 0.093071
C60   C     C_R   0.078564 0.481047 0.070392 0.093187
N1    N     N_R   0.501200 0.000000 0.147910 -0.194757
N2    N     N_R   0.001200 0.500000 0.147910 -0.194709
C61   C     C_R   0.424407 0.013655 0.077102 -0.007478
C62   C     C_R   0.924413 0.513687 0.077104 -0.007492
H27   H     H_    0.361177 0.017808 0.878289 0.117843
H28   H     H_    0.861182 0.517845 0.878292 0.117890
C63   C     C_R   0.424150 0.011700 0.929734 -0.021345
C64   C     C_R   0.924153 0.511719 0.929736 -0.021305
N3    N     N_R   0.501270 0.000000 0.852040 -0.196749
N4    N     N_R   0.001270 0.500000 0.852040 -0.196772
N5    N     N_R   0.705576 0.022082 0.763448 0.141132
O17   O     O_R   0.756351 0.994634 0.660667 -0.377572
O18   O     O_R   0.715925 0.100599 0.808408 -0.334227
N6    N     N_R   0.205552 0.522243 0.763551 0.141245
O19   O     O_R   0.256254 0.494912 0.660607 -0.377640
O20   O     O_R   0.215847 0.600741 0.808633 -0.334015
C65   C     C_2   0.554570 0.717866 0.967221 0.370317
H29   H     H_    0.568813 0.690086 0.066366 0.063951
O21   O     O_2   0.482855 0.753462 0.953266 -0.517161
C66   C     C_2   0.448200 0.403192 0.643728 0.400168
H30   H     H_    0.432171 0.468513 0.674880 0.115214
O22   O     O_2   0.388112 0.349722 0.640124 -0.543321
C67   C     C_2   0.054569 0.217887 0.967253 0.370051
H31   H     H_    0.068814 0.190106 0.066398 0.064016
O23   O     O_2   0.982859 0.253491 0.953305 -0.517140
C68   C     C_2   0.948460 0.902732 0.646926 0.399460
H32   H     H_    0.932473 0.967898 0.679055 0.114939
O24   O     O_2   0.888356 0.849291 0.642806 -0.543965
N7    N     N_R   0.705119 0.009561 0.226733 0.146481
O25   O     O_R   0.719129 0.088622 0.191477 -0.344011
O26   O     O_R   0.758809 0.976128 0.314687 -0.392996
N8    N     N_R   0.205108 0.509408 0.226703 0.146400
O27   O     O_R   0.219147 0.588466 0.191454 -0.344314
O28   O     O_R   0.258817 0.475936 0.314591 -0.393125

loop_
_geom_bond_atom_site_label_1
_geom_bond_atom_site_label_2
_geom_bond_distance
_ccdc_geom_bond_type
C43   C47   1.389569 A    
C27   C29   1.413937 A    
C66   H30   1.085443 S    
C11   C31   1.417125 A    
C23   H15   1.081909 S    
C49   C59   1.425381 A    
C57   N3    1.384186 A    
O10   C6    1.301874 A    
H20   C44   1.078113 S    
C50   N8    1.425724 S    
C11   C15   1.394257 A    
C10   C30   1.411606 A    
C58   C60   1.434358 A    
C19   C67   1.479007 S    
C9    C29   1.417127 A    
C65   H29   1.085702 S    
O7    C3    1.298277 A    
C59   N1    1.389759 A    
C18   C22   1.405226 A    
Cu1   O10   1.961346 S    
N5    O18   1.302247 A    
H2    C38   1.084705 S    
Cu2   N4    2.041087 S    
C65   O21   1.221306 D    
H1    C37   1.083477 S    
C52   C54   1.378287 A    
C16   C18   1.397411 A    
C17   C65   1.479009 S    
H21   C61   1.081592 S    
C14   H10   1.084237 S    
Cu3   N1    2.040647 S    
O2    Cu1   1.974633 S    
C25   C31   1.413921 A    
C51   H23   1.082837 S    
C12   H8    1.082089 S    
O6    Cu3   1.961242 S    
C58   N4    1.384082 A    
C21   C25   1.415717 A    
Cu3   O14   1.974850 S    
N2    C62   1.368236 A    
C68   H32   1.085474 S    
H19   C43   1.073130 S    
C23   C27   1.415718 A    
C34   C38   1.390721 A    
C24   C28   1.412226 A    
C33   C37   1.402028 A    
C18   C66   1.475491 S    
O15   C7    1.302183 A    
O4    C4    1.298973 A    
O11   C7    1.297986 A    
C62   C64   1.422386 A    
C31   C35   1.436721 A    
C61   C63   1.422380 A    
C52   H24   1.082836 S    
O8    Cu4   1.961242 S    
N1    C61   1.368237 A    
H28   C64   1.078571 S    
C53   H25   1.081869 S    
N6    O20   1.302248 A    
C10   C14   1.392298 A    
C20   C68   1.475658 S    
Cu2   O12   1.961346 S    
N7    O25   1.302181 A    
O1    C1    1.296565 A    
C1    C34   1.435126 S    
H27   C63   1.078574 S    
C40   C42   1.378355 A    
C21   H13   1.081908 S    
C3    C36   1.435155 S    
C39   C41   1.377724 A    
O12   C8    1.301882 A    
C54   C56   1.390524 A    
C9    H5    1.066325 S    
C24   H16   1.081464 S    
C32   C36   1.410702 A    
C28   C30   1.412719 A    
C11   H7    1.066342 S    
O6    C2    1.317496 A    
O5    C1    1.298293 A    
C49   C51   1.400347 A    
C26   C46   1.414966 A    
H18   C42   1.078146 S    
H3    C39   1.083479 S    
H17   C41   1.073099 S    
O8    C4    1.317504 A    
C8    C47   1.464526 S    
C50   C52   1.400466 A    
C36   C40   1.390640 A    
C57   C59   1.434405 A    
C56   C58   1.421111 A    
Cu1   N3    2.041087 S    
O3    Cu2   1.950055 S    
C25   C45   1.412756 A    
C68   O24   1.219812 D    
O7    Cu4   1.949271 S    
C4    C35   1.475390 S    
Cu4   O15   1.950267 S    
C54   H26   1.082046 S    
Cu1   Cu3   2.715673 S    
Cu2   Cu4   2.715673 S    
C12   C16   1.392094 A    
O1    Cu1   1.950055 S    
H22   C62   1.081592 S    
O2    C2    1.298990 A    
C51   C53   1.378200 A    
C56   N6    1.426794 S    
N6    O19   1.300877 A    
C67   H31   1.085700 S    
C22   H14   1.081468 S    
C50   C60   1.425370 A    
N7    O26   1.301650 A    
O13   C5    1.302170 A    
C66   O22   1.219783 D    
C27   C47   1.412762 A    
C10   H6    1.082091 S    
Cu2   O11   1.949371 S    
C15   C17   1.391886 A    
O16   C8    1.310259 A    
C38   C44   1.378293 A    
H4    C40   1.084625 S    
C64   N4    1.368457 A    
C12   C32   1.411457 A    
N8    O28   1.301662 A    
Cu1   O9    1.949371 S    
C22   C26   1.412181 A    
C55   C57   1.421153 A    
C26   C32   1.412732 A    
O9    C5    1.297985 A    
C9    C13   1.394256 A    
C55   N5    1.426838 S    
C42   C46   1.395285 A    
N5    O17   1.300919 A    
C35   C39   1.401998 A    
C30   C34   1.410862 A    
C44   C48   1.395339 A    
C60   N2    1.389863 A    
C6    C45   1.464495 S    
C29   C33   1.436734 A    
C5    C46   1.445701 S    
C13   C19   1.391881 A    
C19   C23   1.398399 A    
O4    Cu2   1.974633 S    
C7    C48   1.445742 S    
C41   C45   1.389555 A    
O5    Cu3   1.949271 S    
C17   C21   1.398405 A    
O3    C3    1.296589 A    
N8    O27   1.302178 A    
Cu4   N2    2.040647 S    
C2    C33   1.475409 S    
C16   H12   1.084141 S    
Cu3   O13   1.950267 S    
C49   N7    1.425780 S    
Cu4   O16   1.974850 S    
O14   C6    1.310251 A    
C13   H9    1.083931 S    
C63   N3    1.368447 A    
C28   C48   1.415044 A    
C15   H11   1.083931 S    
C37   C43   1.377734 A    
C53   C55   1.390548 A    
C20   C24   1.405294 A    
C14   C20   1.397412 A    
C67   O23   1.221307 D    
