data_mof_unit_22043.cif
_audit_creation_date              2012-12-10T17:03:42-0500
_audit_creation_method            fapswitch 2.2
_symmetry_space_group_name_H-M    P1
_symmetry_Int_Tables_number       1
_space_group_crystal_system       triclinic
_cell_length_a                    10.008938
_cell_length_b                    10.748515
_cell_length_c                    13.149249
_cell_angle_alpha                 89.725589
_cell_angle_beta                  71.223054
_cell_angle_gamma                 89.826055
_cell_volume                      1339.30793688

loop_
_atom_site_label
_atom_site_type_symbol
_atom_type_description
_atom_site_fract_x
_atom_site_fract_y
_atom_site_fract_z
_atom_type_partial_charge
C1    C     C_R   0.500945 0.737406 0.497780 0.941684
C2    C     C_R   0.440450 0.554821 0.982608 0.143172
C3    C     C_R   0.473612 0.571238 0.870858 0.091261
C4    C     C_R   0.545283 0.580466 0.030139 -0.035029
C5    C     C_R   0.686065 0.600678 0.965191 0.075876
C6    C     C_R   0.713484 0.631685 0.857622 -0.181659
C7    C     C_R   0.604793 0.626913 0.813345 -0.186247
C8    C     C_R   0.514202 0.586852 0.140720 0.309910
C9    C     C_R   0.763435 0.564955 0.120052 0.481927
C10   C     C_R   0.377971 0.526256 0.819861 -0.118200
C11   C     C_2   0.617026 0.066887 0.488159 -0.141095
C12   C     C_R   0.423280 0.509025 0.703456 0.855296
C13   C     C_2   0.496686 0.131062 0.510305 -0.318410
C14   C     C_2   0.615389 0.932931 0.494522 -0.188021
C15   C     C_2   0.505143 0.868856 0.486701 -0.271659
C16   C     C_2   0.094905 0.414755 0.453317 -0.061327
C17   C     C_2   0.947853 0.420414 0.446334 -0.115810
C18   C     C_R   0.499534 0.262642 0.501779 0.938744
C19   C     C_R   0.576769 0.513519 0.297148 0.952784
C20   C     C_R   0.794964 0.593483 0.010303 -0.328507
C21   C     C_R   0.620329 0.552688 0.184235 -0.298180
C22   C     C_R   0.245016 0.481486 0.881647 -0.202342
C23   C     C_R   0.211101 0.469740 0.992175 -0.179116
C24   C     C_R   0.309153 0.502165 0.042026 -0.140436
H1    H     H_    0.393170 0.088456 0.537758 0.145289
H2    H     H_    0.706986 0.887105 0.505097 0.172441
H3    H     H_    0.417135 0.911646 0.468704 0.176634
H4    H     H_    0.160953 0.337001 0.414930 0.158063
H5    H     H_    0.089537 0.576555 0.528854 0.154365
H6    H     H_    0.919779 0.352630 0.395843 0.167833
H7    H     H_    0.875669 0.557556 0.552049 0.151888
H8    H     H_    0.817846 0.660993 0.808323 0.136125
H9    H     H_    0.903816 0.604166 0.959852 0.154143
H10   H     H_    0.170572 0.447977 0.843850 0.162972
H11   H     H_    0.283644 0.480387 0.126336 0.189768
H12   H     H_    0.111253 0.429045 0.038701 0.188731
H13   H     H_    0.627468 0.662835 0.732724 0.167050
H14   H     H_    0.718984 0.112868 0.466592 0.170181
N1    N     N_2   0.148270 0.498670 0.498870 -0.172165
N2    N     N_2   0.852610 0.498640 0.498840 -0.205078
O1    O     O_R   0.386950 0.680940 0.500020 -0.584627
O2    O     O_R   0.613110 0.680900 0.499980 -0.649821
O3    O     O_R   0.330780 0.500000 0.653640 -0.619597
O4    O     O_R   0.556930 0.499960 0.653610 -0.616212
O5    O     O_R   0.386890 0.319100 0.500020 -0.623560
O6    O     O_R   0.613050 0.319060 0.499980 -0.609496
O7    O     O_R   0.443070 0.500040 0.346390 -0.549230
O8    O     O_R   0.669220 0.500000 0.346360 -0.568675
Zn1   Zn    Zn3+2 0.349000 0.500030 0.500020 0.988211
Zn2   Zn    Zn3+2 0.651000 0.499970 0.499980 0.940047
O9    O     O_3   0.870727 0.545969 0.163894 -0.617663
C25   C     C_3   0.943810 0.658676 0.164691 0.113246
H15   H     H_    0.959695 0.717342 0.091754 0.137367
H16   H     H_    0.050837 0.634658 0.166457 0.210473
C26   C     C_3   0.870771 0.734654 0.265003 -0.793332
H17   H     H_    0.931488 0.821076 0.264451 0.212368
H18   H     H_    0.762340 0.760565 0.267384 0.258595
H19   H     H_    0.865854 0.680088 0.337918 0.272606
S1    S     S_3+6 0.378640 0.693253 0.210863 0.005794
O10   O     O_2   0.432933 0.774843 0.281214 -0.323819
O11   O     O_2   0.337728 0.774164 0.131997 -0.312511
O12   O     O_3   0.234719 0.617209 0.287190 -0.577694
H20   H     H_    0.166260 0.683349 0.321778 0.364676

loop_
_geom_bond_atom_site_label_1
_geom_bond_atom_site_label_2
_ccdc_geom_bond_type
C16   H4    S    
C11   H14   S    
C2    C4    A    
C23   C24   A    
C6    C7    A    
C1    C15   S    
O6    Zn2   S    
C9    C20   A    
C15   H3    S    
C9    O9    S    
C25   C26   S    
O5    Zn1   S    
C4    C8    A    
C9    C21   A    
H5    N1    S    
C26   H17   S    
O8    Zn2   S    
C2    C3    A    
C7    H13   S    
S1    O10   D    
O7    Zn1   S    
C3    C10   A    
C10   C22   A    
C17   H6    S    
C11   C13   D    
C13   H1    S    
O12   H20   S    
C10   C12   S    
C13   C18   S    
O2    Zn2   S    
N2    Zn2   S    
C20   H9    S    
C18   O6    A    
C1    O1    A    
O1    Zn1   S    
N1    Zn1   S    
C25   H16   S    
C8    C21   A    
C12   O3    A    
C3    C7    A    
C26   H18   S    
C8    S1    S    
C2    C24   A    
C5    C6    A    
C22   H10   S    
C11   C14   S    
C19   O7    A    
S1    O11   D    
C24   H11   S    
C16   C17   S    
C16   N1    D    
O9    C25   S    
C18   O5    A    
C1    O2    A    
C25   H15   S    
C12   O4    A    
C23   H12   S    
C26   H19   S    
O4    Zn2   S    
C5    C20   A    
C22   C23   A    
O3    Zn1   S    
S1    O12   S    
C19   C21   S    
H7    N2    S    
C19   O8    A    
C14   H2    S    
C14   C15   D    
C4    C5    A    
C6    H8    S    
C17   N2    D    
