data_mof_unit_29799.cif
_audit_creation_date              2012-10-26T19:56:43-0400
_audit_creation_method            fapswitch 2.2
_symmetry_space_group_name_H-M    P1
_symmetry_Int_Tables_number       1
_space_group_crystal_system       triclinic
_cell_length_a                    15.919985
_cell_length_b                    15.23026
_cell_length_c                    9.845543
_cell_angle_alpha                 89.904454
_cell_angle_beta                  59.321961
_cell_angle_gamma                 90.058433
_cell_volume                      2053.10259097

loop_
_atom_site_label
_atom_site_type_symbol
_atom_type_description
_atom_site_fract_x
_atom_site_fract_y
_atom_site_fract_z
_atom_type_partial_charge
C1    C     C_R   0.370543 0.117171 0.563090 0.559637
C2    C     C_2   0.488972 0.999861 0.085014 -0.037071
C3    C     C_2   0.011025 0.499865 0.914986 -0.037945
C4    C     C_2   0.988968 0.499627 0.085014 -0.035802
C5    C     C_2   0.294996 0.814242 0.604637 -0.022051
C6    C     C_2   0.705997 0.182323 0.397964 -0.016556
C7    C     C_2   0.704959 0.814525 0.395693 -0.021445
C8    C     C_2   0.289829 0.176651 0.603061 -0.018048
C9    C     C_2   0.787346 0.323267 0.605515 -0.025107
C10   C     C_2   0.207658 0.681983 0.396081 -0.020928
C11   C     C_2   0.208770 0.319881 0.398035 -0.024718
C12   C     C_R   0.629984 0.882283 0.435716 0.569053
C13   C     C_2   0.792661 0.681975 0.603585 -0.020846
C14   C     C_2   0.304228 0.765398 0.483977 -0.165408
C15   C     C_2   0.693960 0.238402 0.511780 -0.156398
C16   C     C_2   0.695792 0.765424 0.516308 -0.165447
C17   C     C_2   0.301045 0.235310 0.493166 -0.157716
C18   C     C_2   0.771054 0.299088 0.489606 -0.159108
C19   C     C_2   0.232030 0.699179 0.505371 -0.158725
C20   C     C_2   0.222645 0.293799 0.515854 -0.158424
C21   C     C_2   0.767953 0.699232 0.494685 -0.158986
C22   C     C_3   0.799124 0.177868 0.237143 -0.252906
C23   C     C_R   0.629079 0.117934 0.436836 0.559519
C24   C     C_3   0.797310 0.244742 0.121992 -0.305180
C25   C     C_3   0.898859 0.259429 0.978338 -0.460249
C26   C     C_3   0.208456 0.799521 0.773662 -0.265472
C27   C     C_3   0.200438 0.861194 0.903676 -0.289022
C28   C     C_3   0.107902 0.843476 0.062364 -0.478011
C29   C     C_3   0.193517 0.158988 0.754627 -0.251910
C30   C     C_3   0.187328 0.207749 0.895459 -0.294637
C31   C     C_3   0.102463 0.173382 0.051165 -0.461184
C32   C     C_3   0.791425 0.800178 0.226653 -0.264846
C33   C     C_3   0.799585 0.862116 0.096512 -0.288447
C34   C     C_R   0.369989 0.882204 0.564442 0.568392
C35   C     C_3   0.892050 0.844687 0.937828 -0.477632
C36   C     C_3   0.256704 0.725588 0.234346 -0.254065
C37   C     C_3   0.342637 0.670067 0.113110 -0.299839
C38   C     C_3   0.387333 0.708564 0.947218 -0.449762
C39   C     C_3   0.724043 0.294268 0.776656 -0.250733
C40   C     C_3   0.655765 0.369005 0.875989 -0.295133
C41   C     C_3   0.595759 0.344549 0.050407 -0.457688
C42   C     C_3   0.744093 0.725510 0.764995 -0.253516
C43   C     C_3   0.658131 0.669861 0.886988 -0.299776
C44   C     C_3   0.613586 0.708497 0.052422 -0.449787
C45   C     C_R   0.870357 0.617662 0.563447 0.558838
C46   C     C_3   0.270241 0.288017 0.228480 -0.251970
C47   C     C_3   0.339650 0.360555 0.121940 -0.296943
C48   C     C_3   0.397775 0.331519 0.949829 -0.454872
C49   C     C_R   0.129696 0.382447 0.436900 0.560908
C50   C     C_R   0.129743 0.617669 0.436376 0.559607
C51   C     C_R   0.869159 0.383430 0.564000 0.559408
C52   C     C_2   0.511021 0.999776 0.914997 -0.037699
Cu1   Cu    Cu3+1 0.522650 0.000000 0.349410 0.893625
Cu2   Cu    Cu3+1 0.477350 0.000000 0.650590 0.892816
Cu3   Cu    Cu3+1 0.022650 0.500000 0.349410 0.898554
Cu4   Cu    Cu3+1 0.977350 0.500000 0.650590 0.890834
H1    H     H_    0.628132 0.999784 0.031201 0.192203
H2    H     H_    0.818924 0.323155 0.370471 0.152009
H3    H     H_    0.805005 0.665184 0.382302 0.138299
H4    H     H_    0.174353 0.316681 0.635638 0.147037
H5    H     H_    0.413032 0.999886 0.179114 0.148868
H6    H     H_    0.586959 0.999609 0.820901 0.149101
H7    H     H_    0.913022 0.499204 0.179115 0.143140
H8    H     H_    0.086964 0.499978 0.820875 0.143702
H9    H     H_    0.947791 0.289381 0.015078 0.159250
H10   H     H_    0.930230 0.196356 0.916766 0.141916
H11   H     H_    0.894181 0.305264 0.894832 0.179620
H12   H     H_    0.371862 0.000040 0.968790 0.192559
H13   H     H_    0.748138 0.219604 0.081716 0.167997
H14   H     H_    0.768734 0.308971 0.181097 0.154144
H15   H     H_    0.863853 0.187781 0.250006 0.138658
H16   H     H_    0.807602 0.111013 0.186426 0.135001
H17   H     H_    0.042824 0.867227 0.060777 0.146400
H18   H     H_    0.099417 0.772222 0.090620 0.162624
H19   H     H_    0.112007 0.879168 0.157098 0.134245
H20   H     H_    0.263125 0.850409 0.921332 0.186384
H21   H     H_    0.199784 0.930804 0.870133 0.170770
H22   H     H_    0.139762 0.805850 0.770811 0.149348
H23   H     H_    0.128128 0.500400 0.031187 0.194137
H24   H     H_    0.212585 0.731235 0.809871 0.131141
H25   H     H_    0.034565 0.170547 0.046255 0.149829
H26   H     H_    0.119093 0.106320 0.075391 0.145186
H27   H     H_    0.090174 0.217268 0.149487 0.149769
H28   H     H_    0.255759 0.198246 0.897625 0.178535
H29   H     H_    0.177417 0.279126 0.884545 0.152181
H30   H     H_    0.129982 0.176307 0.742216 0.134423
H31   H     H_    0.187122 0.087123 0.778543 0.137776
H32   H     H_    0.957177 0.868830 0.939019 0.146072
H33   H     H_    0.900561 0.773443 0.910112 0.162186
H34   H     H_    0.871870 0.499614 0.968814 0.195391
H35   H     H_    0.887814 0.880204 0.842894 0.134973
H36   H     H_    0.736869 0.851333 0.078891 0.186245
H37   H     H_    0.800416 0.931674 0.129925 0.170746
H38   H     H_    0.860157 0.806515 0.229421 0.149467
H39   H     H_    0.787121 0.731965 0.190614 0.130908
H40   H     H_    0.332373 0.709289 0.909779 0.154070
H41   H     H_    0.414327 0.776345 0.943562 0.165388
H42   H     H_    0.449368 0.667175 0.862574 0.132211
H43   H     H_    0.399498 0.666706 0.146268 0.155026
H44   H     H_    0.317464 0.602080 0.111993 0.168918
H45   H     H_    0.625919 0.238105 0.624726 0.138230
H46   H     H_    0.202564 0.732811 0.195882 0.154674
H47   H     H_    0.281294 0.793342 0.238097 0.133356
H48   H     H_    0.550613 0.285278 0.067665 0.159888
H49   H     H_    0.644337 0.332191 0.098100 0.147964
H50   H     H_    0.547356 0.400147 0.117418 0.131851
H51   H     H_    0.698620 0.429026 0.864611 0.176519
H52   H     H_    0.605838 0.384975 0.831989 0.153492
H53   H     H_    0.680734 0.234503 0.789490 0.137663
H54   H     H_    0.772208 0.275932 0.822982 0.146695
H55   H     H_    0.668629 0.709580 0.089671 0.154162
H56   H     H_    0.365610 0.775693 0.365162 0.147292
H57   H     H_    0.586628 0.776147 0.055388 0.164971
H58   H     H_    0.551547 0.666974 0.137602 0.132343
H59   H     H_    0.601196 0.666130 0.854034 0.154941
H60   H     H_    0.683256 0.602020 0.888833 0.168636
H61   H     H_    0.798485 0.732824 0.802935 0.154824
H62   H     H_    0.719637 0.793229 0.760929 0.133486
H63   H     H_    0.442741 0.272913 0.936913 0.159728
H64   H     H_    0.347716 0.316136 0.905907 0.148495
H65   H     H_    0.446444 0.385753 0.876430 0.132864
H66   H     H_    0.298098 0.420531 0.128633 0.178679
H67   H     H_    0.370868 0.240695 0.383476 0.136947
H68   H     H_    0.390564 0.378057 0.163111 0.152956
H69   H     H_    0.312737 0.228268 0.218897 0.140319
H70   H     H_    0.220659 0.268709 0.185341 0.149151
H71   H     H_    0.634517 0.775471 0.635174 0.146878
H72   H     H_    0.194660 0.665045 0.617967 0.138740
N1    N     N_2   0.443290 0.000000 0.876860 -0.358330
N2    N     N_2   0.556710 0.000000 0.123140 -0.358003
N3    N     N_2   0.943290 0.500000 0.876860 -0.357096
N4    N     N_2   0.056710 0.500000 0.123140 -0.353045
O1    O     O_R   0.422430 0.089640 0.419570 -0.497527
O2    O     O_R   0.615830 0.910350 0.326090 -0.501015
O3    O     O_R   0.615830 0.089650 0.326090 -0.493049
O4    O     O_R   0.384170 0.910350 0.673910 -0.500448
O5    O     O_R   0.884170 0.589650 0.673910 -0.494381
O6    O     O_R   0.115830 0.410350 0.326090 -0.493893
O7    O     O_R   0.115830 0.589650 0.326090 -0.494845
O8    O     O_R   0.884170 0.410350 0.673910 -0.501181
O9    O     O_R   0.577570 0.910360 0.580430 -0.500583
O10   O     O_R   0.577570 0.089640 0.580430 -0.498268
O11   O     O_R   0.422430 0.910360 0.419570 -0.500803
O12   O     O_R   0.922430 0.589640 0.419570 -0.500879
O13   O     O_R   0.077570 0.410360 0.580430 -0.504080
O14   O     O_R   0.077570 0.589640 0.580430 -0.499723
O15   O     O_R   0.922430 0.410360 0.419570 -0.501526
O16   O     O_R   0.384170 0.089650 0.673910 -0.494108

loop_
_geom_bond_atom_site_label_1
_geom_bond_atom_site_label_2
_ccdc_geom_bond_type
C15   C18   S    
C32   H38   S    
Cu3   Cu4   S    
C16   C21   S    
C1    C8    S    
C46   H69   S    
C25   H11   S    
C38   H42   S    
C28   H18   S    
C11   C46   S    
C24   H14   S    
C4    N4    D    
C3    H8    S    
C14   H56   S    
C4    H7    S    
C26   C27   S    
C37   C38   S    
C31   H26   S    
C41   H49   S    
C36   H47   S    
C3    N3    D    
C8    C29   S    
C36   C37   S    
C21   H3    S    
C30   C31   S    
Cu4   O8    S    
H23   N4    S    
C6    C22   S    
C19   H72   S    
C9    C39   S    
C17   C20   S    
Cu3   O7    S    
C12   O9    A    
C36   H46   S    
Cu4   O13   S    
C43   H59   S    
C6    C15   D    
C18   H2    S    
C39   H54   S    
Cu1   O3    S    
C45   O12   A    
C23   O10   A    
Cu3   O12   S    
C51   O15   A    
C20   H4    S    
C2    H5    S    
C40   H52   S    
C51   O8    A    
C50   O14   A    
C44   H58   S    
C12   O2    A    
C49   O6    A    
C30   H28   S    
C38   H41   S    
C1    O1    A    
C28   H17   S    
C22   H16   S    
C13   C42   S    
C17   H67   S    
C24   H13   S    
C48   H63   S    
C7    C12   S    
C11   C20   D    
C34   O11   A    
C41   H50   S    
Cu1   O2    S    
C49   O13   A    
H1    N2    S    
Cu1   O1    S    
C24   C25   S    
C48   H64   S    
C33   H36   S    
C39   C40   S    
C2    N2    D    
C50   O7    A    
C42   H62   S    
C47   H66   S    
Cu1   Cu2   S    
C26   H24   S    
Cu1   O11   S    
C43   C44   S    
C29   C30   S    
C11   C49   S    
C43   H60   S    
C35   H32   S    
Cu3   O15   S    
C47   C48   S    
C34   O4    A    
C10   C19   D    
Cu2   O4    S    
C5    C34   S    
Cu2   O9    S    
C45   O5    A    
C5    C14   D    
C31   H27   S    
C13   C21   D    
C26   H22   S    
C15   H45   S    
C30   H29   S    
Cu3   O6    S    
C29   H30   S    
C2    C52   S    
C40   H51   S    
H34   N3    S    
C35   H33   S    
C7    C16   D    
Cu2   O10   S    
C44   H57   S    
C22   C24   S    
C42   C43   S    
C52   N1    D    
C27   H20   S    
C10   C50   S    
C22   H15   S    
C37   H43   S    
Cu2   O16   S    
Cu2   N1    S    
C46   C47   S    
C40   C41   S    
C7    C32   S    
C14   C19   S    
C46   H70   S    
C25   H10   S    
C27   H21   S    
C33   H37   S    
C42   H61   S    
C8    C17   D    
C31   H25   S    
C41   H48   S    
C23   O3    A    
C9    C51   S    
C52   H6    S    
C32   C33   S    
C13   C45   S    
Cu4   O5    S    
C47   H68   S    
C6    C23   S    
C33   C35   S    
Cu4   O14   S    
H12   N1    S    
C16   H71   S    
C29   H31   S    
Cu4   N3    S    
C5    C26   S    
C44   H55   S    
C9    C18   D    
C39   H53   S    
C32   H39   S    
Cu3   N4    S    
C38   H40   S    
C27   C28   S    
C25   H9    S    
C1    O16   A    
C10   C36   S    
Cu1   N2    S    
C48   H65   S    
C28   H19   S    
C37   H44   S    
C3    C4    S    
C35   H35   S    
