data_mof_unit_56201.cif
_audit_creation_date              2012-12-10T18:24:43-0500
_audit_creation_method            fapswitch 2.2
_symmetry_space_group_name_H-M    P1
_symmetry_Int_Tables_number       1
_space_group_crystal_system       triclinic
_cell_length_a                    14.064428
_cell_length_b                    14.993151
_cell_length_c                    16.421426
_cell_angle_alpha                 90.01522
_cell_angle_beta                  84.160911
_cell_angle_gamma                 91.257383
_cell_volume                      3443.9848455

loop_
_atom_site_label
_atom_site_type_symbol
_atom_type_description
_atom_site_fract_x
_atom_site_fract_y
_atom_site_fract_z
_atom_type_partial_charge
C1    C     C_R   0.500605 0.673322 0.500576 0.884883
C2    C     C_R   0.499165 0.326565 0.500810 0.884025
C3    C     C_R   0.576376 0.187004 0.529442 -0.208087
C4    C     C_R   0.422701 0.812848 0.475554 -0.212119
C5    C     C_R   0.498063 0.230662 0.503324 -0.090571
C6    C     C_R   0.500657 0.769021 0.501916 -0.100686
C7    C     C_R   0.419823 0.182963 0.478985 -0.224930
C8    C     C_R   0.577028 0.816189 0.530247 -0.242786
C9    C     C_R   0.419709 0.090852 0.478937 0.071907
C10   C     C_R   0.577189 0.908446 0.530544 0.071215
C11   C     C_R   0.498702 0.046160 0.504714 0.022862
C12   C     C_R   0.498586 0.953289 0.504098 0.028737
C13   C     C_R   0.577827 0.094432 0.530656 0.056314
C14   C     C_R   0.420095 0.905185 0.476827 0.058198
C15   C     C_R   0.341955 0.043215 0.452798 -0.229318
C16   C     C_R   0.654937 0.956162 0.556608 -0.242843
C17   C     C_R   0.341566 0.950619 0.451311 0.257983
C18   C     C_R   0.656122 0.048887 0.556569 0.261587
C19   C     C_R   0.200314 0.422328 0.485467 0.560781
C20   C     C_R   0.801861 0.579266 0.497749 0.532302
C21   C     C_R   0.201971 0.577721 0.513712 -0.173689
C22   C     C_R   0.796351 0.420847 0.501417 -0.161638
C23   C     C_R   0.486042 0.502897 0.654182 0.920545
C24   C     C_R   0.514136 0.503027 0.345655 0.897237
C25   C     C_R   0.101711 0.579759 0.513626 0.013784
C26   C     C_R   0.896721 0.418823 0.501048 0.015005
C27   C     C_R   0.049842 0.499327 0.506020 0.046293
C28   C     C_R   0.948906 0.499423 0.506282 0.053788
C29   C     C_R   0.099127 0.419212 0.494721 -0.077545
C30   C     C_R   0.900814 0.580422 0.507976 -0.103144
C31   C     C_R   0.052389 0.660189 0.520085 -0.166857
C32   C     C_R   0.946092 0.338379 0.494576 -0.171611
C33   C     C_R   0.953253 0.660717 0.515895 -0.183860
C34   C     C_R   0.046305 0.338648 0.490112 -0.176378
C35   C     C_R   0.478037 0.529085 0.740005 -0.181246
C36   C     C_R   0.524493 0.529165 0.259393 -0.165346
C37   C     C_R   0.556074 0.518061 0.784298 -0.286998
C38   C     C_R   0.443091 0.538804 0.218852 -0.298304
C39   C     C_R   0.563351 0.563727 0.857516 0.476055
C40   C     C_R   0.447133 0.584393 0.144393 0.469818
C41   C     C_R   0.485843 0.616880 0.890808 -0.043399
C42   C     C_R   0.537298 0.616020 0.106290 -0.012819
C43   C     C_R   0.403570 0.622156 0.847923 0.457437
C44   C     C_R   0.620556 0.600356 0.145323 0.445122
C45   C     C_R   0.401660 0.580563 0.772128 -0.279815
C46   C     C_R   0.613010 0.559032 0.222060 -0.312324
C47   C     C_2   0.481514 0.658944 0.973210 -0.153607
C48   C     C_2   0.551485 0.653728 0.021916 -0.134481
H1    H     H_    0.614478 0.477026 0.759682 0.177865
H2    H     H_    0.374579 0.513860 0.246550 0.166899
H3    H     H_    0.241672 0.638851 0.522759 0.179988
H4    H     H_    0.755872 0.358864 0.500303 0.178460
H5    H     H_    0.090769 0.722907 0.526088 0.179935
H6    H     H_    0.907455 0.275450 0.490784 0.181826
H7    H     H_    0.917734 0.724173 0.518740 0.186437
H8    H     H_    0.082275 0.275561 0.483291 0.187802
H9    H     H_    0.676755 0.552104 0.252882 0.166855
H10   H     H_    0.341936 0.591908 0.736937 0.181933
H11   H     H_    0.624141 0.660110 0.994150 0.225902
H12   H     H_    0.412779 0.681094 0.999480 0.217290
H13   H     H_    0.635568 0.225853 0.549076 0.194544
H14   H     H_    0.364690 0.774255 0.453561 0.196164
H15   H     H_    0.359723 0.217239 0.458670 0.197185
H16   H     H_    0.636335 0.781114 0.551728 0.196248
H17   H     H_    0.281509 0.078037 0.433099 0.176722
H18   H     H_    0.715240 0.921317 0.576537 0.182031
N1    N     N_R   0.249970 0.499930 0.499970 -0.147225
N2    N     N_R   0.750030 0.500070 0.500030 -0.140817
O1    O     O_R   0.419720 0.632140 0.499990 -0.638123
O2    O     O_R   0.580280 0.367860 0.500010 -0.638278
O3    O     O_R   0.580270 0.632160 0.499980 -0.564017
O4    O     O_R   0.419730 0.367840 0.500020 -0.572439
O5    O     O_R   0.410240 0.500000 0.615800 -0.609648
O6    O     O_R   0.589760 0.500000 0.384200 -0.616928
O7    O     O_R   0.570790 0.500020 0.615800 -0.608533
O8    O     O_R   0.429210 0.499980 0.384200 -0.635271
Zn1   Zn    Zn3+2 0.392800 0.499980 0.500010 0.962030
Zn2   Zn    Zn3+2 0.607200 0.500020 0.499990 0.968067
O9    O     O_3   0.248760 0.347942 0.456670 -0.651659
C49   C     C_3   0.273140 0.356315 0.370889 0.106477
H19   H     H_    0.349940 0.340609 0.357534 0.174551
H20   H     H_    0.264142 0.424607 0.345765 0.119429
C50   C     C_3   0.214694 0.289247 0.325195 -0.418740
H21   H     H_    0.221986 0.221269 0.350513 0.236290
H22   H     H_    0.138106 0.307020 0.333404 0.229117
C51   C     C_3   0.248114 0.288938 0.233807 -0.912056
H23   H     H_    0.240375 0.356108 0.207022 0.258594
H24   H     H_    0.204008 0.240212 0.202232 0.275244
H25   H     H_    0.324128 0.269423 0.223502 0.265719
O10   O     O_3   0.759389 0.657695 0.478967 -0.636718
C52   C     C_3   0.780459 0.673150 0.393870 0.066551
H26   H     H_    0.752611 0.616981 0.358193 0.139492
H27   H     H_    0.859062 0.680447 0.377192 0.138309
C53   C     C_3   0.733867 0.758967 0.369655 -0.326950
H28   H     H_    0.655014 0.749483 0.376968 0.231738
H29   H     H_    0.753866 0.814386 0.410000 0.236403
C54   C     C_3   0.765140 0.784100 0.280799 -0.924866
H30   H     H_    0.843725 0.796173 0.271662 0.267347
H31   H     H_    0.729082 0.845947 0.264897 0.274033
H32   H     H_    0.745208 0.729908 0.239365 0.292892
O11   O     O_3   0.327374 0.674482 0.876382 -0.644890
C55   C     C_3   0.258337 0.622382 0.925392 0.076093
H33   H     H_    0.228098 0.665580 0.976109 0.173034
H34   H     H_    0.288569 0.563581 0.954788 0.162148
C56   C     C_3   0.177027 0.591954 0.875817 -0.345056
H35   H     H_    0.149620 0.650289 0.844379 0.242323
H36   H     H_    0.203989 0.542949 0.828777 0.218200
C57   C     C_3   0.095173 0.548370 0.930999 -0.976060
H37   H     H_    0.121123 0.490279 0.963702 0.271303
H38   H     H_    0.038386 0.524711 0.893469 0.275000
H39   H     H_    0.063990 0.597212 0.976520 0.270886
O12   O     O_3   0.709321 0.630530 0.110191 -0.665899
C58   C     C_3   0.770285 0.557928 0.090215 0.099948
H40   H     H_    0.789463 0.558649 0.023001 0.169976
H41   H     H_    0.737345 0.490705 0.105628 0.141668
C59   C     C_3   0.862049 0.569819 0.132095 -0.360539
H42   H     H_    0.900918 0.631434 0.108634 0.234010
H43   H     H_    0.844179 0.577078 0.199213 0.213114
C60   C     C_3   0.926832 0.490022 0.115966 -0.969038
H44   H     H_    0.891855 0.428975 0.144566 0.271003
H45   H     H_    0.995272 0.502436 0.142617 0.270386
H46   H     H_    0.942410 0.478881 0.049154 0.272844
O13   O     O_3   0.363647 0.590785 0.106965 -0.674699
C61   C     C_3   0.296628 0.644792 0.153655 0.048101
H47   H     H_    0.282556 0.703544 0.115827 0.155455
H48   H     H_    0.321660 0.671841 0.211434 0.151632
C62   C     C_3   0.202776 0.592001 0.173839 -0.358063
H49   H     H_    0.173455 0.571857 0.116055 0.224429
H50   H     H_    0.216207 0.530583 0.208284 0.215743
C63   C     C_3   0.129074 0.647153 0.225329 -0.924497
H51   H     H_    0.156685 0.667261 0.283817 0.282498
H52   H     H_    0.062331 0.606891 0.239864 0.257531
H53   H     H_    0.112085 0.707741 0.191182 0.269844
O14   O     O_3   0.644279 0.551469 0.897467 -0.657614
C64   C     C_3   0.726505 0.588977 0.851226 0.038933
H54   H     H_    0.758529 0.640424 0.889462 0.157691
H55   H     H_    0.711514 0.623661 0.793763 0.143493
C65   C     C_3   0.800430 0.516724 0.830568 -0.330699
H56   H     H_    0.824468 0.490076 0.888000 0.216001
H57   H     H_    0.767850 0.460660 0.798180 0.231162
C66   C     C_3   0.887029 0.553486 0.776256 -0.938274
H58   H     H_    0.865093 0.577282 0.717012 0.272670
H59   H     H_    0.939898 0.500042 0.763537 0.270373
H60   H     H_    0.921528 0.609540 0.807312 0.265630
Br1   Br    Br    0.231596 0.890738 0.414095 -0.582884
Br2   Br    Br    0.766941 0.108799 0.592072 -0.560492

loop_
_geom_bond_atom_site_label_1
_geom_bond_atom_site_label_2
_ccdc_geom_bond_type
C25   C31   A    
C64   C65   S    
C26   C32   A    
O11   C55   S    
C27   C29   A    
O1    Zn1   S    
N1    Zn1   S    
C62   H50   S    
C54   H30   S    
C64   H54   S    
C39   C41   A    
C20   C30   A    
C57   H37   S    
C34   H8    S    
C56   H36   S    
C1    O3    A    
C13   C18   A    
C61   H48   S    
C35   C37   A    
C66   H59   S    
C51   H24   S    
O2    Zn2   S    
C15   H17   S    
C4    H14   S    
C59   H42   S    
C55   C56   S    
C64   H55   S    
C47   H12   S    
C47   C48   D    
C57   H38   S    
C19   N1    A    
C31   C33   A    
C36   C46   A    
C3    C13   A    
C53   H29   S    
C58   C59   S    
C60   H45   S    
C21   N1    A    
C41   C43   A    
C14   C17   A    
C53   H28   S    
C42   C44   A    
C23   O5    A    
C49   C50   S    
C2    O4    A    
C32   H6    S    
O12   C58   S    
C54   H31   S    
C44   C46   A    
C3    H13   S    
N2    Zn2   S    
C37   C39   A    
C56   C57   S    
C45   H10   S    
C1    C6    S    
O13   C61   S    
O8    Zn1   S    
C4    C6    A    
C66   H60   S    
C52   H26   S    
C5    C7    A    
C51   H23   S    
C24   O8    A    
C6    C8    A    
C53   C54   S    
C3    C5    A    
C20   O10   S    
C29   C34   A    
C65   C66   S    
C1    O1    A    
C32   C34   A    
C63   H52   S    
C43   O11   S    
O4    Zn1   S    
C52   H27   S    
C37   H1    S    
C50   H21   S    
C11   C12   A    
C22   N2    A    
C41   C47   S    
C33   H7    S    
C16   C18   A    
C42   C48   S    
C31   H5    S    
C55   H34   S    
C9    C11   A    
C7    H15   S    
C10   C12   A    
C8    H16   S    
C61   C62   S    
C38   H2    S    
C44   O12   S    
C49   H20   S    
C50   H22   S    
C12   C14   A    
C23   C35   S    
C46   H9    S    
O6    Zn2   S    
C17   Br1   S    
C2    C5    S    
C16   H18   S    
C62   H49   S    
C19   C29   A    
C21   H3    S    
C54   H32   S    
C36   C38   A    
C48   H11   S    
C22   H4    S    
C58   H40   S    
C60   H46   S    
C15   C17   A    
C40   O13   S    
C21   C25   A    
C30   C33   A    
C20   N2    A    
C23   O7    A    
C49   H19   S    
C18   Br2   S    
C51   H25   S    
C60   H44   S    
C57   H39   S    
O14   C64   S    
C65   H57   S    
C25   C27   A    
C56   H35   S    
C26   C28   A    
C24   C36   S    
C59   C60   S    
C28   C30   A    
C63   H51   S    
C9    C15   A    
C62   C63   S    
C43   C45   A    
C10   C16   A    
C66   H58   S    
C52   C53   S    
C38   C40   A    
C11   C13   A    
C24   O6    A    
O10   C52   S    
C40   C42   A    
C59   H43   S    
C4    C14   A    
C55   H33   S    
O7    Zn2   S    
C65   H56   S    
O9    C49   S    
C63   H53   S    
C7    C9    A    
C50   C51   S    
C8    C10   A    
C22   C26   A    
C27   C28   A    
O5    Zn1   S    
C2    O2    A    
O3    Zn2   S    
C19   O9    S    
C61   H47   S    
C58   H41   S    
C39   O14   S    
C35   C45   A    
