data_mof_unit_63471.cif
_audit_creation_date              2012-12-11T19:38:36-0500
_audit_creation_method            fapswitch 2.2
_symmetry_space_group_name_H-M    P1
_symmetry_Int_Tables_number       1
_space_group_crystal_system       triclinic
_cell_length_a                    8.247105
_cell_length_b                    15.037697
_cell_length_c                    22.94314
_cell_angle_alpha                 98.784708
_cell_angle_beta                  90.21044
_cell_angle_gamma                 98.910211
_cell_volume                      2776.94930313

loop_
_atom_site_label
_atom_site_type_symbol
_atom_type_description
_atom_site_fract_x
_atom_site_fract_y
_atom_site_fract_z
_atom_type_partial_charge
Ba1   Ba    Ba6+2 0.856850 0.543240 0.473390 1.830217
Ba2   Ba    Ba6+2 0.332990 0.456830 0.526620 1.854987
C1    C     C_3   0.711535 0.885123 0.337333 1.106587
C2    C     C_R   0.197203 0.518123 0.928102 -0.034715
C3    C     C_R   0.152537 0.509731 0.867377 0.609726
C4    C     C_3   0.164977 0.766005 0.316955 0.795159
C5    C     C_R   0.867306 0.491448 0.891343 0.608887
C6    C     C_R   0.908575 0.491281 0.951218 -0.022786
C7    C     C_R   0.074009 0.506950 0.969903 -0.037246
C8    C     C_R   0.362257 0.537791 0.948392 -0.032862
C9    C     C_R   0.402687 0.541800 0.008298 -0.056138
C10   C     C_R   0.281009 0.524082 0.049470 -0.009911
C11   C     C_R   0.116319 0.511862 0.030788 -0.039965
C12   C     C_3   0.678969 0.788851 0.353365 0.550726
C13   C     C_R   0.787500 0.476266 0.993043 -0.064791
C14   C     C_R   0.828865 0.487059 0.053146 -0.023469
C15   C     C_R   0.993976 0.506164 0.072894 -0.046360
C16   C     C_3   0.144335 0.810134 0.262327 0.862514
C17   C     C_R   0.039771 0.519069 0.133606 0.714759
C18   C     C_R   0.320238 0.518000 0.108763 0.636730
C19   C     C_2   0.806435 0.420541 0.762812 -0.153580
C20   C     C_3   0.766042 0.400038 0.697615 -0.173391
C21   C     C_1   0.002031 0.517364 0.684105 -0.061728
C22   C     C_2   0.040651 0.533709 0.741865 -0.175476
C23   C     C_3   0.474398 0.326044 0.346252 0.322054
C24   C     C_2   0.941147 0.482030 0.785079 0.207170
C25   C     C_R   0.396378 0.571724 0.238217 -0.055466
C26   C     C_R   0.446318 0.571361 0.296428 -0.049122
C27   C     C_R   0.186874 0.480631 0.313878 0.022169
C28   C     C_3   0.230199 0.735098 0.601723 0.315961
C29   C     C_R   0.146506 0.468500 0.252464 0.375030
C30   C     C_R   0.245955 0.519948 0.214177 0.225779
C31   C     C_2   0.870072 0.460173 0.661075 0.345066
C32   C     C_R   0.846704 0.169663 0.541089 -0.014135
C33   C     C_R   0.780101 0.076226 0.536134 -0.059937
C34   C     C_3   0.431536 0.299803 0.280466 0.960023
C35   C     C_R   0.645388 0.888292 0.523248 -0.022055
C36   C     C_R   0.788720 0.923840 0.557931 0.014306
C37   C     C_R   0.856775 0.015481 0.563072 -0.076286
C38   C     C_R   0.579686 0.794286 0.514496 0.020444
C39   C     C_R   0.434851 0.763391 0.480750 -0.277461
C40   C     C_3   0.257902 0.838506 0.618022 0.593275
C41   C     C_R   0.613665 0.195877 0.484241 -0.055723
C42   C     C_R   0.548160 0.102910 0.477045 -0.046276
C43   C     C_R   0.630545 0.042832 0.503610 0.048525
C44   C     C_R   0.402926 0.068418 0.443689 -0.007777
C45   C     C_3   0.023282 0.252530 0.683310 0.464860
C46   C     C_R   0.336761 0.977367 0.437923 -0.073865
C47   C     C_R   0.415457 0.916441 0.463770 -0.066477
C48   C     C_R   0.564600 0.948935 0.496495 0.031311
C49   C     C_R   0.348345 0.823877 0.457903 -0.035953
C50   C     C_R   0.758226 0.228491 0.517513 -0.253964
C51   C     C_3   0.937166 0.262776 0.391737 0.856794
C52   C     C_3   0.886969 0.161590 0.368590 -0.166670
C53   C     C_3   0.710397 0.655522 0.649971 0.375552
C54   C     C_3   0.719970 0.675700 0.716977 0.581697
C55   C     C_3   0.044098 0.226044 0.744067 0.621249
C56   C     C_3   0.489109 0.212934 0.659592 -0.051107
C57   C     C_3   0.440320 0.125220 0.685773 0.549914
C58   C     C_R   0.337087 0.531729 0.334729 -0.306308
Cl1   Cl    Cl    0.595958 0.255293 0.241665 -0.461881
Cl2   Cl    Cl    0.261113 0.764127 0.202982 -0.588681
Cl3   Cl    Cl    0.988448 0.379531 0.223427 -0.503139
F1    F     F_    0.380433 0.865838 0.661196 -0.622190
F2    F     F_    0.840326 0.440902 0.601801 -0.715459
F3    F     F_    0.197304 0.903079 0.275344 -0.626572
F4    F     F_    0.035303 0.272209 0.441755 -0.712219
F5    F     F_    0.848807 0.935223 0.368550 -0.719464
F6    F     F_    0.574007 0.699960 0.738299 -0.611359
F7    F     F_    0.291188 0.235179 0.271981 -0.608296
F8    F     F_    0.736123 0.883127 0.277220 -0.607571
F9    F     F_    0.983624 0.134779 0.743164 -0.645412
F10   F     F_    0.295750 0.076204 0.659263 -0.639788
F11   F     F_    0.105531 0.673851 0.304237 -0.727899
H1    H     H_    0.741840 0.789085 0.396401 0.014151
H2    H     H_    0.822556 0.731897 0.732064 0.030465
H3    H     H_    0.741573 0.614029 0.734743 -0.102463
H4    H     H_    0.545368 0.770575 0.359015 -0.389481
H5    H     H_    0.604015 0.920103 0.349407 -0.075815
H6    H     H_    0.367935 0.352778 0.368329 -0.058001
H7    H     H_    0.583148 0.380792 0.352329 -0.050492
H8    H     H_    0.408780 0.360957 0.262004 -0.184635
H9    H     H_    0.078524 0.325403 0.684885 -0.084788
H10   H     H_    0.889958 0.242838 0.672690 -0.205677
H11   H     H_    0.175266 0.238926 0.758224 0.049611
H12   H     H_    0.294679 0.870581 0.578772 -0.087403
H13   H     H_    0.976107 0.267211 0.776419 -0.105698
H14   H     H_    0.624777 0.224354 0.657705 0.255017
H15   H     H_    0.438981 0.203489 0.613528 0.124811
H16   H     H_    0.537991 0.081828 0.677575 0.010675
H17   H     H_    0.424832 0.140307 0.734298 0.085028
H18   H     H_    0.732051 0.477103 0.084016 0.184802
H19   H     H_    0.660784 0.454087 0.978715 0.113994
H20   H     H_    0.529153 0.562278 0.023179 0.116266
H21   H     H_    0.477839 0.611515 0.211767 0.169875
H22   H     H_    0.460354 0.551140 0.918184 0.181470
H23   H     H_    0.142667 0.861983 0.634471 0.046116
H24   H     H_    0.135521 0.590553 0.758694 0.168964
H25   H     H_    0.728652 0.379221 0.790674 0.136533
H26   H     H_    0.373815 0.535653 0.380488 0.061817
H27   H     H_    0.297662 0.776514 0.328814 -0.076490
H28   H     H_    0.851749 0.881748 0.581352 0.097000
H29   H     H_    0.968789 0.038145 0.589219 0.153401
H30   H     H_    0.224006 0.955874 0.412203 0.159158
H31   H     H_    0.336647 0.110896 0.421755 0.135618
H32   H     H_    0.382862 0.691999 0.475713 0.054587
H33   H     H_    0.808423 0.299981 0.521402 0.160497
H34   H     H_    0.826531 0.294112 0.402397 -0.104238
H35   H     H_    0.012564 0.797707 0.248040 0.106248
H36   H     H_    0.347862 0.712139 0.589075 -0.028625
H37   H     H_    0.141356 0.716080 0.563841 -0.052180
H38   H     H_    0.800566 0.152282 0.329997 0.141300
H39   H     H_    0.825926 0.125939 0.403334 0.048372
H40   H     H_    0.997033 0.129991 0.355114 0.184537
H41   H     H_    0.827537 0.635672 0.633729 -0.150298
H42   H     H_    0.609101 0.597968 0.636795 0.061876
N1    N     N_R   0.987990 0.495560 0.848702 -0.420645
N2    N     N_R   0.200941 0.517721 0.151477 -0.416482
O1    O     O_2   0.889550 0.449610 0.359390 -0.450927
O2    O     O_2   0.184386 0.175846 0.532097 -0.447319
O3    O     O_3   0.101711 0.196747 0.641625 -0.543211
O4    O     O_3   0.130110 0.450560 0.430470 -0.461199
O5    O     O_3   0.576420 0.610430 0.532020 -0.494131
O6    O     O_2   0.341600 0.276000 0.466340 -0.385403
O7    O     O_3   0.508765 0.249356 0.369216 -0.628126
O8    O     O_2   0.457742 0.466222 0.708576 -0.415645
O9    O     O_3   0.430541 0.286730 0.694293 -0.606370
O10   O     O_2   0.260418 0.514024 0.831575 -0.542774
O11   O     O_2   0.723947 0.490724 0.877713 -0.584188
O12   O     O_3   0.682940 0.733823 0.627769 -0.600622
O13   O     O_2   0.936445 0.533434 0.170285 -0.489846
O14   O     O_2   0.460296 0.510926 0.121775 -0.589594
O15   O     O_3   0.674110 0.616450 0.398780 -0.501986
O16   O     O_2   0.779669 0.554598 0.294036 -0.360727
O17   O     O_3   0.024090 0.303705 0.348244 -0.578581
O18   O     O_3   0.735542 0.725817 0.309240 -0.559539
O19   O     O_2   0.848090 0.724020 0.533700 -0.482813
O20   O     O_3   0.092920 0.663620 0.428750 -0.452447
O21   O     O_2   0.018048 0.823292 0.474030 -0.490456
O22   O     O_3   0.074960 0.806664 0.362455 -0.584355
O23   O     O_2   0.300150 0.550420 0.640640 -0.446183
O24   O     O_3   0.059600 0.549520 0.569540 -0.421112
O25   O     O_3   0.515600 0.383630 0.601220 -0.436451
O26   O     O_3   0.169765 0.696534 0.650614 -0.615751
O27   O     O_3   0.613290 0.389640 0.467990 -0.463079
O28   O     O_3   0.096790 0.336450 0.571260 -0.412778
P1    P     P_3+3 0.056000 0.422550 0.367550 1.139441
P2    P     P_3+3 0.670460 0.710570 0.550500 1.010444
P3    P     P_3+3 0.136062 0.780426 0.430155 1.010596
P4    P     P_3+3 0.133720 0.577520 0.632450 1.092440
P5    P     P_3+3 0.055940 0.218771 0.571239 1.077846
P6    P     P_3+3 0.658719 0.615953 0.323125 1.096511
P7    P     P_3+3 0.523184 0.276150 0.446226 0.986862
P8    P     P_3+3 0.542343 0.387758 0.677111 1.012151

loop_
_geom_bond_atom_site_label_1
_geom_bond_atom_site_label_2
_ccdc_geom_bond_type
Ba2   P4    S    
C53   C54   S    
C52   H39   S    
C54   H2    S    
C23   H6    S    
C5    N1    Am   
O19   P2    D    
C25   H21   S    
C1    F5    S    
C51   O17   S    
C24   N1    S    
C19   C24   D    
C1    H5    S    
C18   N2    Am   
C31   F2    S    
C5    C6    A    
C51   C52   S    
Ba2   O27   S    
C53   H41   S    
C28   H36   S    
C22   H24   S    
C22   C24   S    
C32   C33   A    
C35   C38   A    
C36   C37   A    
C19   H25   S    
C41   C50   A    
C45   O3    S    
C53   H42   S    
O1    P1    D    
C13   C14   A    
C46   H30   S    
C44   H31   S    
C28   O26   S    
Ba1   Ba2   S    
Ba1   O1    S    
C4    H27   S    
C7    C11   A    
Ba1   O4    S    
O26   P4    S    
Ba1   O24   S    
Ba1   O27   S    
C17   N2    Am   
C34   H8    S    
C6    C7    A    
C21   C31   D    
C21   C22   D    
C16   H35   S    
C40   H12   S    
C45   H9    S    
C57   F10   S    
O27   P7    S    
C26   C58   A    
C56   O9    S    
O6    P7    D    
C23   H7    S    
Ba2   O25   S    
O15   P6    S    
C18   O14   D    
Ba1   O15   S    
O9    P8    S    
O18   P6    S    
O7    P7    S    
O23   P4    D    
C4    F11   S    
Ba2   O4    S    
O20   P3    S    
C17   O13   D    
C4    C16   S    
C44   C46   A    
C39   H32   S    
C38   P2    S    
O12   P2    S    
C29   Cl3   S    
C50   H33   S    
C40   H23   S    
C54   F6    S    
C14   C15   A    
O25   P8    S    
C42   C44   A    
C47   C49   A    
C56   C57   S    
O4    P1    S    
O21   P3    D    
C54   H3    S    
O3    P5    S    
C3    N1    Am   
C57   H16   S    
C1    F8    S    
C41   C42   A    
Ba1   O5    S    
C13   H19   S    
C35   C36   A    
C45   C55   S    
C29   C30   A    
C27   C58   A    
C8    H22   S    
C32   P5    S    
C53   O12   S    
O16   P6    D    
C10   C18   A    
C52   H38   S    
C57   H17   S    
C45   H10   S    
C10   C11   A    
C37   H29   S    
C1    C12   S    
O8    P8    D    
C9    H20   S    
C46   C47   A    
C34   F7    S    
C21   P4    S    
C26   P6    S    
C6    C13   A    
O17   P1    S    
Ba2   O24   S    
Ba1   P1    S    
C16   F3    S    
C2    C8    A    
C34   Cl1   S    
C33   C43   A    
C40   F1    S    
Ba1   O19   S    
C42   C43   A    
C20   P8    S    
C20   C31   S    
C38   C39   A    
O2    P5    D    
C25   C30   A    
C16   Cl2   S    
C30   N2    S    
C2    C3    A    
C58   H26   S    
C56   H14   S    
C27   P1    S    
C9    C10   A    
C14   H18   S    
Ba2   O6    S    
Ba2   O28   S    
C32   C50   A    
C11   C15   A    
C28   H37   S    
C12   H1    S    
O24   P4    S    
C27   C29   A    
C41   P7    S    
C35   C48   A    
C51   H34   S    
C12   O18   S    
C43   C48   A    
C33   C37   A    
C52   H40   S    
C3    O10   D    
C23   O7    S    
C15   C17   A    
C55   H11   S    
C12   H4    S    
C55   F9    S    
C4    O22   S    
C51   F4    S    
C56   H15   S    
C5    O11   D    
C8    C9    A    
C23   C34   S    
O28   P5    S    
C55   H13   S    
O5    P2    S    
C49   P3    S    
C36   H28   S    
C47   C48   A    
C25   C26   A    
Ba2   O23   S    
C28   C40   S    
Ba1   P2    S    
C2    C7    A    
C19   C20   S    
O22   P3    S    
C39   C49   A    
Ba2   O5    S    
Ba1   O20   S    
