data_mof_unit_49035.cif
_audit_creation_date              2012-12-10T17:18:57-0500
_audit_creation_method            fapswitch 2.2
_symmetry_space_group_name_H-M    P1
_symmetry_Int_Tables_number       1
_space_group_crystal_system       triclinic
_cell_length_a                    10.320195
_cell_length_b                    10.443952
_cell_length_c                    13.631686
_cell_angle_alpha                 93.308674
_cell_angle_beta                  100.275153
_cell_angle_gamma                 94.391251
_cell_volume                      1437.64551087

loop_
_atom_site_label
_atom_site_type_symbol
_atom_type_description
_atom_site_fract_x
_atom_site_fract_y
_atom_site_fract_z
_atom_type_partial_charge
C1    C     C_R   0.048240 0.733598 0.488300 0.935763
C2    C     C_R   0.946943 0.265246 0.500942 0.925613
C3    C     C_R   0.478111 0.599160 0.109198 -0.199020
C4    C     C_R   0.520176 0.389234 0.890837 -0.201953
C5    C     C_R   0.343553 0.620205 0.090794 0.123436
C6    C     C_R   0.656144 0.373000 0.908775 0.120692
C7    C     C_2   0.061776 0.867181 0.463839 -0.412505
C8    C     C_2   0.914451 0.126942 0.483382 -0.385946
C9    C     C_2   0.957426 0.921011 0.413043 -0.015737
C10   C     C_2   0.962388 0.059704 0.412254 -0.022581
C11   C     C_2   0.430983 0.503884 0.515635 -0.069338
C12   C     C_2   0.571220 0.477089 0.502396 -0.079652
C13   C     C_R   0.093035 0.513123 0.685765 0.881457
C14   C     C_R   0.906407 0.485113 0.314287 0.873681
C15   C     C_R   0.142581 0.523702 0.793331 -0.078467
C16   C     C_R   0.854897 0.469589 0.207094 -0.078474
C17   C     C_R   0.133243 0.606944 0.960930 0.018056
C18   C     C_R   0.866331 0.388163 0.039344 0.013507
C19   C     C_R   0.073578 0.579505 0.860783 -0.221871
C20   C     C_R   0.926548 0.419292 0.139080 -0.208414
C21   C     C_R   0.266360 0.484238 0.826702 -0.217083
C22   C     C_R   0.726439 0.497789 0.174708 -0.219416
C23   C     C_R   0.330276 0.506635 0.926013 0.081843
C24   C     C_R   0.665349 0.479384 0.074814 0.076580
C25   C     C_R   0.267011 0.576933 0.995035 0.042534
C26   C     C_R   0.731284 0.414317 0.005266 0.039768
C27   C     C_R   0.460835 0.469500 0.954109 0.030748
C28   C     C_R   0.535179 0.516472 0.046407 0.027643
H1    H     H_    0.670763 0.526513 0.230656 0.170567
H2    H     H_    0.315994 0.444378 0.770804 0.157586
H3    H     H_    0.027671 0.397767 0.164916 0.175821
H4    H     H_    0.974893 0.607319 0.834319 0.162482
H5    H     H_    0.540101 0.652040 0.172378 0.176706
H6    H     H_    0.460438 0.335212 0.827316 0.161441
H7    H     H_    0.859566 0.077872 0.533394 0.161493
H8    H     H_    0.154148 0.924948 0.493346 0.158834
N1    N     N_2   0.322180 0.446120 0.460900 -0.155385
N2    N     N_2   0.677820 0.553880 0.539100 -0.162008
O1    O     O_R   0.935190 0.693030 0.507870 -0.596576
O2    O     O_R   0.064810 0.306970 0.492130 -0.595871
O3    O     O_R   0.142080 0.658430 0.482770 -0.602637
O4    O     O_R   0.857920 0.341570 0.517230 -0.602009
O5    O     O_R   0.969700 0.527180 0.651960 -0.613985
O6    O     O_R   0.030300 0.472820 0.348040 -0.616515
O7    O     O_R   0.176600 0.492580 0.626860 -0.611377
O8    O     O_R   0.823400 0.507420 0.373140 -0.613556
Zn1   Zn    Zn3+2 0.861850 0.523100 0.516760 0.957748
Zn2   Zn    Zn3+2 0.138150 0.476900 0.483240 0.959280
C29   C     C_3   0.285837 0.692342 0.171782 -0.389071
C30   C     C_3   0.376485 0.726674 0.273430 -0.842344
H9    H     H_    0.420065 0.640157 0.304054 0.255292
H10   H     H_    0.456028 0.801781 0.266856 0.267917
H11   H     H_    0.317932 0.766257 0.327188 0.261527
H12   H     H_    0.252580 0.784321 0.143726 0.226242
H13   H     H_    0.200495 0.630587 0.187545 0.224264
C31   C     C_3   0.717162 0.309045 0.826125 -0.387446
C32   C     C_3   0.629919 0.285546 0.722231 -0.861796
H14   H     H_    0.549629 0.208293 0.721840 0.256033
H15   H     H_    0.587609 0.375638 0.698033 0.256223
H16   H     H_    0.690790 0.253548 0.667496 0.265178
H17   H     H_    0.803687 0.373291 0.815511 0.222842
H18   H     H_    0.749304 0.214491 0.849211 0.224782
C33   C     C_1   0.052271 0.670330 0.021560 0.113166
N3    N     N_1   0.985922 0.721038 0.068979 -0.196097
C34   C     C_1   0.947895 0.324632 0.979339 0.125403
N4    N     N_1   0.014714 0.273772 0.932427 -0.197855
C35   C     C_1   0.022042 0.118929 0.335513 0.231667
N5    N     N_1   0.069343 0.165609 0.273895 -0.197908
C36   C     C_1   0.836615 0.847917 0.362167 0.254153
N6    N     N_1   0.740061 0.789990 0.321473 -0.236515
C37   C     C_1   0.588250 0.351681 0.458551 0.268387
N7    N     N_1   0.599838 0.250842 0.422891 -0.204140
C38   C     C_1   0.418833 0.587967 0.600847 0.258968
N8    N     N_1   0.411145 0.656535 0.669020 -0.209947
C39   C     C_1   0.664059 0.684410 0.556558 0.320592
N9    N     N_1   0.653420 0.793121 0.570857 -0.235302
C40   C     C_1   0.326647 0.397183 0.364487 0.295751
N10   N     N_1   0.329900 0.356932 0.284116 -0.222867

loop_
_geom_bond_atom_site_label_1
_geom_bond_atom_site_label_2
_ccdc_geom_bond_type
C22   H1    S    
C38   N8    T    
C18   C26   A    
C14   O8    A    
C40   N10   T    
C18   C34   S    
C15   C19   A    
O1    Zn1   S    
C3    C28   A    
C24   C26   A    
C32   H15   S    
C3    H5    S    
C29   H12   S    
C31   C32   S    
O2    Zn2   S    
C7    H8    S    
C11   N1    D    
C30   H10   S    
C14   C16   S    
C23   C27   A    
C9    C10   S    
C18   C20   A    
C5    C29   S    
C19   H4    S    
N2    C39   S    
C4    H6    S    
C30   H11   S    
C35   N5    T    
C4    C6    A    
C11   C38   S    
C6    C31   S    
C32   H16   S    
C29   H13   S    
N1    C40   S    
C8    H7    S    
C39   N9    T    
C16   C20   A    
C30   H9    S    
N1    Zn2   S    
N2    Zn1   S    
C5    C25   A    
C1    O3    A    
C12   C37   S    
C29   C30   S    
C21   C23   A    
C31   H18   S    
C13   O5    A    
C4    C27   A    
C14   O6    A    
O7    Zn2   S    
C7    C9    D    
O8    Zn1   S    
C16   C22   A    
C1    C7    S    
C2    C8    S    
C24   C28   A    
C9    C36   S    
C3    C5    A    
C11   C12   S    
C21   H2    S    
C17   C25   A    
C13   C15   S    
C37   N7    T    
C10   C35   S    
C17   C33   S    
C13   O7    A    
C32   H14   S    
C6    C26   A    
C2    O4    A    
C17   C19   A    
O3    Zn2   S    
C22   C24   A    
O4    Zn1   S    
C23   C25   A    
C12   N2    D    
C36   N6    T    
C1    O1    A    
C33   N3    T    
C2    O2    A    
C15   C21   A    
C8    C10   D    
C34   N4    T    
C27   C28   A    
C31   H17   S    
O5    Zn1   S    
O6    Zn2   S    
C20   H3    S    
