data_mof_unit_66229.cif
_audit_creation_date              2012-12-10T21:28:56-0500
_audit_creation_method            fapswitch 2.2
_symmetry_space_group_name_H-M    P1
_symmetry_Int_Tables_number       1
_space_group_crystal_system       triclinic
_cell_length_a                    10.927575
_cell_length_b                    16.270728
_cell_length_c                    16.781746
_cell_angle_alpha                 86.697508
_cell_angle_beta                  92.653761
_cell_angle_gamma                 89.490699
_cell_volume                      2975.43820686

loop_
_atom_site_label
_atom_site_type_symbol
_atom_type_description
_atom_site_fract_x
_atom_site_fract_y
_atom_site_fract_z
_atom_type_partial_charge
Br1   Br    Br    0.556954 0.660132 0.915211 -0.181535
Br2   Br    Br    0.628318 0.310171 0.926291 -0.096840
Br3   Br    Br    0.282024 0.556065 0.056712 -0.154033
Br4   Br    Br    0.407976 0.653471 0.739917 -0.219672
Br5   Br    Br    0.690196 0.281242 0.599934 -0.263086
Br6   Br    Br    0.695029 0.686729 0.638914 -0.231146
Br7   Br    Br    0.783378 0.478417 0.691700 -0.402577
Br8   Br    Br    0.258265 0.112025 0.380314 -0.145687
Br9   Br    Br    0.373882 0.725243 0.360415 -0.143311
Br10  Br    Br    0.751062 0.431198 0.303307 -0.277441
C1    C     C_R   0.497914 0.488816 0.653613 1.052313
C2    C     C_R   0.593324 0.485955 0.900909 0.075708
C3    C     C_R   0.582341 0.410463 0.865162 0.234620
C4    C     C_R   0.739725 0.498253 0.502612 0.982109
C5    C     C_R   0.535357 0.408595 0.786289 0.345829
C6    C     C_R   0.622010 0.460272 0.150625 0.358614
C7    C     C_R   0.619092 0.474343 0.231935 0.173741
C8    C     C_R   0.521926 0.486556 0.098988 0.046685
C9    C     C_R   0.516259 0.513776 0.261508 -0.305192
C10   C     C_R   0.415140 0.536273 0.210025 0.297657
C11   C     C_R   0.419224 0.523947 0.128761 0.227210
C12   C     C_R   0.942413 0.451155 0.565612 -0.101027
C13   C     C_R   0.455435 0.767795 0.451559 0.281631
C14   C     C_R   0.459904 0.854521 0.452807 0.229049
C15   C     C_R   0.523962 0.891200 0.515777 0.068358
C16   C     C_R   0.503243 0.510850 0.347378 1.035282
C17   C     C_R   0.589782 0.839080 0.572474 0.253775
C18   C     C_R   0.586561 0.752451 0.567728 0.287507
C19   C     C_R   0.548132 0.147850 0.547357 0.255434
C20   C     C_R   0.560790 0.234082 0.540181 0.291345
C21   C     C_R   0.460928 0.109375 0.497537 0.061912
C22   C     C_R   0.397747 0.247213 0.442665 0.373811
C23   C     C_R   0.872411 0.497715 0.505520 -0.164191
C24   C     C_R   0.384104 0.160580 0.445810 0.140294
C25   C     C_R   0.259997 0.501842 0.500506 0.998113
C26   C     C_R   0.891442 0.414138 0.634653 0.189553
C27   C     C_R   0.957216 0.352494 0.680956 0.352853
C28   C     C_R   0.082753 0.345158 0.671678 0.307956
C29   C     C_R   0.138565 0.407347 0.626221 0.277969
C30   C     C_R   0.070862 0.451172 0.563508 -0.098817
C31   C     C_R   0.929715 0.551770 0.450929 0.349393
C32   C     C_R   0.056219 0.557276 0.454007 0.348221
C33   C     C_R   0.127500 0.504558 0.506968 -0.175121
C34   C     C_R   0.505487 0.483488 0.742199 -0.264586
C35   C     C_R   0.500248 0.557327 0.783023 0.239085
C36   C     C_R   0.551248 0.558967 0.860464 0.217997
Cl1   Cl    Cl    0.843708 0.614868 0.377872 -0.403596
Cl2   Cl    Cl    0.237136 0.465712 0.683753 -0.532244
Cl3   Cl    Cl    0.122155 0.631960 0.390601 -0.340885
Cl4   Cl    Cl    0.745489 0.402926 0.116198 -0.333736
Cl5   Cl    Cl    0.504386 0.311974 0.747657 -0.332319
Cl6   Cl    Cl    0.276478 0.568834 0.247539 -0.351221
Cl7   Cl    Cl    0.634761 0.091694 0.624398 -0.303839
Cl8   Cl    Cl    0.679819 0.883040 0.648657 -0.297940
Cl9   Cl    Cl    0.302735 0.309180 0.375814 -0.417860
Cl10  Cl    Cl    0.397040 0.916011 0.370059 -0.349103
Cl11  Cl    Cl    0.889876 0.298684 0.762008 -0.293170
Cl12  Cl    Cl    0.173773 0.277432 0.735974 -0.308273
N1    N     N_2   0.615062 0.487208 0.983610 -0.021884
N2    N     N_2   0.517072 0.474452 0.016681 -0.069464
N3    N     N_R   0.515300 0.716920 0.509720 -0.202516
N4    N     N_2   0.538884 0.978830 0.517499 -0.002436
N5    N     N_2   0.444744 0.021453 0.498645 -0.010551
N6    N     N_R   0.484690 0.283070 0.490290 -0.200584
O1    O     O_R   0.494530 0.422540 0.612660 -0.556927
O2    O     O_R   0.504350 0.561840 0.618900 -0.580423
O3    O     O_R   0.678320 0.430330 0.496880 -0.588409
O4    O     O_R   0.688140 0.569640 0.503120 -0.568931
O5    O     O_R   0.495650 0.438160 0.381100 -0.575358
O6    O     O_R   0.505470 0.577460 0.387340 -0.565903
O7    O     O_R   0.311860 0.430360 0.496880 -0.585831
O8    O     O_R   0.321680 0.569670 0.503120 -0.570124
Zn1   Zn    Zn3+2 0.493440 0.406980 0.495830 1.110208
Zn2   Zn    Zn3+2 0.506560 0.593020 0.504170 1.123556

loop_
_geom_bond_atom_site_label_1
_geom_bond_atom_site_label_2
_ccdc_geom_bond_type
O6    Zn2   S    
C4    O3    A    
O8    Zn2   S    
O5    Zn1   S    
N4    N5    D    
O3    Zn1   S    
C20   N6    A    
N3    Zn2   S    
C14   Cl10  S    
C8    C11   A    
C12   C26   A    
C31   C32   A    
C29   Cl2   S    
C22   Cl9   S    
C9    C10   A    
C1    O2    A    
C13   N3    A    
C13   C14   A    
C17   C18   A    
C12   C30   A    
C18   N3    A    
C4    C23   S    
C31   Cl1   S    
C17   Cl8   S    
C23   C31   A    
N1    N2    D    
C19   C21   A    
Br8   C24   S    
C35   C36   A    
C14   C15   A    
C2    C3    A    
C19   C20   A    
C19   Cl7   S    
C12   C23   A    
C6    C8    A    
C26   C27   A    
C7    C9    A    
C27   C28   A    
N6    Zn1   S    
C25   O8    A    
C5    Cl5   S    
C15   N4    S    
C3    C5    A    
C5    C34   A    
C16   O6    A    
C27   Cl11  S    
Br1   C36   S    
C21   C24   A    
Br3   C11   S    
C32   C33   A    
C32   Cl3   S    
C25   O7    A    
Br4   C35   S    
O2    Zn2   S    
C21   N5    S    
O7    Zn1   S    
C1    C34   S    
C28   C29   A    
C10   C11   A    
C22   N6    A    
C10   Cl6   S    
Br5   C20   S    
Br7   C26   S    
O1    Zn1   S    
C8    N2    S    
C29   C30   A    
Br2   C3    S    
C9    C16   S    
C4    O4    A    
Br9   C13   S    
C25   C33   S    
C16   O5    A    
Br10  C7    S    
C28   Cl12  S    
C2    N1    S    
C15   C17   A    
C30   C33   A    
Br6   C18   S    
C34   C35   A    
C1    O1    A    
C6    Cl4   S    
C6    C7    A    
O4    Zn2   S    
C2    C36   A    
C22   C24   A    
