data_mof_unit_8628.cif
_audit_creation_date              2012-10-26T20:21:15-0400
_audit_creation_method            fapswitch 2.2
_symmetry_space_group_name_H-M    P1
_symmetry_Int_Tables_number       1
_space_group_crystal_system       triclinic
_cell_length_a                    9.526891
_cell_length_b                    10.83224
_cell_length_c                    15.540804
_cell_angle_alpha                 89.522153
_cell_angle_beta                  74.165396
_cell_angle_gamma                 89.822318
_cell_volume                      1542.86119506

loop_
_atom_site_label
_atom_site_type_symbol
_atom_type_description
_atom_site_fract_x
_atom_site_fract_y
_atom_site_fract_z
_atom_type_partial_charge
C1    C     C_R   0.000033 0.262096 0.500137 0.556945
C2    C     C_R   0.129058 0.063523 0.496499 -0.133389
C3    C     C_R   0.999856 0.871762 0.500008 0.021999
C4    C     C_R   0.000051 0.128231 0.500213 0.024533
C5    C     C_R   0.550526 0.422419 0.555130 -0.017477
C6    C     C_R   0.449575 0.577188 0.444541 -0.008882
C7    C     C_R   0.401201 0.422675 0.555812 0.204182
C8    C     C_R   0.598808 0.577272 0.444122 0.207295
C9    C     C_R   0.917709 0.501171 0.672037 0.574341
C10   C     C_R   0.082708 0.498571 0.327617 0.565354
C11   C     C_R   0.870627 0.520726 0.768990 0.047262
C12   C     C_R   0.999932 0.737901 0.499944 0.544865
C13   C     C_R   0.129888 0.502244 0.228820 0.037277
C14   C     C_R   0.907071 0.622788 0.899011 -0.157687
C15   C     C_R   0.068778 0.509873 0.087307 -0.150237
C16   C     C_R   0.959840 0.586979 0.810329 -0.170417
C17   C     C_R   0.025434 0.507236 0.180370 -0.162990
C18   C     C_R   0.727817 0.488258 0.817415 0.090813
C19   C     C_R   0.280129 0.502948 0.182496 0.083401
C20   C     C_R   0.666703 0.540297 0.902969 0.044247
C21   C     C_R   0.323149 0.527315 0.089267 0.041999
C22   C     C_R   0.761709 0.599641 0.945782 0.032177
C23   C     C_R   0.566978 0.611482 0.082444 -0.144364
C24   C     C_R   0.216821 0.518774 0.041330 0.034357
C25   C     C_R   0.515405 0.534468 0.948094 0.028715
C26   C     C_R   0.469615 0.553892 0.041490 0.027575
C27   C     C_R   0.407380 0.523459 0.902037 -0.143908
C28   C     C_R   0.709927 0.636701 0.034587 -0.140685
C29   C     C_R   0.260103 0.518770 0.947995 -0.139011
C30   C     C_R   0.870913 0.064186 0.503889 -0.136655
C31   C     C_R   0.128970 0.935806 0.496395 -0.140690
C32   C     C_R   0.870829 0.936468 0.503774 -0.135110
Cu1   Cu    Cu3+1 0.140660 0.500020 0.500000 0.980825
Cu2   Cu    Cu3+1 0.859340 0.499980 0.500000 0.975416
H1    H     H_    0.780627 0.684171 0.067557 0.108686
H2    H     H_    0.229948 0.887516 0.493323 0.125117
H3    H     H_    0.769849 0.888712 0.506825 0.130881
H4    H     H_    0.230040 0.111278 0.493446 0.132834
H5    H     H_    0.588095 0.359550 0.598511 0.111384
H6    H     H_    0.412245 0.639171 0.400441 0.100073
H7    H     H_    0.466455 0.404990 0.182136 0.234059
H8    H     H_    0.427226 0.525196 0.255986 0.223769
H9    H     H_    0.594925 0.335089 0.839020 0.234905
H10   H     H_    0.596940 0.418454 0.744661 0.227362
H11   H     H_    0.303714 0.361947 0.680636 0.198141
H12   H     H_    0.180252 0.512638 0.910264 0.114491
H13   H     H_    0.338720 0.251326 0.601605 0.196417
H14   H     H_    0.696026 0.638434 0.319373 0.190578
H15   H     H_    0.661207 0.748707 0.398579 0.194299
H16   H     H_    0.909928 0.504671 0.214290 0.134880
H17   H     H_    0.069858 0.612610 0.773662 0.128797
H18   H     H_    0.978681 0.672162 0.930261 0.114762
H19   H     H_    0.986320 0.506060 0.051317 0.121451
H20   H     H_    0.530752 0.646888 0.149476 0.106173
H21   H     H_    0.433816 0.528718 0.830214 0.111717
H22   H     H_    0.769932 0.112477 0.506971 0.127521
N1    N     N_R   0.352080 0.500030 0.499980 -0.204387
N2    N     N_R   0.647920 0.499970 0.500020 -0.207810
N3    N     N_3   0.383344 0.454064 0.226681 -0.610764
N4    N     N_3   0.659708 0.386275 0.785579 -0.635654
N5    N     N_3   0.301273 0.341801 0.615367 -0.557120
N6    N     N_3   0.698676 0.658279 0.384643 -0.561747
O1    O     O_R   0.118740 0.319660 0.500000 -0.471716
O2    O     O_R   0.881260 0.680340 0.500000 -0.478154
O3    O     O_R   0.881170 0.319630 0.500010 -0.515706
O4    O     O_R   0.118830 0.680370 0.499990 -0.524084
O5    O     O_R   0.055570 0.500030 0.629830 -0.482079
O6    O     O_R   0.944430 0.499970 0.370170 -0.482264
O7    O     O_R   0.818000 0.500000 0.629840 -0.498055
O8    O     O_R   0.182000 0.500000 0.370160 -0.480836

loop_
_geom_bond_atom_site_label_1
_geom_bond_atom_site_label_2
_ccdc_geom_bond_type
H8    N3    S    
C17   H16   S    
C1    O3    A    
C21   C26   A    
C9    O5    A    
C11   C18   A    
H13   N5    S    
H15   N6    S    
C10   O6    A    
C27   C29   A    
C5    C7    A    
C11   C16   A    
C2    H4    S    
C27   H21   S    
H14   N6    S    
C6    N1    A    
C16   H17   S    
C13   C17   A    
C29   H12   S    
Cu1   O1    S    
C1    C4    S    
C19   N3    S    
C14   C22   A    
Cu2   O2    S    
Cu1   Cu2   S    
C4    C30   A    
Cu1   N1    S    
C22   C28   A    
C23   C28   A    
C18   N4    S    
C3    C31   A    
C9    C11   S    
Cu2   O7    S    
Cu1   O5    S    
C30   H22   S    
H9    N4    S    
H10   N4    S    
C2    C4    A    
C15   H19   S    
Cu2   O3    S    
H11   N5    S    
C15   C24   A    
C19   C21   A    
C20   C22   A    
Cu1   O4    S    
C18   C20   A    
C8    N6    S    
C5    H5    S    
Cu1   O8    S    
C3    C32   A    
C12   O2    A    
C14   C16   A    
C21   C24   A    
C25   C27   A    
C20   C25   A    
C13   C19   A    
C30   C32   A    
C10   O8    A    
C32   H3    S    
C6    H6    S    
H7    N3    S    
C23   H20   S    
C15   C17   A    
C5    N2    A    
C23   C26   A    
Cu2   O6    S    
Cu2   N2    S    
C31   H2    S    
C7    N5    S    
C6    C8    A    
C3    C12   S    
C8    N2    A    
C25   C26   A    
C24   C29   A    
C12   O4    A    
C1    O1    A    
C7    N1    A    
C14   H18   S    
C28   H1    S    
C9    O7    A    
C2    C31   A    
C10   C13   S    
