data_mof_unit_31386.cif
_audit_creation_date              2012-12-10T16:57:50-0500
_audit_creation_method            fapswitch 2.2
_symmetry_space_group_name_H-M    P1
_symmetry_Int_Tables_number       1
_space_group_crystal_system       triclinic
_cell_length_a                    7.815087
_cell_length_b                    8.5686
_cell_length_c                    19.254003
_cell_angle_alpha                 91.698969
_cell_angle_beta                  86.215612
_cell_angle_gamma                 93.822821
_cell_volume                      1283.24513556

loop_
_atom_site_label
_atom_site_type_symbol
_atom_type_description
_atom_site_fract_x
_atom_site_fract_y
_atom_site_fract_z
_atom_type_partial_charge
C1    C     C_R   0.545624 0.794481 0.498217 0.967965
C2    C     C_R   0.640305 0.564588 0.179696 0.005130
C3    C     C_R   0.502165 0.499019 0.854915 -0.015641
C4    C     C_R   0.497619 0.501249 0.145098 -0.015658
C5    C     C_R   0.649474 0.563014 0.817113 -0.042139
C6    C     C_R   0.350399 0.437107 0.182909 -0.042133
C7    C     C_R   0.652719 0.565311 0.744302 -0.054130
C8    C     C_R   0.347276 0.434648 0.255714 -0.054106
C9    C     C_R   0.508404 0.502346 0.709845 -0.099265
C10   C     C_R   0.491571 0.497680 0.290160 -0.099227
C11   C     C_R   0.501886 0.500568 0.069631 0.294388
C12   C     C_R   0.454376 0.205518 0.501783 0.967960
C13   C     C_R   0.497841 0.499726 0.930384 0.294390
C14   C     C_1   0.205703 0.370788 0.857666 0.203194
C15   C     C_1   0.794031 0.629594 0.142329 0.203209
C16   C     C_1   0.798832 0.623929 0.852970 0.207941
C17   C     C_1   0.201006 0.376204 0.147070 0.207929
C18   C     C_1   0.802295 0.637839 0.706644 0.192762
C19   C     C_1   0.197886 0.361813 0.293376 0.192734
C20   C     C_1   0.987098 0.302200 0.474869 0.444335
C21   C     C_1   0.012885 0.697794 0.525148 0.444346
C22   C     C_2   0.569372 0.958167 0.497140 -0.364634
C23   C     C_2   0.430627 0.041833 0.502858 -0.364618
C24   C     C_R   0.503136 0.502258 0.634183 0.871993
C25   C     C_R   0.496862 0.497737 0.365818 0.872002
C26   C     C_R   0.363511 0.438391 0.748256 -0.227396
C27   C     C_R   0.636371 0.561791 0.251745 -0.227461
C28   C     C_R   0.359493 0.435694 0.820307 0.005107
H1    H     H_    0.252917 0.389475 0.721870 0.168707
H2    H     H_    0.746956 0.610742 0.278127 0.168670
H3    H     H_    0.700328 0.009274 0.491633 0.198731
H4    H     H_    0.299671 0.990725 0.508366 0.198728
N1    N     N_R   0.525882 0.636059 0.966530 -0.142732
N2    N     N_1   0.082131 0.327593 0.118577 -0.159347
N3    N     N_1   0.923328 0.696585 0.678016 -0.198549
N4    N     N_1   0.077011 0.302807 0.322009 -0.198531
N5    N     N_1   0.013744 0.171020 0.469157 -0.244205
N6    N     N_1   0.986226 0.828968 0.530877 -0.244245
N7    N     N_R   0.473847 0.364237 0.033484 -0.142735
N8    N     N_R   0.527545 0.636562 0.035356 -0.143771
N9    N     N_R   0.472182 0.363734 0.964658 -0.143768
N10   N     N_2   0.950330 0.457950 0.481240 -0.164667
N11   N     N_2   0.049670 0.542050 0.518760 -0.164640
N12   N     N_1   0.082653 0.318763 0.887549 -0.160803
N13   N     N_1   0.917033 0.681696 0.112439 -0.160773
N14   N     N_1   0.917677 0.672554 0.881478 -0.159340
O1    O     O_R   0.389250 0.738570 0.504600 -0.629026
O2    O     O_R   0.610750 0.261430 0.495400 -0.629035
O3    O     O_R   0.678400 0.711620 0.492580 -0.630768
O4    O     O_R   0.321600 0.288380 0.507420 -0.630764
O5    O     O_R   0.355380 0.513500 0.607880 -0.617065
O6    O     O_R   0.644620 0.486500 0.392120 -0.617085
O7    O     O_R   0.644530 0.486550 0.595850 -0.624076
O8    O     O_R   0.355470 0.513450 0.404150 -0.624073
Zn1   Zn    Zn3+2 0.306930 0.517990 0.508030 0.963103
Zn2   Zn    Zn3+2 0.693070 0.482010 0.491970 0.963085

loop_
_geom_bond_atom_site_label_1
_geom_bond_atom_site_label_2
_ccdc_geom_bond_type
C10   C27   A    
C2    C4    A    
C9    C24   S    
C13   N1    A    
C2    C27   A    
C2    C15   S    
C6    C17   S    
O3    Zn2   S    
C5    C7    A    
C18   N3    T    
C20   N10   S    
O4    Zn1   S    
C3    C13   S    
C12   O2    A    
C7    C18   S    
N10   Zn2   S    
C23   H4    S    
C3    C5    A    
C24   O5    A    
C13   N9    A    
C25   O6    A    
C1    C22   S    
N7    N9    A    
C21   N11   S    
C4    C11   S    
C11   N7    A    
C20   N5    T    
C12   C23   S    
C1    O3    A    
C10   C25   S    
N11   Zn1   S    
C3    C28   A    
C9    C26   A    
O5    Zn1   S    
C19   N4    T    
C11   N8    A    
C8    C19   S    
C17   N2    T    
C15   N13   T    
N1    N8    A    
C7    C9    A    
C25   O8    A    
C26   H1    S    
C14   N12   T    
C4    C6    A    
C22   H3    S    
O7    Zn2   S    
C16   N14   T    
O2    Zn2   S    
O1    Zn1   S    
O8    Zn1   S    
C1    O1    A    
C5    C16   S    
C6    C8    A    
C14   C28   S    
C24   O7    A    
C22   C23   D    
C26   C28   A    
C8    C10   A    
C21   N6    T    
O6    Zn2   S    
N10   N11   D    
C12   O4    A    
C27   H2    S    
