data_mof_unit_23441.cif
_audit_creation_date              2012-12-10T17:53:18-0500
_audit_creation_method            fapswitch 2.2
_symmetry_space_group_name_H-M    P1
_symmetry_Int_Tables_number       1
_space_group_crystal_system       triclinic
_cell_length_a                    23.279704
_cell_length_b                    10.704876
_cell_length_c                    9.968799
_cell_angle_alpha                 88.3347
_cell_angle_beta                  90.841161
_cell_angle_gamma                 94.087802
_cell_volume                      2476.72322315

loop_
_atom_site_label
_atom_site_type_symbol
_atom_type_description
_atom_site_fract_x
_atom_site_fract_y
_atom_site_fract_z
_atom_type_partial_charge
C1    C     C_R   0.501644 0.259785 0.503590 0.889988
C2    C     C_R   0.120948 0.554825 0.379821 0.506144
C3    C     C_R   0.247411 0.637748 0.440176 -0.136794
C4    C     C_R   0.389835 0.502593 0.499213 0.874039
C5    C     C_R   0.306312 0.624478 0.436465 -0.066979
C6    C     C_R   0.328622 0.517668 0.497567 -0.097738
C7    C     C_R   0.292131 0.425075 0.560034 -0.271054
C8    C     C_R   0.233025 0.437055 0.560696 0.048937
C9    C     C_R   0.210690 0.544702 0.501528 0.243811
C10   C     C_R   0.763649 0.439612 0.447127 -0.089745
C11   C     C_R   0.703910 0.423418 0.447924 -0.227672
C12   C     C_R   0.973958 0.590972 0.740068 -0.157204
C13   C     C_R   0.672312 0.515521 0.501990 -0.010409
C14   C     C_R   0.699972 0.624920 0.552288 -0.242582
C15   C     C_R   0.759606 0.642121 0.549445 -0.086820
C16   C     C_R   0.496186 0.738391 0.497847 0.859087
C17   C     C_R   0.791620 0.549223 0.497461 0.301380
C18   C     C_R   0.465110 0.097499 0.749916 -0.218948
C19   C     C_R   0.431592 0.025614 0.842579 -0.202444
C20   C     C_R   0.409644 0.905762 0.810698 0.056440
C21   C     C_R   0.425416 0.854861 0.690723 -0.189099
C22   C     C_R   0.462759 0.924640 0.600855 0.081381
C23   C     C_R   0.033801 0.591654 0.740444 -0.155287
C24   C     C_R   0.476430 0.052004 0.621288 0.108383
C25   C     C_R   0.501475 0.125282 0.511993 -0.104537
C26   C     C_R   0.520737 0.068378 0.398313 -0.216425
C27   C     C_R   0.516365 0.940782 0.391255 -0.199328
C28   C     C_R   0.610305 0.501394 0.500756 0.857645
C29   C     C_R   0.488953 0.869298 0.493496 -0.088254
C30   C     C_R   0.403977 0.364722 0.127861 -0.016917
C31   C     C_R   0.355443 0.329784 0.045239 0.150620
C32   C     C_R   0.362942 0.322470 0.908788 -0.232869
C33   C     C_R   0.414852 0.362142 0.853592 -0.188490
C34   C     C_R   0.063257 0.581598 0.619780 -0.015813
C35   C     C_R   0.457071 0.431734 0.926149 0.105268
C36   C     C_R   0.454937 0.432154 0.070492 0.072569
C37   C     C_R   0.541089 0.565349 0.072627 -0.118526
C38   C     C_R   0.541297 0.567234 0.930204 0.212090
C39   C     C_R   0.880942 0.565251 0.376929 0.501712
C40   C     C_R   0.882466 0.574679 0.616483 0.503139
C41   C     C_R   0.942642 0.581714 0.618845 -0.010906
C42   C     C_R   0.971955 0.575846 0.496856 -0.021639
C43   C     C_R   0.941009 0.568678 0.374522 -0.012214
C44   C     C_1   0.373882 0.831974 0.904335 0.169859
C45   C     C_R   0.032282 0.574491 0.497442 -0.023198
C46   C     C_1   0.400923 0.295187 0.253343 0.272710
C47   C     C_3   0.296698 0.284661 0.100846 -0.455504
C48   C     C_3   0.268787 0.390520 0.168415 -0.706746
C49   C     C_3   0.588564 0.650090 0.864631 -0.405182
C50   C     C_3   0.647057 0.595095 0.884114 -0.811220
C51   C     C_1   0.342793 0.721704 0.370538 0.179445
C52   C     C_1   0.195821 0.337267 0.619523 0.195318
C53   C     C_R   0.061387 0.563666 0.375908 -0.008692
C54   C     C_R   0.030277 0.559166 0.254213 -0.158663
C55   C     C_R   0.970600 0.562341 0.253465 -0.158963
C56   C     C_R   0.123016 0.575918 0.618160 0.521064
H1    H     H_    0.952351 0.596372 0.835015 0.190413
H2    H     H_    0.574093 0.619611 0.127760 0.152594
H3    H     H_    0.056739 0.597561 0.835642 0.190999
H4    H     H_    0.329357 0.280007 0.845014 0.156876
H5    H     H_    0.420704 0.337104 0.752521 0.216985
H6    H     H_    0.051819 0.551855 0.159461 0.191089
H7    H     H_    0.947714 0.557315 0.158153 0.192371
H8    H     H_    0.229633 0.719951 0.394522 0.159552
H9    H     H_    0.309742 0.342529 0.605390 0.145235
H10   H     H_    0.788295 0.367281 0.407486 0.148990
H11   H     H_    0.296521 0.426778 0.251625 0.251926
H12   H     H_    0.682399 0.339156 0.407912 0.139991
H13   H     H_    0.261989 0.468103 0.094733 0.284135
H14   H     H_    0.226518 0.355097 0.209878 0.269261
H15   H     H_    0.266912 0.249927 0.019727 0.223244
H16   H     H_    0.300337 0.204496 0.172930 0.213439
H17   H     H_    0.646787 0.502045 0.837652 0.281243
H18   H     H_    0.681062 0.658894 0.836798 0.256076
H19   H     H_    0.658025 0.584565 0.992430 0.254543
H20   H     H_    0.580381 0.667569 0.757477 0.263492
H21   H     H_    0.590471 0.743865 0.910304 0.181073
H22   H     H_    0.675298 0.697674 0.591090 0.138814
H23   H     H_    0.780976 0.727411 0.587217 0.150860
H24   H     H_    0.540817 0.122667 0.315921 0.166343
H25   H     H_    0.484861 0.183585 0.786596 0.182363
H26   H     H_    0.423106 0.063579 0.939383 0.153010
H27   H     H_    0.408740 0.760566 0.668415 0.161302
H28   H     H_    0.535772 0.897949 0.307442 0.165418
N1    N     N_R   0.853032 0.565212 0.496843 -0.358327
N2    N     N_R   0.150178 0.559216 0.499887 -0.353298
N3    N     N_R   0.499460 0.498800 0.142780 -0.128178
N4    N     N_R   0.499440 0.498720 0.857170 -0.134985
N5    N     N_1   0.345198 0.772451 0.979484 -0.166814
N6    N     N_1   0.393461 0.234657 0.350580 -0.232774
N7    N     N_1   0.371795 0.799691 0.317288 -0.182049
N8    N     N_1   0.165975 0.257261 0.666740 -0.185253
O1    O     O_R   0.500000 0.316780 0.614690 -0.658144
O2    O     O_R   0.583850 0.500050 0.614640 -0.620918
O3    O     O_R   0.583840 0.500030 0.385310 -0.614820
O4    O     O_2   0.850508 0.561139 0.260628 -0.549605
O5    O     O_2   0.853514 0.574332 0.732846 -0.552506
O6    O     O_2   0.153828 0.585942 0.733596 -0.546065
O7    O     O_2   0.149430 0.540083 0.265026 -0.570470
O8    O     O_R   0.500000 0.316750 0.385360 -0.613310
O9    O     O_R   0.416160 0.499970 0.614690 -0.632503
O10   O     O_R   0.416150 0.499950 0.385360 -0.612126
O11   O     O_R   0.500000 0.683250 0.614640 -0.645260
O12   O     O_R   0.500000 0.683220 0.385310 -0.609265
Zn1   Zn    Zn3+2 0.500000 0.500020 0.653130 0.922031
Zn2   Zn    Zn3+2 0.500000 0.499980 0.346870 0.958835

loop_
_geom_bond_atom_site_label_1
_geom_bond_atom_site_label_2
_ccdc_geom_bond_type
O2    Zn1   S    
C34   C56   A    
C22   C29   A    
C27   C29   A    
C41   C42   A    
C35   C36   A    
C56   O6    S    
C48   H13   S    
O12   Zn2   S    
C7    C8    A    
C38   C49   S    
C3    H8    S    
C23   H3    S    
C12   C23   A    
C26   C27   A    
C37   C38   A    
C28   O3    A    
C17   N1    S    
C27   H28   S    
C50   H18   S    
C30   C31   A    
C10   C17   A    
C18   H25   S    
C28   O2    A    
C18   C19   A    
O1    Zn1   S    
C16   O12   A    
C15   H23   S    
C21   H27   S    
C8    C9    A    
C55   H7    S    
C13   C28   S    
C2    N2    A    
C18   C24   A    
C19   H26   S    
C8    C52   S    
C37   H2    S    
C51   N7    T    
C45   C53   A    
C31   C47   S    
C21   C22   A    
C1    C25   S    
C1    O8    A    
C20   C44   S    
C30   C46   S    
C10   H10   S    
C36   N3    A    
O9    Zn1   S    
C39   O4    S    
C24   C25   A    
C4    C6    S    
C50   H17   S    
C40   O5    S    
C39   C43   A    
C54   H6    S    
C16   C29   S    
C53   C54   A    
C26   H24   S    
C38   N4    A    
C42   C45   A    
C40   N1    A    
C12   C41   A    
C3    C9    A    
O3    Zn2   S    
C9    N2    S    
C7    H9    S    
C35   N4    A    
C16   O11   A    
C56   N2    A    
C47   C48   S    
C23   C34   A    
C4    O9    A    
C49   H20   S    
O11   Zn1   S    
C34   C45   A    
C47   H15   S    
C12   H1    S    
C43   C55   A    
C40   C41   A    
C2    O7    S    
C22   C24   A    
C52   N8    T    
C42   C43   A    
C32   H4    S    
C11   H12   S    
C15   C17   A    
C54   C55   A    
C37   N3    A    
C31   C32   A    
C48   H14   S    
C3    C5    A    
C2    C53   A    
C6    C7    A    
C46   N6    T    
O8    Zn2   S    
C30   C36   A    
C32   C33   A    
C19   C20   A    
C25   C26   A    
C50   H19   S    
N4    Zn1   S    
C11   C13   A    
C5    C6    A    
N3    Zn2   S    
C33   H5    S    
C33   C35   A    
C49   H21   S    
O10   Zn2   S    
C14   H22   S    
C48   H11   S    
C47   H16   S    
C10   C11   A    
C4    O10   A    
C20   C21   A    
C1    O1    A    
C49   C50   S    
C39   N1    A    
C14   C15   A    
C5    C51   S    
C13   C14   A    
C44   N5    T    
