data_mof_unit_25995.cif
_audit_creation_date              2013-03-05T15:50:09-0500
_audit_creation_method            fapswitch 2.2
_symmetry_space_group_name_H-M    P1
_symmetry_Int_Tables_number       1
_space_group_crystal_system       triclinic
_cell_length_a                    12.106344
_cell_length_b                    12.838873
_cell_length_c                    15.616148
_cell_angle_alpha                 86.115903
_cell_angle_beta                  116.07045
_cell_angle_gamma                 93.255326
_cell_volume                      2174.2879843

loop_
_atom_site_label
_atom_site_type_symbol
_atom_site_description
_atom_site_fract_x
_atom_site_fract_y
_atom_site_fract_z
_atom_type_partial_charge
O1    O     O_R   0.580150 0.341050 0.504560 -0.599591
O2    O     O_R   0.419850 0.658950 0.495440 -0.595976
O3    O     O_R   0.388090 0.353760 0.493600 -0.610354
O4    O     O_R   0.611910 0.646240 0.506400 -0.615758
C1    C     C_R   0.476923 0.300169 0.497685 0.902351
C2    C     C_R   0.523683 0.699854 0.503309 0.912254
O5    O     O_R   0.650890 0.490020 0.640860 -0.561449
O6    O     O_R   0.349110 0.509980 0.359140 -0.554365
O7    O     O_R   0.458830 0.502730 0.629890 -0.638307
O8    O     O_R   0.541170 0.497270 0.370110 -0.634358
C3    C     C_R   0.577043 0.494582 0.680495 0.904758
C4    C     C_R   0.422819 0.504436 0.319395 0.897856
Zn1   Zn    Zn3+2 0.628240 0.491510 0.507320 1.001653
Zn2   Zn    Zn3+2 0.371760 0.508490 0.492680 1.012052
C5    C     C_R   0.625187 0.484705 0.785172 -0.175903
C6    C     C_R   0.374811 0.510339 0.214465 -0.186503
C7    C     C_R   0.784421 0.450845 0.947172 0.397131
C8    C     C_R   0.219613 0.548627 0.051940 0.349705
C9    C     C_R   0.751205 0.477775 0.849234 -0.165232
C10   C     C_R   0.249920 0.524649 0.149743 -0.150622
C11   C     C_R   0.538483 0.481302 0.820836 -0.253325
C12   C     C_R   0.461469 0.503440 0.179329 -0.252970
C13   C     C_R   0.572652 0.478794 0.918020 0.029378
C14   C     C_R   0.429421 0.508287 0.082310 0.051475
C15   C     C_R   0.693163 0.448468 0.981510 0.043627
C16   C     C_R   0.310998 0.543917 0.018496 0.022735
C17   C     C_R   0.487049 0.503276 0.951973 0.097923
C18   C     C_R   0.515768 0.483196 0.048728 0.091471
C19   C     C_R   0.627706 0.434246 0.108248 -0.294722
C20   C     C_R   0.376924 0.553871 0.892324 -0.269546
C21   C     C_R   0.717086 0.418442 0.076863 -0.052997
C22   C     C_R   0.288840 0.573424 0.923423 -0.116164
H1    H     H_    0.556792 0.496991 0.229279 0.185496
H2    H     H_    0.442058 0.480240 0.771681 0.186228
H3    H     H_    0.646045 0.403244 0.179071 0.181858
H4    H     H_    0.359940 0.584191 0.821480 0.174216
C23   C     C_R   0.540947 0.810803 0.506368 -0.195585
C24   C     C_R   0.464361 0.189075 0.500466 -0.281307
C25   C     C_R   0.439532 0.036294 0.588342 0.532481
C26   C     C_R   0.591793 0.967742 0.436106 0.560874
C27   C     C_R   0.424733 0.141631 0.565084 -0.278925
C28   C     C_R   0.595094 0.860132 0.451697 -0.400434
C29   C     C_R   0.512681 0.131999 0.452199 0.488957
C30   C     C_R   0.494641 0.867164 0.556613 0.444655
C31   C     C_R   0.532199 0.025642 0.476572 -0.061702
C32   C     C_R   0.489817 0.975845 0.542061 -0.153463
H5    H     H_    0.633730 0.814009 0.416356 0.170336
H6    H     H_    0.390783 0.188168 0.603436 0.193607
N1    N     N_R   0.799120 0.480200 0.517090 -0.137077
N2    N     N_R   0.200880 0.519800 0.482910 -0.130053
C33   C     C_R   0.016689 0.620696 0.437389 -0.309351
C34   C     C_R   0.983155 0.379135 0.562642 -0.285672
C35   C     C_R   0.133226 0.608095 0.439794 0.112369
C36   C     C_R   0.866944 0.392209 0.560718 0.123727
C37   C     C_R   0.151717 0.444142 0.523450 -0.009490
C38   C     C_R   0.848044 0.555566 0.476175 -0.028135
C39   C     C_R   0.033972 0.455169 0.521569 0.092643
C40   C     C_R   0.965759 0.544466 0.478107 0.098658
H7    H     H_    0.795194 0.624026 0.441151 0.130778
H8    H     H_    0.204513 0.375622 0.558347 0.133134
H9    H     H_    0.965625 0.690457 0.403241 0.167879
H10   H     H_    0.034235 0.309460 0.597056 0.172643
C41   C     C_2   0.827245 0.360388 0.143465 1.033391
O9    O     O_2   0.879544 0.381665 0.227517 -0.625695
O10   O     O_R   0.867255 0.277769 0.111323 -0.749098
H11   H     H_    0.942222 0.243663 0.163644 0.370722
C42   C     C_2   0.181128 0.633571 0.855429 1.070579
O11   O     O_2   0.124762 0.606528 0.773424 -0.588475
O12   O     O_R   0.147102 0.724213 0.881530 -0.729710
H12   H     H_    0.205669 0.744814 0.948325 0.309225
C43   C     C_2   0.822072 0.306055 0.605738 0.986317
O13   O     O_2   0.822210 0.216290 0.584037 -0.597302
O14   O     O_R   0.785095 0.325476 0.675841 -0.762767
H13   H     H_    0.757202 0.259624 0.701382 0.332921
C44   C     C_2   0.178753 0.695564 0.396428 0.977579
O15   O     O_2   0.175035 0.784992 0.417368 -0.589888
O16   O     O_R   0.220860 0.677795 0.328948 -0.768566
H14   H     H_    0.248384 0.744476 0.304270 0.337731
C45   C     C_2   0.151023 0.504324 0.181175 1.070656
O17   O     O_2   0.143937 0.419601 0.219537 -0.586340
O18   O     O_R   0.066229 0.580811 0.167217 -0.778495
H15   H     H_    0.004439 0.557226 0.192615 0.365122
C46   C     C_2   0.845919 0.512014 0.816515 1.062931
O19   O     O_2   0.927417 0.453924 0.825819 -0.566487
O20   O     O_R   0.838578 0.611319 0.772000 -0.772183
H16   H     H_    0.902894 0.625053 0.747381 0.387174
O21   O     O_3   0.905720 0.439450 0.011597 -0.743611
H17   H     H_    0.947914 0.403873 0.980665 0.389837
O22   O     O_3   0.099902 0.565789 0.986567 -0.743703
H18   H     H_    0.060898 0.607958 0.015692 0.387558
O23   O     O_3   0.446959 0.816793 0.614732 -0.700530
H19   H     H_    0.494036 0.753013 0.644976 0.327930
O24   O     O_3   0.540495 0.178717 0.381136 -0.657163
H20   H     H_    0.489700 0.240959 0.352570 0.322684
O25   O     O_3   0.409767 0.996791 0.659912 -0.676178
H21   H     H_    0.484238 0.962649 0.708907 0.359956
O26   O     O_3   0.644653 0.016703 0.380862 -0.653756
H22   H     H_    0.682769 0.964155 0.359310 0.332064

loop_
_geom_bond_atom_site_label_1
_geom_bond_atom_site_label_2
_geom_bond_distance
_ccdc_geom_bond_type
C15   C21   1.416187 A    
O16   H14   1.014028 S    
O21   H17   0.988011 S    
C41   O10   1.398538 S    
C16   C22   1.415985 A    
O24   H20   0.991034 S    
O14   H13   1.013996 S    
O25   H21   0.991724 S    
C33   H9    1.084968 S    
O7    Zn2   1.926108 S    
O18   H15   1.013587 S    
C25   C27   1.377247 A    
C35   C44   1.475899 S    
O20   H16   1.011679 S    
C5    C9    1.413543 A    
O1    C1    1.289956 A    
C18   C19   1.416263 A    
C14   C16   1.419403 A    
N1    C36   1.387082 A    
O4    Zn1   2.005979 S    
C23   C28   1.389672 A    
C29   O24   1.385629 S    
C3    C5    1.473347 S    
C36   C43   1.474773 S    
C4    C6    1.476357 S    
C30   C32   1.398805 A    
C8    C16   1.421328 A    
O6    Zn2   1.979128 S    
C13   C17   1.412969 A    
O6    C4    1.298692 A    
O7    C3    1.302043 A    
C26   C28   1.386295 A    
C1    C24   1.425554 S    
C17   C20   1.411352 A    
O2    C2    1.291909 A    
C9    C46   1.482010 S    
C34   C36   1.413297 A    
O26   H22   0.991955 S    
C11   C13   1.385086 A    
C26   C31   1.413397 A    
N2    C35   1.388013 A    
C42   O11   1.221219 D    
C21   C41   1.484768 S    
C24   C27   1.388706 A    
O4    C2    1.284796 A    
O23   H19   0.991181 S    
C43   O14   1.393362 S    
C11   H2    1.078951 S    
C31   C32   1.432937 A    
C41   O9    1.223449 D    
C33   C35   1.413005 A    
O5    C3    1.297314 A    
C44   O15   1.223473 D    
C44   O16   1.392930 S    
C46   O19   1.222168 D    
C5    C11   1.385373 A    
C6    C10   1.415824 A    
C2    C23   1.428873 S    
C33   C40   1.390716 A    
C29   C31   1.397319 A    
C25   O25   1.375745 S    
O3    Zn2   2.005978 S    
O8    C4    1.302424 A    
C25   C32   1.418309 A    
Zn1   N1    2.019333 S    
C46   O20   1.398274 S    
C22   C42   1.486760 S    
C12   C14   1.386764 A    
O1    Zn1   1.983409 S    
C26   O26   1.383848 S    
C45   O18   1.398026 S    
C12   H1    1.076086 S    
C6    C12   1.390193 A    
C10   C45   1.485323 S    
C7    O21   1.376938 S    
C8    O22   1.377121 S    
C14   C18   1.419347 A    
O3    C1    1.285236 A    
O8    Zn1   1.926110 S    
N1    C38   1.370801 A    
C19   H3    1.079586 S    
N2    C37   1.371420 A    
C38   H7    1.082697 S    
C20   H4    1.080980 S    
C7    C15   1.422578 A    
C23   C30   1.401127 A    
C37   C39   1.427722 A    
C24   C29   1.399416 A    
C19   C21   1.398859 A    
C34   H10   1.084910 S    
C20   C22   1.392171 A    
C39   C40   1.402316 A    
Zn2   N2    2.019335 S    
C7    C9    1.422655 A    
C27   H6    1.085041 S    
C38   C40   1.427167 A    
C8    C10   1.420784 A    
C28   H5    1.084738 S    
C13   C15   1.415606 A    
O12   H12   1.013274 S    
O2    Zn2   1.983409 S    
C30   O23   1.383386 S    
C34   C39   1.391620 A    
C45   O17   1.223001 D    
O5    Zn1   1.979128 S    
C43   O13   1.223390 D    
O10   H11   1.013851 S    
C17   C18   1.402127 A    
C42   O12   1.398718 S    
O22   H18   0.986972 S    
C37   H8    1.082674 S    
