data_mof_unit_52641.cif
_audit_creation_date              2012-12-11T15:57:41-0500
_audit_creation_method            fapswitch 2.2
_symmetry_space_group_name_H-M    P1
_symmetry_Int_Tables_number       1
_space_group_crystal_system       triclinic
_cell_length_a                    10.762629
_cell_length_b                    10.744379
_cell_length_c                    16.981757
_cell_angle_alpha                 99.904672
_cell_angle_beta                  100.332669
_cell_angle_gamma                 61.193726
_cell_volume                      1684.4598038

loop_
_atom_site_label
_atom_site_type_symbol
_atom_type_description
_atom_site_fract_x
_atom_site_fract_y
_atom_site_fract_z
_atom_type_partial_charge
C1    C     C_R   0.353977 0.776523 0.402097 0.589162
C2    C     C_2   0.794381 0.351309 0.145690 -0.070491
C3    C     C_2   0.765139 0.261325 0.175659 0.147991
C4    C     C_2   0.714062 0.300658 0.255199 -0.117285
C5    C     C_2   0.326050 0.855483 0.334161 -0.050812
C6    C     C_2   0.348133 0.825923 0.158541 0.134275
C7    C     C_2   0.402877 0.890610 0.219072 -0.113827
C8    C     C_2   0.430220 0.857754 0.301762 0.137960
C9    C     C_2   0.338875 0.324479 0.653803 0.254118
C10   C     C_2   0.334351 0.355038 0.836607 -0.052616
C11   C     C_2   0.441008 0.279915 0.791344 0.259054
C12   C     C_R   0.365879 0.342963 0.358398 0.553268
C13   C     C_2   0.425184 0.337517 0.718996 0.057625
C14   C     C_1   0.853843 0.325195 0.703690 0.102621
C15   C     C_1   0.899641 0.290433 0.770789 0.056098
C16   C     C_1   0.354585 0.774293 0.712955 0.061988
C17   C     C_1   0.321565 0.818515 0.779670 0.026210
C18   C     C_R   0.887860 0.311024 0.083635 0.564739
C19   C     C_R   0.291008 0.260380 0.121588 0.547967
C20   C     C_R   0.295295 0.890409 0.083496 0.561412
C21   C     C_R   0.945663 0.272147 0.854158 0.555466
C22   C     C_R   0.308493 0.295457 0.896679 0.580270
C23   C     C_R   0.712554 0.412162 0.392148 0.568287
C24   C     C_R   0.279110 0.882653 0.857009 0.539137
C25   C     C_R   0.379252 0.720465 0.631783 0.599006
C26   C     C_R   0.367049 0.344759 0.579574 0.605923
C27   C     C_R   0.782535 0.376372 0.627433 0.628638
C28   C     C_1   0.324295 0.316277 0.276554 -0.009448
C29   C     C_1   0.304821 0.291221 0.205740 -0.018291
C30   C     C_2   0.756879 0.379199 0.312510 -0.111033
Cr1   Cr    Cr6+3 0.608020 0.610770 0.522990 1.145561
Cr2   Cr    Cr6+3 0.289390 0.599570 0.488050 1.101161
Cr3   Cr    Cr6+3 0.602610 0.289690 0.489020 1.099535
Cr4   Cr    Cr6+3 0.053780 0.052210 0.965970 1.157944
Cr5   Cr    Cr6+3 0.060060 0.372530 0.992430 1.101593
Cr6   Cr    Cr6+3 0.372600 0.061970 0.991430 1.128890
H1    H     H_    0.248707 0.457967 0.819452 0.120959
H2    H     H_    0.649782 0.255825 0.268800 0.180365
H3    H     H_    0.758634 0.459918 0.174031 0.113855
H4    H     H_    0.826178 0.419965 0.301215 0.128128
H5    H     H_    0.422470 0.976356 0.208695 0.138331
H6    H     H_    0.220760 0.890467 0.300406 0.132657
O1    O     O_R   0.749250 0.499990 0.439200 -0.459682
O2    O     O_R   0.299400 0.468710 0.556310 -0.498096
O3    O     O_R   0.489240 0.256450 0.560730 -0.496025
O4    O     O_R   0.723350 0.306730 0.584410 -0.480231
O5    O     O_3   0.500010 0.500010 0.500020 -0.324065
O6    O     O_R   0.170650 0.915100 0.051290 -0.452462
O7    O     O_R   0.941960 0.184500 0.049060 -0.442867
O8    O     O_R   0.922640 0.402670 0.071640 -0.511844
O9    O     O_R   0.196880 0.368740 0.083740 -0.456153
O10   O     O_R   0.411120 0.181190 0.091480 -0.462605
O11   O     O_R   0.364220 0.944920 0.062310 -0.534267
O12   O     O_R   0.477870 0.725740 0.440280 -0.464477
O13   O     O_R   0.158740 0.906940 0.874970 -0.496422
O14   O     O_R   0.930920 0.176940 0.885610 -0.420296
O15   O     O_R   0.910730 0.394510 0.895320 -0.474582
O16   O     O_R   0.185840 0.361180 0.920280 -0.512692
O17   O     O_R   0.399210 0.173040 0.915160 -0.417466
O18   O     O_R   0.353170 0.937370 0.898860 -0.471191
O19   O     O_3   0.162150 0.162240 0.983280 -0.357238
O20   O     O_R   0.260770 0.742210 0.412610 -0.488563
O21   O     O_R   0.297990 0.466320 0.394220 -0.483730
O22   O     O_R   0.487720 0.253870 0.385870 -0.499960
O23   O     O_R   0.721940 0.304340 0.422320 -0.485008
O24   O     O_R   0.750770 0.502570 0.614050 -0.460041
O25   O     O_R   0.479280 0.728140 0.602370 -0.453871
O26   O     O_R   0.262290 0.744790 0.587460 -0.496149
Br1   Br    Br    0.794481 0.076918 0.123508 -0.357344
Br2   Br    Br    0.529847 0.439924 0.727131 -0.538910
S1    S     S_3+6 0.214571 0.261360 0.653026 -0.016447
O27   O     O_2   0.092000 0.377473 0.695145 -0.341953
O28   O     O_2   0.161130 0.228915 0.567994 -0.266236
O29   O     O_3   0.289024 0.113622 0.701495 -0.512255
H7    H     H_    0.207600 0.108199 0.717399 0.339509
Br3   Br    Br    0.613138 0.829063 0.357221 -0.429007
Br4   Br    Br    0.324260 0.662612 0.168190 -0.474774
S2    S     S_3+6 0.601275 0.120972 0.812768 0.108324
O30   O     O_2   0.664447 0.137322 0.897929 -0.199440
O31   O     O_2   0.571208 0.995782 0.801978 -0.223648
O32   O     O_3   0.720605 0.088911 0.750286 -0.483299
H8    H     H_    0.681766 0.060857 0.696800 0.359070

loop_
_geom_bond_atom_site_label_1
_geom_bond_atom_site_label_2
_ccdc_geom_bond_type
Cr1   O24   S    
C5    H6    S    
Cr4   O14   S    
C2    C18   S    
Cr3   O3    S    
C25   O25   A    
Cr6   O17   S    
C1    O20   A    
O32   H8    S    
C26   O2    A    
C7    C8    S    
C10   C22   S    
C24   O13   A    
Cr1   O25   S    
Cr1   O1    S    
C12   C28   S    
C10   H1    S    
C1    C5    S    
C28   C29   T    
C3    Br1   S    
C12   O22   A    
S2    O31   D    
C13   Br2   S    
C8    Br3   S    
C23   O1    A    
C9    C13   D    
Cr6   O11   S    
C26   O3    A    
C19   O10   A    
C16   C17   T    
C14   C27   S    
Cr6   O10   S    
Cr2   O26   S    
Cr4   O13   S    
Cr1   O5    S    
Cr3   O4    S    
C25   O26   A    
C2    H3    S    
C9    C26   S    
C17   C24   S    
O29   H7    S    
Cr3   O23   S    
C23   C30   S    
C22   O17   A    
S1    O28   D    
C12   O21   A    
S2    O30   D    
C6    Br4   S    
Cr4   O19   S    
C1    O12   A    
C21   O15   A    
C11   S2    S    
S1    O29   S    
C24   O18   A    
Cr5   O8    S    
Cr2   O2    S    
C30   H4    S    
Cr5   O19   S    
C20   O6    A    
C27   O4    A    
C4    H2    S    
Cr5   O16   S    
Cr5   O9    S    
Cr3   O5    S    
Cr2   O5    S    
C5    C8    D    
Cr4   O6    S    
C3    C4    S    
C19   C29   S    
C18   O8    A    
C16   C25   S    
Cr4   O7    S    
C9    S1    S    
Cr2   O21   S    
C20   O11   A    
Cr6   O18   S    
C22   O16   A    
C21   O14   A    
C6    C7    D    
C6    C20   S    
Cr5   O15   S    
C23   O23   A    
C2    C3    D    
Cr2   O20   S    
S1    O27   D    
C27   O24   A    
C11   C13   S    
S2    O32   S    
Cr3   O22   S    
C7    H5    S    
Cr1   O12   S    
C10   C11   D    
C19   O9    A    
C15   C21   S    
C14   C15   T    
C4    C30   D    
Cr6   O19   S    
C18   O7    A    
