data_mof_unit_29533.cif
_audit_creation_date              2012-12-11T14:49:49-0500
_audit_creation_method            fapswitch 2.2
_symmetry_space_group_name_H-M    P1
_symmetry_Int_Tables_number       1
_space_group_crystal_system       triclinic
_cell_length_a                    16.911822
_cell_length_b                    16.671023
_cell_length_c                    19.764295
_cell_angle_alpha                 116.498426
_cell_angle_beta                  62.177174
_cell_angle_gamma                 100.921088
_cell_volume                      4409.15153507

loop_
_atom_site_label
_atom_site_type_symbol
_atom_type_description
_atom_site_fract_x
_atom_site_fract_y
_atom_site_fract_z
_atom_type_partial_charge
C1    C     C_R   0.029579 0.760997 0.022703 -0.128801
C2    C     C_R   0.250325 0.518317 0.831930 -0.137160
C3    C     C_R   0.183708 0.493049 0.087961 -0.061299
C4    C     C_R   0.760141 0.424256 0.166548 -0.232871
C5    C     C_R   0.998075 0.335067 0.757439 -0.165023
C6    C     C_R   0.258746 0.543083 0.063361 0.060971
C7    C     C_R   0.960003 0.254676 0.757800 0.083614
C8    C     C_R   0.258541 0.458087 0.752862 0.117667
C9    C     C_R   0.025248 0.222046 0.006069 -0.155256
C10   C     C_R   0.007207 0.101252 0.668612 -0.287132
C11   C     C_R   0.963993 0.176530 0.686748 0.121118
C12   C     C_R   0.758166 0.448665 0.244401 -0.031986
C13   C     C_R   0.931723 0.178849 0.634739 -0.273161
C14   C     C_R   0.944329 0.104107 0.561188 0.141161
C15   C     C_R   0.992052 0.028684 0.539948 0.070530
C16   C     C_R   0.803873 0.556101 0.957069 0.654476
C17   C     C_R   0.023033 0.027282 0.594358 0.155108
C18   C     C_R   0.912117 0.104282 0.507778 -0.210832
C19   C     C_R   0.927844 0.030042 0.432735 -0.185467
C20   C     C_R   0.977443 0.956619 0.410436 0.161741
C21   C     C_R   0.010399 0.955662 0.463674 -0.038829
C22   C     C_R   0.061955 0.881959 0.440463 -0.046811
C23   C     C_R   0.724293 0.551390 0.023532 -0.038364
C24   C     C_R   0.091401 0.881151 0.495737 -0.150265
C25   C     C_R   0.071506 0.953499 0.572727 -0.236181
C26   C     C_R   0.994140 0.883548 0.335749 -0.355910
C27   C     C_R   0.047644 0.812758 0.311576 -0.070242
C28   C     C_R   0.008900 0.660661 0.239531 -0.165686
C29   C     C_R   0.083084 0.810941 0.362070 0.554881
C30   C     C_R   0.348278 0.347725 0.604147 0.532317
C31   C     C_R   0.343957 0.418389 0.680266 -0.069391
C32   C     C_R   0.422225 0.462639 0.683464 -0.335844
C33   C     C_R   0.497128 0.455307 0.610276 0.145501
C34   C     C_R   0.056190 0.736702 0.237068 -0.006554
C35   C     C_R   0.496767 0.396884 0.532543 0.008448
C36   C     C_R   0.425051 0.338455 0.529199 -0.029273
C37   C     C_R   0.567451 0.514138 0.614123 -0.190465
C38   C     C_R   0.632414 0.522060 0.541687 -0.180406
C39   C     C_R   0.628767 0.469240 0.464888 0.123334
C40   C     C_R   0.739967 0.487481 0.042981 -0.251673
C41   C     C_R   0.564187 0.402848 0.458951 0.012286
C42   C     C_R   0.562585 0.347770 0.380909 -0.046890
C43   C     C_R   0.498058 0.280837 0.377120 -0.172806
C44   C     C_R   0.429016 0.277212 0.450680 -0.164451
C45   C     C_R   0.249110 0.571652 0.012016 -0.111954
C46   C     C_R   0.687023 0.484605 0.394859 -0.342706
C47   C     C_R   0.688322 0.430406 0.316107 -0.068017
C48   C     C_R   0.623369 0.363077 0.309195 0.577514
C49   C     C_R   0.637601 0.597103 0.062561 0.001301
C50   C     C_R   0.328624 0.567673 0.093456 -0.059601
C51   C     C_R   0.405874 0.527332 0.151246 -0.206247
C52   C     C_R   0.078647 0.738888 0.161026 0.539738
C53   C     C_R   0.331375 0.522795 0.138130 -0.254134
C54   C     C_R   0.397946 0.627417 0.071474 0.574900
C55   C     C_R   0.470521 0.635378 0.089636 -0.047632
C56   C     C_R   0.931977 0.256127 0.835121 -0.142055
C57   C     C_R   0.478067 0.577903 0.120966 0.129411
C58   C     C_R   0.561172 0.562073 0.110477 -0.299728
C59   C     C_R   0.627933 0.669318 0.047644 0.644615
C60   C     C_R   0.541508 0.691100 0.066461 -0.392983
C61   C     C_R   0.794867 0.176661 0.188013 0.024625
C62   C     C_R   0.941788 0.866839 0.017126 0.142875
C63   C     C_R   0.846314 0.951727 0.009052 -0.164682
C64   C     C_R   0.838807 0.491680 0.240619 0.515623
C65   C     C_R   0.895506 0.874063 0.976666 -0.145913
C66   C     C_R   0.946345 0.943269 0.085673 -0.238095
C67   C     C_R   0.174008 0.451163 0.754602 -0.120662
C68   C     C_R   0.899585 0.022913 0.117070 0.136740
C69   C     C_R   0.845756 0.026045 0.080725 -0.008496
C70   C     C_R   0.792192 0.103152 0.117344 0.533662
C71   C     C_R   0.850971 0.174912 0.221280 -0.292766
C72   C     C_R   0.902643 0.098249 0.186614 -0.224069
C73   C     C_R   0.955382 0.694169 0.943938 -0.128873
C74   C     C_R   0.977082 0.777946 0.993155 0.031065
C75   C     C_3   0.134322 0.246876 0.084495 0.174593
C76   C     C_3   0.198561 0.273483 0.125123 -0.281312
C77   C     C_3   0.231354 0.191855 0.121539 -1.018769
C78   C     C_R   0.049400 0.306562 0.052647 0.542202
C79   C     C_3   0.223424 0.750917 0.288527 -0.266375
C80   C     C_3   0.264068 0.234088 0.634007 -0.277519
C81   C     C_3   0.865495 0.520800 0.815496 -0.343074
C82   C     C_3   0.552007 0.350857 0.232086 -0.334863
C83   C     C_3   0.700069 0.743490 0.959537 -0.127794
C84   C     C_3   0.454083 0.623375 0.940046 -0.338804
C85   C     C_3   0.756193 0.153000 0.045047 -0.190611
C86   C     C_3   0.159885 0.867866 0.163158 -0.251833
C87   C     C_3   0.900087 0.425354 0.285629 0.156865
C88   C     C_3   0.968473 0.442487 0.320443 -0.210677
C89   C     C_R   0.972000 0.239243 0.977387 -0.211316
C90   C     C_3   0.982231 0.360537 0.329468 -1.057313
H1    H     H_    0.061353 0.809696 0.060000 0.131475
H2    H     H_    0.875205 0.161673 0.523925 0.132550
H3    H     H_    0.717290 0.378630 0.140841 0.179878
H4    H     H_    0.902558 0.030495 0.391597 0.128615
H5    H     H_    0.964974 0.881040 0.296189 0.142897
H6    H     H_    0.130059 0.825090 0.479579 0.169978
H7    H     H_    0.095300 0.952517 0.614660 0.130688
H8    H     H_    0.422300 0.513084 0.741605 0.143713
H9    H     H_    0.568609 0.558615 0.673752 0.121383
H10   H     H_    0.683527 0.571712 0.546170 0.130012
H11   H     H_    0.731047 0.540780 0.402790 0.201415
H12   H     H_    0.892490 0.206790 0.857982 0.091634
H13   H     H_    0.497996 0.233858 0.317719 0.178323
H14   H     H_    0.376888 0.229024 0.445910 0.172183
H15   H     H_    0.565906 0.512642 0.129758 0.137152
H16   H     H_    0.410010 0.485231 0.178411 0.134167
H17   H     H_    0.531196 0.744983 0.054858 0.188661
H18   H     H_    0.279649 0.477849 0.157278 0.145680
H19   H     H_    0.985166 0.636992 0.288387 0.192564
H20   H     H_    0.851966 0.232120 0.275854 0.158702
H21   H     H_    0.808452 0.953127 0.977985 0.150714
H22   H     H_    0.943833 0.097345 0.214938 0.138403
H23   H     H_    0.156516 0.411698 0.703339 0.159504
H24   H     H_    0.895897 0.818924 0.920501 0.103086
H25   H     H_    0.982861 0.940185 0.117193 0.105280
H26   H     H_    0.693786 0.463442 0.089324 0.138306
H27   H     H_    0.921539 0.683390 0.906432 0.165684
H28   H     H_    0.281947 0.625071 0.993505 0.197204
H29   H     H_    0.172675 0.204964 0.016209 0.106577
H30   H     H_    0.079102 0.207404 0.113684 0.117868
H31   H     H_    0.256988 0.307044 0.091759 0.196528
H32   H     H_    0.164669 0.321709 0.191702 0.214349
H33   H     H_    0.174087 0.158683 0.156499 0.265921
H34   H     H_    0.940832 0.189280 0.940367 0.123542
H35   H     H_    0.278505 0.213322 0.150701 0.271405
H36   H     H_    0.266640 0.143162 0.055337 0.268993
H37   H     H_    0.233109 0.747589 0.227652 0.171995
H38   H     H_    0.248108 0.815578 0.323054 0.131053
H39   H     H_    0.264902 0.696602 0.274723 0.187967
H40   H     H_    0.248449 0.268011 0.701866 0.148351
H41   H     H_    0.324516 0.189621 0.598434 0.138972
H42   H     H_    0.206821 0.191078 0.628254 0.185441
H43   H     H_    0.843692 0.450289 0.802892 0.153469
H44   H     H_    0.936226 0.526889 0.805815 0.146720
H45   H     H_    0.301341 0.537686 0.853947 0.093712
H46   H     H_    0.862106 0.538441 0.769024 0.178115
H47   H     H_    0.563642 0.423073 0.244357 0.138772
H48   H     H_    0.483965 0.343243 0.277795 0.157419
H49   H     H_    0.553988 0.315266 0.168623 0.175464
H50   H     H_    0.663359 0.808561 0.992529 0.126003
H51   H     H_    0.671643 0.691017 0.917920 0.111932
H52   H     H_    0.769207 0.752483 0.917411 0.157400
H53   H     H_    0.436202 0.551400 0.917433 0.137816
H54   H     H_    0.526064 0.628400 0.925519 0.156024
H55   H     H_    0.444188 0.652269 0.903621 0.175532
H56   H     H_    0.159888 0.475153 0.140317 0.141275
H57   H     H_    0.699040 0.162999 0.036457 0.175142
H58   H     H_    0.809733 0.115812 0.981752 0.100803
H59   H     H_    0.778704 0.220692 0.076744 0.148206
H60   H     H_    0.178835 0.880589 0.213752 0.156719
H61   H     H_    0.096979 0.904248 0.187599 0.115726
H62   H     H_    0.213676 0.895417 0.120121 0.179373
H63   H     H_    0.928965 0.374621 0.219418 0.112098
H64   H     H_    0.839358 0.397504 0.322864 0.122804
H65   H     H_    0.033292 0.460103 0.277741 0.202869
H66   H     H_    0.944976 0.499931 0.383141 0.205063
H67   H     H_    0.020042 0.358075 0.708318 0.104494
H68   H     H_    0.919502 0.346066 0.376663 0.267428
H69   H     H_    0.035486 0.373687 0.350747 0.274129
H70   H     H_    0.002473 0.301029 0.268481 0.277355
H71   H     H_    0.032482 0.102360 0.710436 0.129025
H72   H     H_    0.898150 0.238793 0.651277 0.123755
N1    N     N_R   0.036080 0.671900 0.995420 -0.038212
N2    N     N_R   0.867430 0.509300 0.948100 -0.115410
N3    N     N_R   0.003360 0.617250 0.167070 -0.078808
N4    N     N_R   0.825450 0.461270 0.995400 -0.064134
N5    N     N_R   0.045340 0.665280 0.119770 -0.094878
N6    N     N_R   0.883740 0.497640 0.167070 -0.087142
N7    N     N_R   0.987050 0.628910 0.948110 -0.058571
N8    N     N_R   0.174550 0.538730 0.004600 -0.060442
N9    N     N_R   0.954660 0.334720 0.880230 -0.031096
N10   N     N_R   0.116260 0.502360 0.832930 -0.056935
N11   N     N_R   0.012950 0.371090 0.051890 -0.089989
N12   N     N_R   0.963920 0.328100 0.004580 -0.065044
N13   N     N_R   0.165290 0.545350 0.880240 -0.040350
N14   N     N_R   0.132570 0.490700 0.051900 -0.047777
N15   N     N_R   0.996640 0.382750 0.832930 -0.044193
N16   N     N_R   0.834710 0.454650 0.119760 -0.068306
Ni1   Ni    Ni4+2 0.104370 0.604370 0.000010 0.250611
Ni2   Ni    Ni4+2 0.895630 0.395630 0.999990 0.180821
Ni3   Ni    Ni4+2 0.991920 0.505780 0.891500 0.194006
Ni4   Ni    Ni4+2 0.008080 0.494220 0.108500 0.239062
O1    O     O_3   0.098928 0.325376 0.097370 -0.702388
O2    O     O_3   0.878728 0.507427 0.292465 -0.699954
O3    O     O_3   0.133252 0.737662 0.336930 -0.628573
O4    O     O_3   0.274533 0.296476 0.600492 -0.636291
O5    O     O_3   0.808397 0.580373 0.896787 -0.620086
O6    O     O_3   0.618880 0.312590 0.233466 -0.613689
O7    O     O_3   0.702413 0.718162 0.018072 -0.604022
O8    O     O_3   0.399355 0.672439 0.026616 -0.620511
O9    O     O_3   0.727598 0.101848 0.092643 -0.604972
O10   O     O_3   0.155421 0.775372 0.117140 -0.627163

loop_
_geom_bond_atom_site_label_1
_geom_bond_atom_site_label_2
_ccdc_geom_bond_type
C45   H28   S    
C61   C70   A    
C66   C68   A    
C87   C88   S    
C72   H22   S    
C80   H42   S    
C6    C45   A    
C27   C29   A    
C41   C42   A    
C14   C18   A    
N5    Ni1   S    
C35   C36   A    
C64   N6    A    
C85   H58   S    
C79   H38   S    
C3    C6    A    
C75   O1    S    
C45   N8    A    
C63   C65   A    
C44   H14   S    
C81   H44   S    
C39   C41   A    
N8    N14   A    
C84   H55   S    
C16   N2    A    
C7    C11   S    
C26   C27   A    
C50   C54   A    
N3    Ni4   S    
C30   O4    S    
C22   C29   A    
C48   O6    S    
C82   H47   S    
C86   H60   S    
C52   N5    A    
C52   O10   S    
C38   C39   A    
C12   C64   A    
N15   Ni3   S    
C23   C49   S    
C84   H54   S    
C10   C17   A    
C23   C40   A    
C79   H39   S    
C71   H20   S    
C78   O1    S    
C65   H24   S    
C90   H69   S    
N2    Ni3   S    
C54   C55   A    
N10   Ni3   S    
C63   C69   A    
C29   O3    S    
C68   C69   A    
C78   N11   A    
C62   C74   S    
C87   H63   S    
C84   O8    S    
C51   C57   A    
C4    C12   A    
C54   O8    S    
C40   N4    A    
N10   N13   A    
C55   C60   A    
C61   C71   A    
C28   C34   A    
C59   C60   A    
C1    H1    S    
C80   H41   S    
C13   C14   A    
C63   H21   S    
C89   N12   A    
C12   C47   S    
N1    N7    A    
C83   H50   S    
C70   O9    S    
C85   H59   S    
C27   C34   S    
C46   H11   S    
C50   C53   A    
C80   H40   S    
C66   H25   S    
C62   C66   A    
C88   H65   S    
C13   H72   S    
C73   H27   S    
C24   C25   A    
C38   H10   S    
C9    C89   A    
C87   O2    S    
C83   H51   S    
C18   C19   A    
N13   Ni1   S    
C84   H53   S    
C67   N10   A    
C76   H32   S    
N11   N12   A    
C33   C37   A    
C49   C58   A    
C82   O6    S    
C51   C53   A    
C90   H68   S    
N14   Ni4   S    
C75   C76   S    
C37   C38   A    
C77   H33   S    
C86   H62   S    
C2    N13   A    
C47   C48   A    
C68   C72   A    
N7    Ni3   S    
C82   H49   S    
C87   H64   S    
C75   H29   S    
C42   C48   A    
C76   C77   S    
C60   H17   S    
C5    N15   A    
C19   H4    S    
C28   N3    A    
C3    H56   S    
C39   C46   A    
C25   H7    S    
C88   C90   S    
N11   Ni4   S    
C16   C23   A    
C5    H67   S    
C55   C57   A    
C56   N9    A    
N1    Ni1   S    
C76   H31   S    
C22   C24   A    
N9    Ni2   S    
C36   C44   A    
N4    Ni2   S    
C42   C43   A    
C1    C74   A    
C73   N7    A    
C88   H66   S    
C73   C74   A    
N12   Ni2   S    
C37   H9    S    
C77   H35   S    
C81   H46   S    
C5    C7    A    
C26   H5    S    
C15   C17   A    
C79   H37   S    
C46   C47   A    
C79   O3    S    
C62   C65   A    
C8    C31   S    
C86   O10   S    
C83   O7    S    
C31   C32   A    
C2    C8    A    
C75   H30   S    
C85   H57   S    
C4    N16   A    
C16   O5    S    
C40   H26   S    
C83   H52   S    
N16   Ni2   S    
C81   H43   S    
C89   H34   S    
C28   H19   S    
C85   O9    S    
C34   C52   A    
C2    H45   S    
C49   C59   A    
C30   C36   A    
N8    Ni1   S    
C58   H15   S    
C18   H2    S    
C32   C33   A    
C19   C20   A    
C24   H6    S    
C67   H23   S    
C17   C25   A    
C71   C72   A    
C82   H48   S    
C86   H61   S    
C11   C13   A    
C53   H18   S    
C57   C58   A    
C30   C31   A    
C20   C26   A    
C43   C44   A    
C51   H16   S    
N6    N16   A    
N2    N4    A    
C33   C35   A    
C32   H8    S    
C7    C56   A    
C9    C78   A    
C90   H70   S    
C69   C70   A    
C35   C41   A    
N6    Ni4   S    
C43   H13   S    
C59   O7    S    
C10   C11   A    
C56   H12   S    
C4    H3    S    
C64   O2    S    
C6    C50   S    
C3    N14   A    
C15   C21   A    
C20   C21   A    
C1    N1    A    
C8    C67   A    
N3    N5    A    
C80   O4    S    
C14   C15   A    
N9    N15   A    
C10   H71   S    
C21   C22   A    
C81   O5    S    
C77   H36   S    
