data_mof_unit_6057.cif
_audit_creation_date              2012-12-10T17:47:46-0500
_audit_creation_method            fapswitch 2.2
_symmetry_space_group_name_H-M    P1
_symmetry_Int_Tables_number       1
_space_group_crystal_system       triclinic
_cell_length_a                    14.943602
_cell_length_b                    14.465752
_cell_length_c                    14.358049
_cell_angle_alpha                 75.33719
_cell_angle_beta                  103.087118
_cell_angle_gamma                 114.835
_cell_volume                      2699.39262116

loop_
_atom_site_label
_atom_site_type_symbol
_atom_type_description
_atom_site_fract_x
_atom_site_fract_y
_atom_site_fract_z
_atom_type_partial_charge
C1    C     C_R   0.880479 0.310278 0.518546 0.793385
C2    C     C_R   0.119247 0.689778 0.482527 0.783960
C3    C     C_R   0.637998 0.074011 0.500696 0.062808
C4    C     C_R   0.359732 0.926233 0.455504 0.066898
C5    C     C_R   0.665856 0.993594 0.559797 0.085115
C6    C     C_R   0.326706 0.008872 0.425733 0.095826
C7    C     C_R   0.534760 0.051952 0.464988 0.082769
C8    C     C_R   0.463949 0.947548 0.479143 0.082777
C9    C     C_R   0.499130 0.868291 0.524796 -0.238422
C10   C     C_R   0.498868 0.131386 0.424125 -0.246060
C11   C     C_R   0.597242 0.891089 0.565235 -0.219620
C12   C     C_R   0.397586 0.110479 0.406600 -0.216663
C13   C     C_R   0.708537 0.660664 0.335088 -0.270268
C14   C     C_R   0.289255 0.336566 0.664715 -0.291663
C15   C     C_R   0.790604 0.633980 0.360665 0.224291
C16   C     C_R   0.213087 0.372059 0.642799 0.178771
C17   C     C_R   0.716242 0.507435 0.492423 -0.018738
C18   C     C_R   0.280113 0.484324 0.502345 -0.023080
C19   C     C_R   0.627495 0.529193 0.466978 -0.020230
C20   C     C_R   0.364627 0.455154 0.524572 -0.012669
C21   C     C_R   0.628281 0.609560 0.386860 0.088912
C22   C     C_R   0.363885 0.376738 0.606375 0.104559
C23   C     C_R   0.000759 0.499623 0.668987 0.804537
C24   C     C_R   0.998520 0.499350 0.331113 0.808429
C25   C     C_R   0.538063 0.475120 0.513834 0.014108
C26   C     C_R   0.451362 0.502897 0.474250 0.012955
C27   C     C_R   0.457548 0.580147 0.388537 -0.013902
C28   C     C_R   0.529198 0.393592 0.596866 -0.011409
C29   C     C_R   0.546498 0.635354 0.351458 -0.220700
C30   C     C_R   0.441485 0.343502 0.636984 -0.217265
C31   C     C_1   0.002055 0.498772 0.771910 -0.183330
C32   C     C_1   0.994750 0.497258 0.228396 -0.182819
C33   C     C_1   0.001167 0.497986 0.857353 -0.020821
C34   C     C_1   0.993148 0.495908 0.142909 -0.025227
C35   C     C_1   0.997861 0.496746 0.957615 -0.015623
C36   C     C_1   0.994842 0.495919 0.042526 -0.023432
C37   C     C_R   0.811175 0.198426 0.533440 -0.121039
C38   C     C_R   0.186644 0.802189 0.464438 -0.124070
C39   C     C_R   0.760584 0.016435 0.615717 -0.042065
C40   C     C_R   0.224156 0.988995 0.419505 -0.040761
C41   C     C_R   0.834096 0.118540 0.601850 -0.040612
C42   C     C_R   0.154590 0.885908 0.444851 -0.053522
C43   C     C_R   0.713181 0.174171 0.484424 -0.267044
C44   C     C_R   0.287618 0.824623 0.465415 -0.268081
Cu1   Cu    Cu3+1 0.081740 0.475690 0.523180 0.922440
Cu2   Cu    Cu3+1 0.918260 0.524310 0.476820 0.927377
H1    H     H_    0.618382 0.826928 0.603681 0.160163
H2    H     H_    0.375895 0.176160 0.380966 0.167607
H3    H     H_    0.308974 0.760439 0.473814 0.162063
H4    H     H_    0.696980 0.235392 0.432675 0.163084
H5    H     H_    0.451883 0.787414 0.537895 0.146904
H6    H     H_    0.547195 0.212091 0.411767 0.147007
H7    H     H_    0.549388 0.695096 0.287142 0.150160
H8    H     H_    0.437162 0.282315 0.700266 0.147735
H9    H     H_    0.273414 0.545755 0.445798 0.163029
H10   H     H_    0.725429 0.446842 0.547994 0.174483
H11   H     H_    0.706197 0.720533 0.272308 0.171050
H12   H     H_    0.292494 0.280361 0.730577 0.163302
N1    N     N_R   0.795420 0.560790 0.441960 -0.216460
N2    N     N_R   0.204580 0.439210 0.558040 -0.219940
O1    O     O_R   0.977910 0.338120 0.530560 -0.594821
O2    O     O_R   0.022090 0.661880 0.469440 -0.594239
O3    O     O_R   0.839850 0.379180 0.491410 -0.570721
O4    O     O_R   0.160150 0.620820 0.508590 -0.567133
O5    O     O_R   0.069040 0.479460 0.643530 -0.575667
O6    O     O_R   0.930960 0.520540 0.356470 -0.579503
O7    O     O_R   0.930990 0.520530 0.604380 -0.554113
O8    O     O_R   0.069010 0.479470 0.395620 -0.559218
C45   C     C_R   0.373272 0.599229 0.322935 0.080455
C46   C     C_R   0.366820 0.696329 0.307917 -0.184246
C47   C     C_R   0.294790 0.719498 0.236679 -0.134693
C48   C     C_R   0.230727 0.647165 0.178441 -0.098445
C49   C     C_R   0.236685 0.550364 0.193196 -0.121380
C50   C     C_R   0.307329 0.526061 0.265650 -0.146484
H13   H     H_    0.418497 0.754207 0.350478 0.136689
H14   H     H_    0.290030 0.794276 0.225278 0.134836
H15   H     H_    0.176899 0.666570 0.121505 0.133776
H16   H     H_    0.187630 0.494576 0.147626 0.138343
H17   H     H_    0.313054 0.451976 0.274900 0.138577
C51   C     C_R   0.609438 0.361696 0.655488 0.066023
C52   C     C_R   0.675399 0.418739 0.726114 -0.150219
C53   C     C_R   0.746855 0.384578 0.786930 -0.115320
C54   C     C_R   0.753673 0.294095 0.777091 -0.120657
C55   C     C_R   0.687445 0.236283 0.707601 -0.130108
C56   C     C_R   0.614525 0.269109 0.647716 -0.161080
H18   H     H_    0.670520 0.488690 0.734689 0.135014
H19   H     H_    0.796176 0.427899 0.842312 0.140274
H20   H     H_    0.809507 0.268239 0.824100 0.120769
H21   H     H_    0.691835 0.165456 0.700989 0.134893
H22   H     H_    0.562251 0.222884 0.595455 0.144648
C57   C     C_R   0.051441 0.867675 0.455947 0.113379
C58   C     C_R   0.988601 0.900000 0.378104 -0.138442
C59   C     C_R   0.892588 0.883866 0.390218 -0.137057
C60   C     C_R   0.856692 0.830705 0.478393 -0.141992
C61   C     C_R   0.917557 0.795579 0.555127 -0.139333
C62   C     C_R   0.015707 0.817688 0.545496 -0.094149
H23   H     H_    0.013223 0.936330 0.307732 0.140280
H24   H     H_    0.844878 0.909585 0.330224 0.140742
H25   H     H_    0.781285 0.815404 0.486820 0.139750
H26   H     H_    0.888940 0.751928 0.622494 0.127811
H27   H     H_    0.062773 0.792399 0.606656 0.108822
C63   C     C_R   0.930312 0.137082 0.665403 0.105501
C64   C     C_R   0.005522 0.121892 0.635442 -0.172964
C65   C     C_R   0.081826 0.103104 0.703939 -0.199140
C66   C     C_R   0.083921 0.100108 0.802468 -0.070369
C67   C     C_R   0.010782 0.117889 0.832589 -0.063107
C68   C     C_R   0.934383 0.136681 0.764415 -0.178326
H28   H     H_    0.000380 0.116305 0.560513 0.147368
H29   H     H_    0.138151 0.088602 0.681153 0.129263
H30   H     H_    0.142520 0.084637 0.855353 0.126144
H31   H     H_    0.012267 0.115258 0.908900 0.131514
H32   H     H_    0.874864 0.144006 0.789306 0.117650
C69   C     C_R   0.776702 0.937336 0.700208 0.109831
C70   C     C_R   0.846437 0.894929 0.703705 -0.129192
C71   C     C_R   0.863307 0.824004 0.784971 -0.152116
C72   C     C_R   0.809748 0.794104 0.862959 -0.094195
C73   C     C_R   0.739674 0.835550 0.859985 -0.121014
C74   C     C_R   0.723296 0.907085 0.779119 -0.166264
H33   H     H_    0.888882 0.918682 0.644308 0.144774
H34   H     H_    0.918272 0.792630 0.787789 0.125715
H35   H     H_    0.822822 0.739174 0.925815 0.147819
H36   H     H_    0.698455 0.812709 0.920566 0.143353
H37   H     H_    0.669664 0.939661 0.778140 0.129841
C75   C     C_R   0.191850 0.077464 0.394179 0.104325
C76   C     C_R   0.174433 0.122323 0.296446 -0.173520
C77   C     C_R   0.148972 0.208949 0.272787 -0.144757
C78   C     C_R   0.141942 0.251891 0.346443 -0.114895
C79   C     C_R   0.160577 0.208376 0.443737 -0.133435
C80   C     C_R   0.185393 0.121353 0.467754 -0.139094
H38   H     H_    0.180905 0.090305 0.238942 0.131086
H39   H     H_    0.135345 0.243203 0.197422 0.136563
H40   H     H_    0.122724 0.319245 0.328196 0.143797
H41   H     H_    0.156129 0.242423 0.500444 0.143999
H42   H     H_    0.201078 0.088971 0.543275 0.117828
C81   C     C_2   0.147914 0.340380 0.717174 0.423253
H43   H     H_    0.068887 0.316825 0.697415 0.114946
O9    O     O_2   0.182636 0.339735 0.802876 -0.573397
C82   C     C_2   0.867852 0.684739 0.294352 0.361427
H44   H     H_    0.944067 0.694694 0.317912 0.126905
O10   O     O_2   0.846509 0.718885 0.209108 -0.594143

loop_
_geom_bond_atom_site_label_1
_geom_bond_atom_site_label_2
_ccdc_geom_bond_type
C44   H3    S    
C7    C10   A    
C66   H30   S    
Cu1   N2    S    
C77   C78   A    
Cu2   N1    S    
C27   C29   A    
C49   C50   A    
C11   H1    S    
C61   C62   A    
C9    H5    S    
C4    C8    A    
C10   H6    S    
C79   C80   A    
C70   C71   A    
C7    C8    A    
C39   C41   A    
Cu1   Cu2   S    
C41   C63   S    
C25   C28   A    
C30   H8    S    
C3    C43   A    
C26   C27   A    
C48   H15   S    
C29   H7    S    
Cu2   O2    S    
C60   H25   S    
C19   C21   A    
C5    C11   A    
C3    C7    A    
C45   C46   A    
C6    C12   A    
C65   H29   S    
C13   H11   S    
C67   C68   A    
C53   H19   S    
C72   C73   A    
C42   C57   S    
C16   N2    A    
C23   O7    A    
C78   H40   S    
C17   C19   A    
C57   C62   A    
C76   H38   S    
C35   C36   T    
C8    C9    A    
C39   C69   S    
C49   H16   S    
C31   C33   T    
C46   C47   A    
C18   C20   A    
C70   H33   S    
C27   C45   S    
C24   O6    A    
C15   C82   S    
Cu1   O1    S    
C40   C42   A    
C54   H20   S    
C62   H27   S    
C60   C61   A    
C40   C75   S    
C1    O3    A    
C65   C66   A    
C2    O4    A    
C58   H23   S    
C52   C53   A    
C67   H31   S    
C14   H12   S    
C72   H35   S    
C81   H43   S    
C6    C40   A    
C55   C56   A    
C4    C6    A    
C57   C58   A    
C61   H26   S    
C51   C52   A    
C4    C44   A    
C25   C26   A    
C21   C29   A    
C80   H42   S    
C23   C31   S    
C37   C43   A    
C73   H36   S    
C24   C32   S    
C38   C44   A    
C51   C56   A    
C2    C38   S    
C54   C55   A    
Cu1   O8    S    
C13   C21   A    
C45   C50   A    
C59   C60   A    
C9    C11   A    
C17   H10   S    
C64   H28   S    
C10   C12   A    
C18   H9    S    
C17   N1    A    
C18   N2    A    
C20   C22   A    
C53   C54   A    
C50   H17   S    
C13   C15   A    
Cu1   O5    S    
C76   C77   A    
C14   C16   A    
C55   H21   S    
C28   C51   S    
C78   C79   A    
C63   C68   A    
C46   H13   S    
C69   C70   A    
C81   O9    D    
C22   C30   A    
C15   N1    A    
C52   H18   S    
C48   C49   A    
C3    C5    A    
C1    O1    A    
C56   H22   S    
C43   H4    S    
Cu2   O6    S    
C82   O10   D    
C1    C37   S    
C66   C67   A    
Cu1   O4    S    
Cu2   O3    S    
C14   C22   A    
C5    C39   A    
C47   C48   A    
C73   C74   A    
C23   O5    A    
C47   H14   S    
C20   C26   A    
C77   H39   S    
C28   C30   A    
C58   C59   A    
C33   C35   S    
C12   H2    S    
C75   C80   A    
C34   C36   S    
C74   H37   S    
C37   C41   A    
C63   C64   A    
C19   C25   A    
C82   H44   S    
C24   O8    A    
C69   C74   A    
C38   C42   A    
C2    O2    A    
Cu2   O7    S    
C71   H34   S    
C64   C65   A    
C68   H32   S    
C79   H41   S    
C16   C81   S    
C59   H24   S    
C71   C72   A    
C32   C34   T    
C75   C76   A    
