data_mof_unit_41131.cif
_audit_creation_date              2013-03-05T15:47:05-0500
_audit_creation_method            fapswitch 2.2
_symmetry_space_group_name_H-M    P1
_symmetry_Int_Tables_number       1
_space_group_crystal_system       triclinic
_cell_length_a                    23.374089
_cell_length_b                    11.140502
_cell_length_c                    9.845356
_cell_angle_alpha                 110.717567
_cell_angle_beta                  96.469771
_cell_angle_gamma                 91.327974
_cell_volume                      2377.18173101

loop_
_atom_site_label
_atom_site_type_symbol
_atom_site_description
_atom_site_fract_x
_atom_site_fract_y
_atom_site_fract_z
_atom_type_partial_charge
O1    O     O_R   0.505330 0.332340 0.577400 -0.564589
O2    O     O_R   0.494670 0.667660 0.422600 -0.557352
O3    O     O_R   0.488470 0.295500 0.332650 -0.521450
O4    O     O_R   0.511530 0.704500 0.667350 -0.521985
C1    C     C_R   0.495510 0.254924 0.443277 0.835351
C2    C     C_R   0.503163 0.744803 0.557726 0.830821
O5    O     O_R   0.426310 0.518390 0.622390 -0.567702
O6    O     O_R   0.573690 0.481610 0.377610 -0.545794
O7    O     O_R   0.409450 0.481550 0.377650 -0.526302
O8    O     O_R   0.590550 0.518450 0.622350 -0.543071
C3    C     C_R   0.390919 0.498521 0.502391 0.895838
C4    C     C_R   0.608600 0.496155 0.495872 0.918365
Cu1   Cu    Cu3+1 0.509980 0.521810 0.644910 1.161928
Cu2   Cu    Cu3+1 0.490020 0.478190 0.355090 1.173651
C5    C     C_R   0.883827 0.523663 0.651718 0.663394
C6    C     C_R   0.115130 0.355388 0.436451 0.702745
N1    N     N_R   0.850654 0.437616 0.530853 -0.439239
N2    N     N_R   0.148251 0.458303 0.535612 -0.445470
C7    C     C_R   0.875345 0.325371 0.461274 0.683375
C8    C     C_R   0.125466 0.551007 0.643952 0.680510
C9    C     C_R   0.935246 0.326441 0.454273 -0.147045
C10   C     C_R   0.065532 0.546393 0.652235 -0.146427
C11   C     C_R   0.970175 0.433886 0.552547 -0.061206
C12   C     C_R   0.030508 0.440221 0.549946 -0.055445
C13   C     C_R   0.944651 0.531105 0.659080 -0.151099
C14   C     C_R   0.055724 0.340147 0.445202 -0.150097
C15   C     C_R   0.960928 0.223134 0.355602 0.244267
C16   C     C_R   0.039757 0.642710 0.760382 0.243244
C17   C     C_R   0.020783 0.229647 0.351368 0.239137
C18   C     C_R   0.980062 0.633668 0.765413 0.247469
O9    O     O_2   0.858254 0.596758 0.766243 -0.407565
O10   O     O_2   0.139982 0.269929 0.328691 -0.404449
O11   O     O_2   0.843872 0.212311 0.413786 -0.406204
O12   O     O_2   0.161160 0.646534 0.742734 -0.409597
C19   C     C_R   0.230353 0.549266 0.458377 0.286584
C20   C     C_R   0.750871 0.364544 0.384327 0.284873
C21   C     C_R   0.289635 0.556390 0.446109 0.153049
C22   C     C_R   0.691094 0.373006 0.391730 0.143712
C23   C     C_R   0.327930 0.486739 0.506462 -0.287997
C24   C     C_R   0.670610 0.486716 0.485128 -0.284197
C25   C     C_R   0.305704 0.402641 0.569491 0.228712
C26   C     C_R   0.709073 0.595413 0.556564 0.214557
C27   C     C_R   0.246441 0.395155 0.580995 0.243214
C28   C     C_R   0.768541 0.583807 0.551234 0.253715
C29   C     C_R   0.208991 0.468500 0.525976 0.049916
C30   C     C_R   0.790112 0.460335 0.491403 0.022313
C31   C     C_2   0.493167 0.117560 0.420035 0.056745
C32   C     C_2   0.509378 0.881756 0.584815 0.057298
C33   C     C_2   0.485531 0.073533 0.530498 0.242812
C34   C     C_2   0.477904 0.935292 0.499143 0.177097
N3    N     N_2   0.475010 0.445410 0.137370 -0.076010
N4    N     N_2   0.524990 0.554590 0.862630 -0.091679
C35   C     C_2   0.508575 0.488010 0.064209 0.369350
C36   C     C_2   0.487246 0.522180 0.932768 0.391656
N5    N     N_R   0.926487 0.112855 0.254211 0.197671
O13   O     O_R   0.891516 0.124159 0.147530 -0.175889
O14   O     O_R   0.934936 0.999059 0.258178 -0.182736
N6    N     N_R   0.073254 0.752783 0.864639 0.196554
O15   O     O_R   0.087846 0.848243 0.825889 -0.185419
O16   O     O_R   0.081307 0.766190 0.002277 -0.178982
Br1   Br    Br    0.562532 0.719332 0.966101 -0.134774
Br2   Br    Br    0.404350 0.352415 0.044015 -0.103009
N7    N     N_R   0.045445 0.121869 0.252078 0.197568
O17   O     O_R   0.030940 0.088316 0.111493 -0.186586
O18   O     O_R   0.076695 0.048082 0.302671 -0.181731
N8    N     N_R   0.955734 0.734431 0.874563 0.199279
O19   O     O_R   0.948683 0.722759 0.998597 -0.184656
O20   O     O_R   0.948351 0.844181 0.858355 -0.186404
N9    N     N_R   0.191597 0.623502 0.401706 0.178441
O21   O     O_R   0.144788 0.568705 0.314593 -0.270567
O22   O     O_R   0.201133 0.747661 0.444439 -0.187738
N10   N     N_R   0.769811 0.282326 0.250317 0.194972
O23   O     O_R   0.804964 0.329641 0.185631 -0.261973
O24   O     O_R   0.752283 0.161135 0.191689 -0.153873
Br3   Br    Br    0.316268 0.653500 0.335836 -0.164000
Br4   Br    Br    0.637179 0.231583 0.270687 -0.236337
N11   N     N_R   0.342339 0.315308 0.607804 0.170201
O25   O     O_R   0.343995 0.305876 0.735860 -0.203781
O26   O     O_R   0.368717 0.234157 0.508317 -0.321115
N12   N     N_R   0.687592 0.719175 0.625170 0.170901
O27   O     O_R   0.648071 0.761604 0.553001 -0.310635
O28   O     O_R   0.709684 0.792665 0.756668 -0.182089
Br5   Br    Br    0.215045 0.279680 0.664934 -0.179384
Br6   Br    Br    0.815833 0.737960 0.579788 -0.166678
N13   N     N_R   0.428986 0.867301 0.395584 0.138426
O29   O     O_R   0.436888 0.777869 0.273082 -0.254395
O30   O     O_R   0.380110 0.921409 0.402715 -0.198539
N14   N     N_R   0.475208 0.156365 0.674630 0.151099
O31   O     O_R   0.430251 0.128671 0.727444 -0.212938
O32   O     O_R   0.517667 0.228673 0.766264 -0.300943
Br7   Br    Br    0.569548 0.976910 0.739329 -0.158258
Br8   Br    Br    0.503284 0.003662 0.226226 -0.212192
Br9   Br    Br    0.413861 0.597676 0.932085 -0.230415
Br10  Br    Br    0.591234 0.493474 0.109528 -0.272802

loop_
_geom_bond_atom_site_label_1
_geom_bond_atom_site_label_2
_geom_bond_distance
_ccdc_geom_bond_type
N8    O20   1.300693 A    
N5    O13   1.300798 A    
N7    O18   1.301128 A    
C26   N12   1.434895 S    
C15   C17   1.405334 A    
C27   Br5   1.929132 S    
C31   Br8   1.925992 S    
C17   N7    1.434639 S    
C31   C33   1.368309 D    
C22   Br4   1.931751 S    
N11   O25   1.298068 A    
O5    C3    1.309706 A    
C1    C31   1.463807 S    
C2    C32   1.453671 S    
O1    C1    1.287221 A    
C7    C9    1.409557 A    
C12   C14   1.416970 A    
N4    Br1   1.891356 S    
N13   O29   1.299963 A    
C15   N5    1.435003 S    
C5    C13   1.414366 A    
N6    O16   1.300781 A    
O4    Cu1   1.966988 S    
N9    O22   1.301052 A    
C36   Br9   1.928200 S    
C34   N13   1.439231 S    
N4    C36   1.297869 D    
C32   Br7   1.929687 S    
C11   C12   1.413917 A    
C20   C30   1.425557 A    
C8    O12   1.348409 S    
C24   C26   1.404906 A    
N8    O19   1.300777 A    
C9    C15   1.414574 A    
C22   C24   1.408096 A    
C10   C16   1.419231 A    
Cu1   Cu2   2.702598 S    
C25   C27   1.405455 A    
C33   N14   1.443751 S    
O2    C2    1.292870 A    
N3    Br2   1.884358 S    
C26   C28   1.404129 A    
C28   C30   1.420960 A    
N11   O26   1.300867 A    
C6    C14   1.410940 A    
N13   O30   1.301341 A    
N1    C30   1.476402 S    
N10   O24   1.301369 A    
C7    O11   1.345039 S    
N12   O27   1.300614 A    
O3    C1    1.314950 A    
N6    O15   1.300934 A    
C35   C36   1.509992 S    
N3    C35   1.308253 D    
C4    C24   1.468606 S    
O7    Cu2   1.920679 S    
Cu1   N4    2.030251 S    
C27   C29   1.402414 A    
Cu2   N3    2.030251 S    
O6    C4    1.301553 A    
C3    C23   1.481421 S    
O7    C3    1.300401 A    
C19   N9    1.436389 S    
C18   N8    1.432501 S    
O3    Cu2   1.966988 S    
O8    C4    1.301804 A    
O4    C2    1.305404 A    
C8    C10   1.413205 A    
N5    O14   1.300998 A    
C10   C12   1.417741 A    
O1    Cu1   1.972178 S    
C20   C22   1.410911 A    
C19   C29   1.406984 A    
N2    C29   1.438095 S    
C13   C18   1.414626 A    
C5    N1    1.373566 A    
O6    Cu2   1.941201 S    
C19   C21   1.407255 A    
C35   Br10  1.927898 S    
N14   O32   1.301822 A    
N10   O23   1.301515 A    
C28   Br6   1.936657 S    
O8    Cu1   1.920684 S    
C5    O9    1.347803 S    
C16   N6    1.433234 S    
C6    O10   1.348807 S    
C9    C11   1.411649 A    
C16   C18   1.404319 A    
C21   C23   1.412411 A    
C25   N11   1.430956 S    
C32   C34   1.358231 D    
N1    C7    1.372029 A    
N12   O28   1.301095 A    
N2    C8    1.364582 A    
C11   C13   1.412896 A    
C21   Br3   1.920605 S    
N9    O21   1.300956 A    
O2    Cu2   1.972178 S    
N7    O17   1.301056 A    
O5    Cu1   1.941201 S    
N14   O31   1.300548 A    
C23   C25   1.412152 A    
C14   C17   1.419387 A    
C6    N2    1.365115 A    
C33   C34   1.461988 S    
C20   N10   1.439129 S    
