data_mof_unit_19059.cif
_audit_creation_date              2012-12-10T16:54:34-0500
_audit_creation_method            fapswitch 2.2
_symmetry_space_group_name_H-M    P1
_symmetry_Int_Tables_number       1
_space_group_crystal_system       triclinic
_cell_length_a                    15.028299
_cell_length_b                    10.894933
_cell_length_c                    9.746516
_cell_angle_alpha                 89.017149
_cell_angle_beta                  89.611883
_cell_angle_gamma                 90.378927
_cell_volume                      1595.51204948

loop_
_atom_site_label
_atom_site_type_symbol
_atom_type_description
_atom_site_fract_x
_atom_site_fract_y
_atom_site_fract_z
_atom_type_partial_charge
C1    C     C_R   0.502133 0.265363 0.501306 0.854095
C2    C     C_R   0.904688 0.600418 0.448400 0.120457
C3    C     C_R   0.957958 0.296719 0.608787 -0.209349
C4    C     C_R   0.050336 0.302659 0.609844 -0.212801
C5    C     C_R   0.094955 0.406047 0.556648 0.113556
C6    C     C_R   0.046852 0.505889 0.502091 0.041170
C7    C     C_R   0.092270 0.610959 0.447767 0.092911
C8    C     C_R   0.041491 0.710149 0.397087 -0.227521
C9    C     C_R   0.949143 0.704685 0.397650 -0.208753
C10   C     C_R   0.187226 0.410024 0.556775 -0.281927
C11   C     C_R   0.232860 0.510773 0.500468 -0.084390
C12   C     C_R   0.329291 0.504786 0.500208 0.808061
C13   C     C_R   0.186811 0.613369 0.445421 0.030112
C14   C     C_2   0.548886 0.937326 0.402173 0.126637
C15   C     C_2   0.504155 0.867375 0.496085 -0.346426
C16   C     C_2   0.530185 0.069529 0.394382 -0.185317
C17   C     C_2   0.513097 0.133596 0.507180 -0.368818
C18   C     C_2   0.428646 0.509175 0.922841 -0.095673
C19   C     C_2   0.429283 0.486279 0.075922 0.012012
C20   C     C_R   0.503968 0.734542 0.498779 0.824943
C21   C     C_R   0.670744 0.497630 0.499652 0.806859
C22   C     C_R   0.812372 0.595822 0.447410 -0.310113
C23   C     C_R   0.767094 0.492945 0.499142 -0.046711
C24   C     C_R   0.813492 0.390118 0.551971 0.121154
C25   C     C_R   0.907664 0.394736 0.554740 0.101102
C26   C     C_R   0.952995 0.500324 0.501880 0.026305
Cu1   Cu    Cu3+1 0.500020 0.500020 0.638630 0.934448
Cu2   Cu    Cu3+1 0.499980 0.499980 0.361370 0.927471
H1    H     H_    0.775016 0.673587 0.408209 0.138657
H2    H     H_    0.459647 0.908420 0.570137 0.139138
H3    H     H_    0.536063 0.115654 0.294940 0.174320
H4    H     H_    0.514267 0.090462 0.608384 0.157565
H5    H     H_    0.365900 0.532526 0.875286 0.158055
H6    H     H_    0.551810 0.452801 0.889625 0.220202
H7    H     H_    0.366675 0.459487 0.123835 0.128490
H8    H     H_    0.926877 0.214591 0.651209 0.157128
H9    H     H_    0.087079 0.225631 0.652002 0.142583
H10   H     H_    0.224301 0.332866 0.598407 0.140776
H11   H     H_    0.071627 0.793628 0.356964 0.156654
H12   H     H_    0.912368 0.782692 0.358179 0.150002
N1    N     N_2   0.499020 0.498660 0.846910 -0.286310
N2    N     N_2   0.499000 0.498630 0.153040 -0.135950
O1    O     O_R   0.500020 0.321960 0.617040 -0.581236
O2    O     O_R   0.499980 0.321920 0.382900 -0.563361
O3    O     O_R   0.370270 0.499990 0.617090 -0.580233
O4    O     O_R   0.370240 0.499950 0.382940 -0.592861
O5    O     O_R   0.500020 0.678080 0.617100 -0.565173
O6    O     O_R   0.499980 0.678040 0.382960 -0.591413
O7    O     O_R   0.629760 0.500050 0.617060 -0.574457
O8    O     O_R   0.629730 0.500010 0.382910 -0.591285
C27   C     C_3   0.574236 0.572448 0.102890 -0.487618
H13   H     H_    0.600243 0.628859 0.186273 0.217699
H14   H     H_    0.629372 0.512150 0.070045 0.164727
H15   H     H_    0.556064 0.640823 0.022184 0.169979
C28   C     C_3   0.763943 0.275526 0.601298 -0.880754
H16   H     H_    0.787314 0.195003 0.543078 0.222637
H17   H     H_    0.776017 0.259912 0.712466 0.232820
H18   H     H_    0.691124 0.279959 0.586436 0.234890
C29   C     C_3   0.237791 0.724779 0.387815 -0.417942
C30   C     C_3   0.241879 0.828142 0.492719 -0.359394
C31   C     C_3   0.274782 0.948078 0.426154 -0.851302
H19   H     H_    0.339398 0.934305 0.372985 0.266996
H20   H     H_    0.225437 0.982148 0.350446 0.251301
H21   H     H_    0.283716 0.018512 0.506013 0.240629
H22   H     H_    0.175277 0.844050 0.538998 0.225913
H23   H     H_    0.287886 0.801107 0.576674 0.215720
H24   H     H_    0.306875 0.702380 0.358074 0.215108
H25   H     H_    0.207407 0.756647 0.290119 0.194474
C32   C     C_3   0.615519 0.886642 0.299822 -0.373325
C33   C     C_3   0.704123 0.957922 0.300122 -0.363198
C34   C     C_3   0.767394 0.911020 0.189876 -0.875217
H26   H     H_    0.779179 0.811174 0.204396 0.249041
H27   H     H_    0.738928 0.927608 0.086358 0.259241
H28   H     H_    0.832108 0.960346 0.195999 0.244996
H29   H     H_    0.693063 0.057297 0.279898 0.228903
H30   H     H_    0.735922 0.947170 0.402297 0.219339
H31   H     H_    0.632085 0.790033 0.324328 0.195515
H32   H     H_    0.585797 0.891364 0.195739 0.194040

loop_
_geom_bond_atom_site_label_1
_geom_bond_atom_site_label_2
_ccdc_geom_bond_type
C28   H16   S    
C22   H1    S    
C32   H31   S    
C21   O7    A    
C7    C8    A    
C16   H3    S    
Cu2   O4    S    
C5    C6    A    
C16   C17   D    
C18   C19   S    
C31   H20   S    
C29   H24   S    
Cu2   O8    S    
C1    O1    A    
C8    C9    A    
C2    C22   A    
C23   C24   A    
C33   C34   S    
C8    H11   S    
C24   C28   S    
C19   N2    D    
N2    C27   S    
Cu1   O3    S    
C30   H23   S    
C29   C30   S    
C32   H32   S    
C32   C33   S    
H6    N1    S    
C21   O8    A    
C15   C20   S    
C27   H13   S    
C3    C25   A    
C24   C25   A    
C12   O4    A    
C18   N1    D    
C34   H27   S    
C4    C5    A    
C25   C26   A    
Cu2   O2    S    
C9    H12   S    
C30   C31   S    
C27   H14   S    
C31   H21   S    
C29   H25   S    
Cu1   N1    S    
C1    O2    A    
C7    C13   A    
C2    C26   A    
C20   O6    A    
C30   H22   S    
C28   H17   S    
C33   H30   S    
C14   C32   S    
C14   C16   S    
C3    C4    A    
Cu1   Cu2   S    
C15   H2    S    
Cu1   O5    S    
Cu2   O6    S    
C14   C15   D    
C12   O3    A    
C34   H28   S    
C11   C12   S    
C6    C7    A    
C13   C29   S    
C1    C17   S    
C10   H10   S    
C27   H15   S    
C21   C23   S    
C5    C10   A    
C19   H7    S    
C11   C13   A    
C6    C26   A    
C3    H8    S    
Cu2   N2    S    
C31   H19   S    
C18   H5    S    
C20   O5    A    
C10   C11   A    
Cu1   O1    S    
C34   H26   S    
C4    H9    S    
C28   H18   S    
C33   H29   S    
C17   H4    S    
C22   C23   A    
C2    C9    A    
Cu1   O7    S    
