data_mof_unit_53096.cif
_audit_creation_date              2012-12-10T16:44:14-0500
_audit_creation_method            fapswitch 2.2
_symmetry_space_group_name_H-M    P1
_symmetry_Int_Tables_number       1
_space_group_crystal_system       triclinic
_cell_length_a                    7.430009
_cell_length_b                    8.686761
_cell_length_c                    13.402348
_cell_angle_alpha                 94.04025
_cell_angle_beta                  77.381853
_cell_angle_gamma                 103.153749
_cell_volume                      821.788054259

loop_
_atom_site_label
_atom_site_type_symbol
_atom_type_description
_atom_site_fract_x
_atom_site_fract_y
_atom_site_fract_z
_atom_type_partial_charge
C1    C     C_R   0.545299 0.800215 0.503111 0.876574
C2    C     C_R   0.417362 0.504690 0.975562 0.001017
C3    C     C_R   0.465101 0.552268 0.872279 0.089932
C4    C     C_R   0.558565 0.543534 0.035697 0.121454
C5    C     C_R   0.737561 0.640903 0.995076 0.187109
C6    C     C_R   0.773454 0.700835 0.897396 -0.266362
C7    C     C_R   0.638595 0.659357 0.837524 -0.177219
C8    C     C_R   0.527818 0.488202 0.135125 -0.211454
C9    C     C_R   0.839757 0.629874 0.153976 -0.174082
C10   C     C_R   0.336978 0.493048 0.806744 -0.182798
C11   C     C_2   0.570816 0.968113 0.504685 -0.373059
C12   C     C_R   0.399464 0.497676 0.694506 0.805069
C13   C     C_2   0.429003 0.031880 0.495651 -0.375831
C14   C     C_R   0.454612 0.199787 0.497051 0.891826
C15   C     C_R   0.601674 0.511101 0.305877 0.786776
C16   C     C_R   0.877512 0.680702 0.053714 -0.179126
C17   C     C_R   0.662537 0.537136 0.195744 -0.037488
C18   C     C_R   0.153157 0.410884 0.848188 -0.283627
C19   C     C_R   0.099364 0.375916 0.951760 0.561260
C20   C     C_R   0.229900 0.421911 0.014774 -0.285573
Cu1   Cu    Cu3+1 0.321300 0.483160 0.488710 0.944276
Cu2   Cu    Cu3+1 0.678700 0.516840 0.511290 0.944294
H1    H     H_    0.945377 0.668918 0.200039 0.148751
H2    H     H_    0.292354 0.960407 0.487126 0.177804
H3    H     H_    0.010881 0.617713 0.579389 0.223827
H4    H     H_    0.989046 0.382226 0.420669 0.225434
H5    H     H_    0.906578 0.780521 0.867027 0.135392
H6    H     H_    0.014303 0.754916 0.022915 0.125470
H7    H     H_    0.397901 0.408992 0.168711 0.137621
H8    H     H_    0.052132 0.368836 0.799700 0.177740
H9    H     H_    0.178093 0.393539 0.094329 0.150934
H10   H     H_    0.671062 0.715785 0.764488 0.159276
H11   H     H_    0.707452 0.039579 0.513236 0.178523
N1    N     N_2   0.947230 0.542220 0.528320 -0.217356
N2    N     N_2   0.052770 0.457780 0.471680 -0.216991
O1    O     O_R   0.383920 0.714220 0.492660 -0.581975
O2    O     O_R   0.685730 0.742660 0.511730 -0.593261
O3    O     O_R   0.275440 0.478800 0.636790 -0.586323
O4    O     O_R   0.577250 0.507240 0.655860 -0.577942
O5    O     O_R   0.314270 0.257340 0.488270 -0.585888
O6    O     O_R   0.616080 0.285780 0.507340 -0.579035
O7    O     O_R   0.422750 0.492760 0.344140 -0.583481
O8    O     O_R   0.724560 0.521200 0.363210 -0.587710
O9    O     O_3   0.916176 0.299793 0.992921 -0.567993
C21   C     C_3   0.900592 0.135574 0.976643 -0.335542
H12   H     H_    0.999537 0.091938 0.013537 0.155024
H13   H     H_    0.924689 0.103708 0.893616 0.155601
H14   H     H_    0.754914 0.073966 0.012044 0.199132

loop_
_geom_bond_atom_site_label_1
_geom_bond_atom_site_label_2
_ccdc_geom_bond_type
C16   H6    S    
C2    C4    A    
C6    C7    A    
C18   H8    S    
C13   C14   S    
C15   O7    A    
C8    C17   A    
C1    C11   S    
C6    H5    S    
C1    O2    A    
H3    N1    S    
C4    C8    A    
C12   O4    A    
C2    C3    A    
C15   O8    A    
Cu1   O1    S    
C21   H12   S    
O9    C21   S    
C11   C13   D    
Cu1   O5    S    
C10   C12   S    
C10   C18   A    
C14   O6    A    
Cu1   N2    S    
C8    H7    S    
C9    C17   A    
C9    C16   A    
C18   C19   A    
C3    C7    A    
C21   H13   S    
C12   O3    A    
C5    C6    A    
Cu2   N1    S    
C3    C10   A    
Cu2   O6    S    
Cu2   O4    S    
C14   O5    A    
Cu1   O7    S    
H4    N2    S    
C11   H11   S    
C19   O9    S    
C13   H2    S    
N1    N2    D    
C21   H14   S    
C15   C17   S    
C9    H1    S    
C5    C16   A    
C7    H10   S    
Cu1   Cu2   S    
Cu2   O2    S    
C2    C20   A    
Cu2   O8    S    
Cu1   O3    S    
C19   C20   A    
C1    O1    A    
C4    C5    A    
C20   H9    S    
