data_mof_unit_43846.cif
_audit_creation_date              2012-12-11T20:21:53-0500
_audit_creation_method            fapswitch 2.2
_symmetry_space_group_name_H-M    P1
_symmetry_Int_Tables_number       1
_space_group_crystal_system       triclinic
_cell_length_a                    8.300296
_cell_length_b                    17.491747
_cell_length_c                    26.998337
_cell_angle_alpha                 100.020837
_cell_angle_beta                  92.456735
_cell_angle_gamma                 81.15041
_cell_volume                      3813.52765086

loop_
_atom_site_label
_atom_site_type_symbol
_atom_type_description
_atom_site_fract_x
_atom_site_fract_y
_atom_site_fract_z
_atom_type_partial_charge
Ba1   Ba    Ba6+2 0.860160 0.462360 0.521850 1.657584
Ba2   Ba    Ba6+2 0.329680 0.537570 0.478140 1.662402
C1    C     C_3   0.628028 0.211696 0.685064 0.250090
C2    C     C_3   0.632986 0.272987 0.651209 0.277294
C3    C     C_3   0.502924 0.659611 0.635022 0.297762
C4    C     C_3   0.495449 0.688503 0.691574 -0.361626
C5    C     C_3   0.035499 0.699265 0.348282 0.374240
C6    C     C_3   0.035489 0.718863 0.295497 -0.346675
C7    C     C_3   0.530560 0.729795 0.346054 0.841696
C8    C     C_3   0.574018 0.775694 0.305890 -0.354259
C9    C     C_R   0.068479 0.449373 0.180378 0.596282
C10   C     C_R   0.860121 0.559558 0.177420 0.581596
C11   C     C_2   0.742486 0.515300 0.270982 -0.088022
C12   C     C_3   0.129017 0.287989 0.650502 0.336482
C13   C     C_3   0.703535 0.513431 0.325187 -0.064465
C14   C     C_1   0.990374 0.486813 0.342546 0.041731
C15   C     C_2   0.030740 0.487468 0.295406 -0.119635
C16   C     C_2   0.900385 0.502483 0.256026 0.191047
C17   C     C_R   0.023367 0.504402 0.102726 -0.078538
C18   C     C_R   0.115836 0.452419 0.131116 -0.032378
C19   C     C_R   0.258795 0.407281 0.110567 -0.048600
C20   C     C_R   0.895694 0.558862 0.126441 -0.032959
C21   C     C_2   0.848504 0.523230 0.359460 -0.291153
C22   C     C_2   0.344684 0.478915 0.639774 -0.280566
C23   C     C_3   0.125925 0.255192 0.699106 -0.352550
C24   C     C_R   0.231837 0.444089 0.976486 -0.003076
C25   C     C_R   0.997665 0.548886 0.970326 0.017436
C26   C     C_R   0.134774 0.496607 0.948203 0.054196
C27   C     C_R   0.351670 0.385176 0.949469 -0.058488
C28   C     C_R   0.387410 0.387040 0.899597 -0.079746
C29   C     C_R   0.299922 0.441756 0.872729 -0.036128
C30   C     C_R   0.171042 0.495177 0.896457 -0.078151
C31   C     C_R   0.075639 0.546147 0.867938 -0.031745
C32   C     C_R   0.121339 0.549392 0.818527 0.594514
C33   C     C_R   0.333778 0.440979 0.821577 0.584145
C34   C     C_3   0.220635 0.299355 0.411530 0.292470
C35   C     C_2   0.449514 0.487607 0.728382 -0.079803
C36   C     C_3   0.489339 0.489589 0.674143 -0.051785
C37   C     C_1   0.201470 0.513119 0.656768 0.051063
C38   C     C_2   0.161092 0.511132 0.703578 -0.119551
C39   C     C_2   0.291432 0.497998 0.743074 0.192172
C40   C     C_R   0.198689 0.450498 0.029103 0.017527
C41   C     C_R   0.061510 0.503028 0.051132 0.054652
C42   C     C_R   0.966334 0.556120 0.023003 -0.003259
C43   C     C_R   0.303684 0.410171 0.061951 -0.094056
C44   C     C_R   0.812110 0.614934 0.099825 -0.077835
C45   C     C_3   0.244948 0.210076 0.397939 -0.281404
C46   C     C_R   0.890002 0.588092 0.937607 -0.093158
C47   C     C_R   0.932123 0.590371 0.888642 -0.049487
C48   C     C_R   0.849684 0.616545 0.050064 -0.060922
C49   C     C_2   0.449799 0.281601 0.514293 -0.260489
C50   C     C_3   0.386854 0.235155 0.549028 -0.027316
C51   C     C_2   0.443584 0.148558 0.536775 -0.077307
C52   C     C_2   0.560605 0.118424 0.502422 0.015904
C53   C     C_2   0.624663 0.173489 0.473918 -0.105269
C54   C     C_1   0.572066 0.250169 0.483960 0.068445
C55   C     C_R   0.808863 0.866235 0.485488 -0.128245
C56   C     C_3   0.973556 0.703529 0.591546 0.314067
C57   C     C_R   0.858245 0.785009 0.473934 0.001982
C58   C     C_R   0.621749 0.762014 0.515677 0.062292
C59   C     C_R   0.570965 0.843055 0.527110 -0.131575
C60   C     C_R   0.661462 0.895865 0.510960 0.000320
C61   C     C_2   0.629626 0.032929 0.492846 -0.070802
C62   C     C_2   0.598483 0.981092 0.521902 -0.089376
C63   C     C_R   0.761691 0.733429 0.487535 -0.260610
C64   C     C_3   0.956220 0.791965 0.608564 -0.386151
C65   C     C_3   0.723128 0.350844 0.367637 0.309991
C66   C     C_3   0.745288 0.320435 0.311915 -0.346009
H1    H     H_    0.286005 0.183727 0.431638 0.037716
H2    H     H_    0.127742 0.190191 0.384503 0.105409
H3    H     H_    0.852173 0.686592 0.581462 -0.000182
H4    H     H_    0.053287 0.687286 0.558247 0.061886
H5    H     H_    0.876451 0.809791 0.641801 0.131264
H6    H     H_    0.902013 0.823115 0.578202 0.061740
H7    H     H_    0.078025 0.809451 0.618646 0.123701
H8    H     H_    0.842558 0.360310 0.384558 0.025728
H9    H     H_    0.637926 0.406572 0.373555 0.026043
H10   H     H_    0.811651 0.259626 0.305796 0.145287
H11   H     H_    0.816776 0.357487 0.295514 0.065174
H12   H     H_    0.625624 0.320819 0.292583 0.130453
H13   H     H_    0.507465 0.295032 0.640107 -0.061315
H14   H     H_    0.756710 0.189088 0.694950 0.000422
H15   H     H_    0.384108 0.641221 0.621649 0.016846
H16   H     H_    0.601953 0.608832 0.627133 0.052952
H17   H     H_    0.393809 0.737681 0.700373 0.131741
H18   H     H_    0.475000 0.640997 0.711233 0.063367
H19   H     H_    0.611468 0.709157 0.705753 0.136076
H20   H     H_    0.566604 0.240380 0.720900 0.106693
H21   H     H_    0.176567 0.295055 0.730760 0.099594
H22   H     H_    0.131636 0.648128 0.350443 0.097784
H23   H     H_    0.914448 0.683445 0.354765 -0.081943
H24   H     H_    0.158557 0.729480 0.286643 0.155163
H25   H     H_    0.001435 0.669330 0.267527 0.096304
H26   H     H_    0.946304 0.772081 0.292703 0.118866
H27   H     H_    0.643109 0.713094 0.368353 -0.163613
H28   H     H_    0.662830 0.815074 0.321445 0.041926
H29   H     H_    0.461998 0.811634 0.293587 0.116893
H30   H     H_    0.034542 0.340482 0.651972 0.095746
H31   H     H_    0.627338 0.735762 0.272214 0.146265
H32   H     H_    0.157480 0.478899 0.285479 0.156138
H33   H     H_    0.341302 0.372193 0.132983 0.124906
H34   H     H_    0.548886 0.482966 0.755655 0.120783
H35   H     H_    0.482219 0.342980 0.880901 0.126097
H36   H     H_    0.426201 0.383393 0.052348 0.088359
H37   H     H_    0.642728 0.521105 0.243953 0.123582
H38   H     H_    0.719551 0.660270 0.118591 0.127750
H39   H     H_    0.767786 0.614663 0.947991 0.085699
H40   H     H_    0.249654 0.306583 0.648498 -0.041068
H41   H     H_    0.847648 0.624533 0.866212 0.122389
H42   H     H_    0.034461 0.518715 0.713433 0.156747
H43   H     H_    0.837057 0.559019 0.396658 0.066627
H44   H     H_    0.357660 0.444672 0.602149 0.063601
H45   H     H_    0.516334 0.999155 0.553836 0.071106
H46   H     H_    0.715521 0.150322 0.445223 0.074753
H47   H     H_    0.885696 0.905421 0.475142 0.075682
H48   H     H_    0.709316 0.012440 0.460538 0.072958
H49   H     H_    0.391252 0.113118 0.558845 0.093469
H50   H     H_    0.997966 0.250860 0.707899 0.122202
H51   H     H_    0.461954 0.864893 0.549016 0.070812
H52   H     H_    0.397437 0.342732 0.516975 0.065192
H53   H     H_    0.802291 0.670765 0.479664 0.054592
H54   H     H_    0.201346 0.195922 0.695365 0.156612
H55   H     H_    0.338500 0.319678 0.422328 -0.006007
H56   H     H_    0.137733 0.316411 0.444050 0.075091
N1    N     N_R   0.942350 0.503324 0.203773 -0.422712
N2    N     N_R   0.249227 0.496586 0.795200 -0.422332
O1    O     O_2   0.906370 0.542040 0.619810 -0.461078
O2    O     O_3   0.659661 0.295001 0.388363 -0.629280
O3    O     O_3   0.097659 0.230831 0.609076 -0.577768
O4    O     O_2   0.283330 0.457940 0.380160 -0.447585
O5    O     O_3   0.051340 0.457960 0.440360 -0.500836
O6    O     O_3   0.503130 0.601610 0.416130 -0.456577
O7    O     O_3   0.154010 0.332048 0.370055 -0.628557
O8    O     O_3   0.616890 0.595000 0.528820 -0.485009
O9    O     O_3   0.087820 0.642040 0.442240 -0.499187
O10   O     O_2   0.196508 0.778190 0.474236 -0.465824
O11   O     O_3   0.067914 0.764509 0.383434 -0.564437
O12   O     O_3   0.138370 0.541980 0.559630 -0.493444
O13   O     O_3   0.572820 0.404940 0.471170 -0.490347
O14   O     O_2   0.345130 0.693150 0.532000 -0.456161
O15   O     O_3   0.535023 0.721297 0.612318 -0.645242
O16   O     O_2   0.376458 0.539142 0.329598 -0.488717
O17   O     O_3   0.470118 0.663653 0.319928 -0.603991
O18   O     O_2   0.138712 0.397732 0.202102 -0.592891
O19   O     O_2   0.436994 0.389662 0.800349 -0.608734
O20   O     O_2   0.757580 0.611408 0.198525 -0.615877
O21   O     O_2   0.048318 0.600283 0.796691 -0.597955
O22   O     O_3   0.686580 0.398330 0.583860 -0.480754
O23   O     O_2   0.819369 0.456968 0.670265 -0.487272
O24   O     O_3   0.040545 0.667539 0.631573 -0.624555
O25   O     O_3   0.709168 0.333865 0.678110 -0.629103
O26   O     O_2   0.844570 0.306830 0.467970 -0.463295
O27   O     O_3   0.101900 0.357890 0.557750 -0.495760
O28   O     O_2   0.069600 0.214697 0.509804 -0.466944
P1    P     P_3+3 0.071770 0.565500 0.613330 0.997874
P2    P     P_3+3 0.664870 0.318630 0.453960 0.992806
P3    P     P_3+3 0.162133 0.257793 0.554558 0.973279
P4    P     P_3+3 0.117940 0.434440 0.386660 0.994478
P5    P     P_3+3 0.054039 0.743539 0.444110 0.986602
P6    P     P_3+3 0.669820 0.418651 0.650172 0.950706
P7    P     P_3+3 0.530249 0.693945 0.546933 0.958519
P8    P     P_3+3 0.520298 0.581668 0.349735 0.983061
C67   C     C_1   0.727914 0.235539 0.606522 0.297341
N3    N     N_1   0.801890 0.206316 0.571242 -0.239539
C68   C     C_1   0.367149 0.182259 0.358691 0.322966
N4    N     N_1   0.463487 0.160333 0.327726 -0.265676
O29   O     O_3   0.536799 0.152723 0.661181 -0.671475
C69   C     C_3   0.623106 0.076460 0.663367 0.139765
H57   H     H_    0.535234 0.033706 0.656890 0.072371
H58   H     H_    0.682555 0.071235 0.700912 0.036987
H59   H     H_    0.715168 0.060229 0.632915 0.055462
O30   O     O_3   0.404521 0.774124 0.377678 -0.605270
C70   C     C_3   0.452411 0.843788 0.404752 0.181172
H60   H     H_    0.435317 0.891507 0.381165 0.027016
H61   H     H_    0.581398 0.834254 0.418246 -0.008079
H62   H     H_    0.372756 0.863926 0.437875 0.108671
C71   C     C_1   0.431135 0.315850 0.967972 0.257103
N5    N     N_1   0.496791 0.260269 0.982328 -0.272002
C72   C     C_1   0.778279 0.687497 0.031722 0.260113
N6    N     N_1   0.719494 0.744386 0.017354 -0.270303

loop_
_geom_bond_atom_site_label_1
_geom_bond_atom_site_label_2
_ccdc_geom_bond_type
C25   C46   A    
O12   P1    S    
C53   C54   D    
O15   P7    S    
C68   N4    T    
C59   H51   S    
C13   P8    S    
C17   C18   A    
C65   H9    S    
C54   P2    S    
C34   O7    S    
O3    P3    S    
C7    O17   S    
C1    O29   S    
C55   C60   A    
C55   H47   S    
C51   C52   D    
O30   C70   S    
Ba2   O8    S    
C4    H17   S    
C11   C16   D    
C34   C45   S    
C3    C4    S    
Ba2   O13   S    
C9    N1    Am   
C35   C36   S    
O7    P4    S    
C16   N1    S    
C33   O19   D    
C28   C29   A    
C45   C68   S    
C51   H49   S    
C56   H3    S    
C55   C57   A    
C46   H39   S    
C52   C61   S    
C31   C47   A    
C64   H6    S    
C10   C20   A    
C22   C37   D    
Ba1   O26   S    
C15   C16   S    
Ba1   Ba2   S    
O22   P6    S    
C10   O20   D    
Ba1   P1    S    
C45   H1    S    
C60   C62   S    
O10   P5    D    
C57   P5    S    
C25   C42   A    
C56   C64   S    
C69   H59   S    
C2    H13   S    
C67   N3    T    
C14   C15   D    
C22   H44   S    
C28   H35   S    
Ba2   O6    S    
C17   C20   A    
C6    H24   S    
C63   H53   S    
C23   H54   S    
C7    H27   S    
O17   P8    S    
Ba1   O13   S    
Ba2   P4    S    
Ba1   P2    S    
C19   H33   S    
C13   C21   S    
C66   H11   S    
C69   H58   S    
C27   C71   S    
C23   H50   S    
O27   P3    S    
C59   C60   A    
O5    P4    S    
C15   H32   S    
C17   C41   A    
C12   H30   S    
C19   C43   A    
C70   H61   S    
C66   H10   S    
C9    C18   A    
Ba2   O5    S    
O11   P5    S    
C14   P4    S    
C49   C50   S    
Ba2   O12   S    
O26   P2    D    
C26   C30   A    
C49   H52   S    
O9    P5    S    
O28   P3    D    
C11   H37   S    
O1    P1    D    
O29   C69   S    
C5    O11   S    
C3    H16   S    
C38   H42   S    
C10   N1    Am   
O14   P7    D    
C70   H60   S    
C5    H22   S    
C4    H19   S    
C65   C66   S    
C33   N2    Am   
C37   P1    S    
C58   C59   A    
C40   C43   A    
C49   C54   D    
C8    H29   S    
C41   C42   A    
C45   H2    S    
C27   C28   A    
C43   H36   S    
C32   O21   D    
Ba1   O22   S    
C22   C36   S    
C29   C30   A    
C8    H28   S    
C32   N2    Am   
C5    H23   S    
C34   H55   S    
C1    H14   S    
C58   P7    S    
C2    C67   S    
C6    H26   S    
Ba1   O27   S    
C61   H48   S    
C69   H57   S    
C20   C44   A    
C58   C63   A    
C14   C21   D    
O24   P1    S    
C11   C13   S    
C29   C33   A    
C40   C41   A    
C66   H12   S    
Ba1   O8    S    
C37   C38   D    
C50   C51   S    
C24   C40   A    
C47   H41   S    
C7    C8    S    
C70   H62   S    
C42   C48   A    
C50   P3    S    
C2    O25   S    
C52   C53   S    
C46   C47   A    
C62   H45   S    
C34   H56   S    
C1    H20   S    
C24   C26   A    
C39   N2    S    
C3    O15   S    
Ba1   O1    S    
C61   C62   D    
Ba1   O5    S    
O16   P8    D    
C53   H46   S    
C21   H43   S    
C44   C48   A    
C23   H21   S    
Ba2   O9    S    
C4    H18   S    
O8    P7    S    
O4    P4    D    
Ba2   O14   S    
C30   C31   A    
C9    O18   D    
C48   C72   S    
C36   P6    S    
C65   O2    S    
O25   P6    S    
C64   H5    S    
C56   H4    S    
C35   H34   S    
O13   P2    S    
C3    H15   S    
C64   H7    S    
C44   H38   S    
C12   H40   S    
Ba2   O4    S    
C31   C32   A    
C12   C23   S    
C35   C39   D    
C8    H31   S    
O23   P6    D    
O6    P8    S    
C5    C6    S    
O2    P2    S    
C72   N6    T    
C56   O24   S    
C18   C19   A    
C24   C27   A    
C71   N5    T    
C6    H25   S    
C25   C26   A    
C7    O30   S    
C38   C39   S    
C65   H8    S    
C57   C63   A    
Ba1   O12   S    
C1    C2    S    
C12   O3    S    
