data_mof_unit_11085.cif
_audit_creation_date              2012-10-26T19:09:23-0400
_audit_creation_method            fapswitch 2.2
_symmetry_space_group_name_H-M    P1
_symmetry_Int_Tables_number       1
_space_group_crystal_system       triclinic
_cell_length_a                    10.835753
_cell_length_b                    9.472375
_cell_length_c                    19.513694
_cell_angle_alpha                 89.865324
_cell_angle_beta                  90.227699
_cell_angle_gamma                 90.005066
_cell_volume                      2002.87035954

loop_
_atom_site_label
_atom_site_type_symbol
_atom_type_description
_atom_site_fract_x
_atom_site_fract_y
_atom_site_fract_z
_atom_type_partial_charge
C1    C     C_R   0.261921 0.499997 0.499950 0.555755
C2    C     C_R   0.063848 0.628306 0.499989 -0.128885
C3    C     C_R   0.871845 0.500003 0.500058 0.022488
C4    C     C_R   0.128155 0.499997 0.499942 0.022492
C5    C     C_R   0.413939 0.074763 0.463122 0.040878
C6    C     C_R   0.586059 0.925237 0.536879 0.040872
C7    C     C_R   0.586242 0.074346 0.536731 0.034900
C8    C     C_R   0.413754 0.925655 0.463271 0.034891
C9    C     C_R   0.487488 0.628852 0.252041 -0.007819
C10   C     C_R   0.512440 0.371147 0.747956 -0.007812
C11   C     C_R   0.485148 0.629038 0.747517 -0.007607
C12   C     C_R   0.738079 0.500003 0.500050 0.555760
C13   C     C_R   0.514782 0.370960 0.252482 -0.007582
C14   C     C_R   0.485654 0.628138 0.179602 0.003991
C15   C     C_R   0.514288 0.371854 0.820395 0.003942
C16   C     C_R   0.482961 0.628295 0.819976 0.006191
C17   C     C_R   0.517002 0.371703 0.180022 0.006190
C18   C     C_R   0.501173 0.499874 0.144307 -0.053754
C19   C     C_R   0.498805 0.500124 0.855691 -0.053749
C20   C     C_R   0.500868 0.499983 0.289601 -0.081373
C21   C     C_R   0.499074 0.500018 0.710397 -0.081352
C22   C     C_2   0.477514 0.766446 0.287509 0.354663
C23   C     C_R   0.499431 0.500199 0.930909 0.273364
C24   C     C_2   0.522337 0.233553 0.712485 0.354817
C25   C     C_2   0.475705 0.766860 0.711624 0.343488
C26   C     C_2   0.524139 0.233130 0.288372 0.343546
C27   C     C_2   0.469536 0.761682 0.139417 0.324957
C28   C     C_2   0.530348 0.238298 0.860579 0.324803
C29   C     C_2   0.465929 0.761694 0.859742 0.328551
C30   C     C_2   0.534023 0.238298 0.140258 0.328472
C31   C     C_R   0.500552 0.499803 0.069089 0.273368
C32   C     C_R   0.500212 0.500067 0.366800 0.526038
C33   C     C_R   0.499765 0.499934 0.633199 0.526056
C34   C     C_R   0.063823 0.371691 0.499935 -0.122587
C35   C     C_R   0.936177 0.628309 0.500065 -0.122604
C36   C     C_R   0.936152 0.371694 0.500011 -0.128882
Cu1   Cu    Cu3+1 0.500000 0.640660 0.500000 0.966030
Cu2   Cu    Cu3+1 0.500000 0.359340 0.500000 0.966090
H1    H     H_    0.111866 0.271400 0.499877 0.134208
H2    H     H_    0.602160 0.210839 0.681053 0.112450
H3    H     H_    0.398436 0.788247 0.677592 0.136173
H4    H     H_    0.601425 0.211647 0.322377 0.136192
H5    H     H_    0.515752 0.774836 0.090579 0.131113
H6    H     H_    0.484213 0.225214 0.909446 0.131142
H7    H     H_    0.512364 0.775538 0.908644 0.130283
H8    H     H_    0.487641 0.224483 0.091338 0.130295
H9    H     H_    0.888134 0.728599 0.500123 0.134194
H10   H     H_    0.888088 0.271406 0.500025 0.130483
H11   H     H_    0.111912 0.728594 0.499975 0.130486
H12   H     H_    0.345292 0.131362 0.433507 0.132841
H13   H     H_    0.654705 0.868638 0.566496 0.132804
H14   H     H_    0.655532 0.130576 0.565860 0.103812
H15   H     H_    0.344458 0.869426 0.434148 0.103817
H16   H     H_    0.397779 0.789013 0.319030 0.112423
N1    N     N_R   0.500000 0.852070 0.500000 -0.234216
N2    N     N_R   0.500000 0.147930 0.500000 -0.234209
N3    N     N_R   0.603199 0.462314 0.034052 -0.202354
N4    N     N_R   0.396784 0.537687 0.965945 -0.202323
N5    N     N_R   0.602635 0.462487 0.965934 -0.202140
N6    N     N_R   0.397347 0.537514 0.034063 -0.202099
O1    O     O_R   0.319640 0.618740 0.500000 -0.518732
O2    O     O_2   0.440736 0.145485 0.718216 -0.422170
O3    O     O_2   0.555223 0.856695 0.719682 -0.439742
O4    O     O_2   0.444530 0.143391 0.280337 -0.439755
O5    O     O_2   0.401393 0.855839 0.159033 -0.431318
O6    O     O_2   0.598352 0.144038 0.840931 -0.431397
O7    O     O_2   0.396712 0.854897 0.839692 -0.427298
O8    O     O_2   0.603169 0.145048 0.160331 -0.427364
O9    O     O_R   0.680360 0.381260 0.500000 -0.518720
O10   O     O_R   0.680360 0.618740 0.500000 -0.503724
O11   O     O_R   0.319640 0.381260 0.500000 -0.503711
O12   O     O_R   0.499980 0.618820 0.400140 -0.500133
O13   O     O_R   0.500020 0.381180 0.599860 -0.500060
O14   O     O_R   0.500020 0.618820 0.599860 -0.508872
O15   O     O_R   0.499980 0.381180 0.400140 -0.508857
O16   O     O_2   0.558953 0.854681 0.281676 -0.422107

loop_
_geom_bond_atom_site_label_1
_geom_bond_atom_site_label_2
_ccdc_geom_bond_type
C2    C35   A    
C23   N4    A    
Cu1   O14   S    
C14   C18   A    
C5    N2    A    
C28   O6    D    
C22   O16   D    
C6    N1    A    
C12   O9    A    
C35   H9    S    
C32   O15   A    
C22   H16   S    
C23   N5    A    
C1    O11   A    
C7    H14   S    
C10   C15   A    
C9    C22   S    
N3    N5    A    
C21   C33   S    
C11   C25   S    
N4    N6    A    
C25   O3    D    
C26   O4    D    
C3    C12   S    
C15   C19   A    
C14   C27   S    
Cu2   O9    S    
C29   O7    D    
Cu1   O10   S    
C17   C30   S    
C7    N2    A    
C8    N1    A    
Cu2   O15   S    
C10   C21   A    
C4    C34   A    
C34   H1    S    
C32   O12   A    
C25   H3    S    
C19   C23   S    
C10   C24   S    
C16   C29   S    
C11   C21   A    
C29   H7    S    
C31   N6    A    
C2    C4    A    
C9    C14   A    
Cu1   Cu2   S    
C27   O5    D    
C2    H11   S    
C11   C16   A    
C9    C20   A    
C3    C35   A    
C17   C18   A    
C33   O13   A    
C6    H13   S    
C13   C26   S    
C26   H4    S    
C20   C32   S    
C12   O10   A    
Cu2   O11   S    
C24   O2    D    
C13   C20   A    
C30   H8    S    
C1    O1    A    
C8    H15   S    
C5    C8    A    
Cu1   O1    S    
C6    C7    A    
C13   C17   A    
C1    C4    S    
C31   N3    A    
C15   C28   S    
C3    C36   A    
C16   C19   A    
C24   H2    S    
C28   H6    S    
C36   H10   S    
C34   C36   A    
C5    H12   S    
Cu1   N1    S    
C27   H5    S    
C33   O14   A    
Cu2   N2    S    
Cu1   O12   S    
C18   C31   S    
C30   O8    D    
Cu2   O13   S    
