data_mof_unit_33982.cif
_audit_creation_date              2013-03-05T15:55:31-0500
_audit_creation_method            fapswitch 2.2
_symmetry_space_group_name_H-M    P1
_symmetry_Int_Tables_number       1
_space_group_crystal_system       triclinic
_cell_length_a                    20.249507
_cell_length_b                    7.255256
_cell_length_c                    13.60591
_cell_angle_alpha                 90.013152
_cell_angle_beta                  103.295857
_cell_angle_gamma                 89.990011
_cell_volume                      1945.33709635

loop_
_atom_site_label
_atom_site_type_symbol
_atom_site_description
_atom_site_fract_x
_atom_site_fract_y
_atom_site_fract_z
_atom_type_partial_charge
O1    O     O_R   0.449560 0.506810 0.599700 -0.594812
O2    O     O_R   0.550440 0.006810 0.400300 -0.595025
O3    O     O_R   0.587960 0.180060 0.595760 -0.577012
O4    O     O_R   0.412040 0.680060 0.404240 -0.576963
C1    C     C_R   0.615151 0.345085 0.616677 0.940913
C2    C     C_R   0.384848 0.845097 0.383325 0.941298
O5    O     O_R   0.452380 0.177430 0.611700 -0.586677
O6    O     O_R   0.547620 0.677430 0.388300 -0.586823
O7    O     O_R   0.413900 0.001890 0.416350 -0.560585
O8    O     O_R   0.586100 0.501890 0.583650 -0.560661
C3    C     C_R   0.436844 0.345480 0.637722 0.951902
C4    C     C_R   0.563142 0.845441 0.362264 0.951844
O9    O     O_3   0.487530 0.337490 0.435890 -0.274370
O10   O     O_3   0.512470 0.837490 0.564110 -0.274381
V1    V     V_3+5 0.502310 0.064660 0.511890 1.243291
V2    V     V_3+5 0.497690 0.564660 0.488110 1.243302
C5    C     C_R   0.605827 0.764384 0.113914 -0.144632
C6    C     C_R   0.394178 0.265192 0.886144 -0.144457
H1    H     H_    0.514017 0.768291 0.166384 0.108892
H2    H     H_    0.486005 0.269406 0.833717 0.108811
H3    H     H_    0.578893 0.718185 0.039847 0.132767
H4    H     H_    0.421148 0.219514 0.960289 0.132721
C7    C     C_R   0.600460 0.849148 0.282702 -0.105672
C8    C     C_R   0.399498 0.349282 0.717260 -0.105742
C9    C     C_R   0.924450 0.929005 0.305798 -0.218031
C10   C     C_R   0.075374 0.426755 0.693873 -0.211376
C11   C     C_R   0.888208 0.963987 0.379144 0.109104
C12   C     C_R   0.111458 0.459247 0.620054 0.103821
C13   C     C_R   0.818196 0.938046 0.356220 -0.139661
C14   C     C_R   0.181551 0.434826 0.643204 -0.136594
C15   C     C_R   0.782640 0.870467 0.260818 0.037761
C16   C     C_R   0.217246 0.369140 0.738944 0.038546
C17   C     C_R   0.820537 0.825248 0.187388 0.064601
C18   C     C_R   0.179420 0.324695 0.812553 0.065103
C19   C     C_R   0.710555 0.847302 0.236731 0.054402
C20   C     C_R   0.289371 0.346807 0.763145 0.054424
C21   C     C_R   0.677015 0.784273 0.138972 0.151635
C22   C     C_R   0.322967 0.284527 0.861025 0.151832
C23   C     C_R   0.714582 0.732136 0.069022 -0.072413
C24   C     C_R   0.285440 0.232510 0.931039 -0.072281
C25   C     C_R   0.785855 0.744102 0.094507 -0.076588
C26   C     C_R   0.214157 0.244187 0.905558 -0.076138
C27   C     C_R   0.670346 0.880258 0.307579 -0.173329
C28   C     C_R   0.329575 0.379856 0.692307 -0.172302
C29   C     C_R   0.568179 0.794209 0.185624 -0.195947
C30   C     C_R   0.431814 0.294917 0.814415 -0.195947
C31   C     C_R   0.891923 0.863852 0.210198 -0.166294
C32   C     C_R   0.108033 0.363283 0.789755 -0.166054
H5    H     H_    0.691664 0.919873 0.384536 0.151942
H6    H     H_    0.308251 0.419326 0.615340 0.151920
H7    H     H_    0.978445 0.957818 0.322266 0.115322
H8    H     H_    0.021353 0.455250 0.677367 0.114972
H9    H     H_    0.793380 0.974422 0.415391 0.145330
H10   H     H_    0.206293 0.470628 0.583878 0.146229
C33   C     C_R   0.205991 0.003718 0.251979 -0.306928
C34   C     C_R   0.794009 0.503619 0.747994 -0.307322
H11   H     H_    0.172463 0.118756 0.255470 0.168178
H12   H     H_    0.827541 0.618593 0.744468 0.170655
C35   C     C_R   0.270914 0.004134 0.316468 0.409973
C36   C     C_R   0.729088 0.504003 0.683495 0.408260
C37   C     C_R   0.315921 0.854976 0.314741 -0.303539
C38   C     C_R   0.684077 0.354931 0.685262 -0.303798
C39   C     C_R   0.293799 0.709490 0.247217 -0.176227
C40   C     C_R   0.706189 0.209534 0.752829 -0.175843
H13   H     H_    0.327383 0.594811 0.243335 0.169475
H14   H     H_    0.672596 0.094921 0.756738 0.169344
C41   C     C_R   0.228737 0.709198 0.182952 0.068710
C42   C     C_R   0.771247 0.209265 0.817112 0.069634
C43   C     C_R   0.183793 0.857446 0.184826 -0.187137
C44   C     C_R   0.816199 0.357441 0.815193 -0.188036
O11   O     O_R   0.913920 0.203370 0.916260 -0.575891
O12   O     O_R   0.086080 0.703370 0.083740 -0.576487
O13   O     O_R   0.047620 0.535540 0.888290 -0.592455
O14   O     O_R   0.952380 0.035540 0.111710 -0.594396
C45   C     C_R   0.067169 0.368639 0.866461 0.947856
C46   C     C_R   0.932826 0.868719 0.133535 0.947749
O15   O     O_R   0.912040 0.532780 0.904220 -0.604951
O16   O     O_R   0.087960 0.032780 0.095780 -0.605553
O17   O     O_R   0.949550 0.708160 0.099720 -0.584846
O18   O     O_R   0.050450 0.208160 0.900280 -0.583970
C47   C     C_R   0.885434 0.364496 0.883198 0.929746
C48   C     C_R   0.114564 0.864495 0.116809 0.929525
O19   O     O_3   0.012480 0.375300 0.064060 -0.289849
O20   O     O_3   0.987520 0.875300 0.935940 -0.287328
V3    V     V_3+5 0.997690 0.648180 0.988110 1.165452
V4    V     V_3+5 0.002310 0.148180 0.011890 1.163756
N1    N     N_R   0.288808 0.154167 0.385694 0.225021
O21   O     O_R   0.255458 0.178343 0.455761 -0.449271
O22   O     O_R   0.325429 0.288544 0.363805 -0.419581
N2    N     N_R   0.711196 0.653896 0.614206 0.225285
O23   O     O_R   0.744346 0.677405 0.543853 -0.445385
O24   O     O_R   0.674735 0.788642 0.636158 -0.419409
N3    N     N_3   0.209155 0.557800 0.115336 -0.195554
H15   H     H_    0.213343 0.438286 0.159225 0.124158
H16   H     H_    0.243757 0.548585 0.069136 0.087189
N4    N     N_3   0.790815 0.057984 0.884798 -0.195461
H17   H     H_    0.786664 0.938374 0.840966 0.124838
H18   H     H_    0.756185 0.048860 0.930955 0.086759
N5    N     N_3   0.679846 0.659381 0.972533 -0.221889
H19   H     H_    0.690966 0.741298 0.915262 0.110832
H20   H     H_    0.696315 0.524751 0.964847 0.112422
N6    N     N_3   0.320230 0.160192 0.027593 -0.221872
H21   H     H_    0.309055 0.242248 0.084792 0.110668
H22   H     H_    0.303853 0.025534 0.035404 0.112561
N7    N     N_3   0.921555 0.031291 0.477304 -0.203061
H23   H     H_    0.974007 0.038483 0.484180 0.106919
H24   H     H_    0.904870 0.166279 0.483510 0.111302
N8    N     N_3   0.078059 0.525520 0.521713 -0.208106
H25   H     H_    0.026140 0.543082 0.516851 0.106557
H26   H     H_    0.082435 0.423159 0.469470 0.121136
N9    N     N_3   0.822810 0.656453 0.029793 -0.173997
H27   H     H_    0.807224 0.708313 0.956770 0.108152
H28   H     H_    0.812738 0.515052 0.028494 0.109746
N10   N     N_3   0.177249 0.156580 0.970323 -0.173899
H29   H     H_    0.192796 0.208644 0.043313 0.107853
H30   H     H_    0.187419 0.015221 0.971726 0.110413

loop_
_geom_bond_atom_site_label_1
_geom_bond_atom_site_label_2
_geom_bond_distance
_ccdc_geom_bond_type
C14   C16   1.418982 A    
N1    O21   1.300641 A    
C39   H13   1.083452 S    
N3    H15   1.045253 S    
C7    C29   1.390498 A    
C33   C35   1.402744 A    
C11   C13   1.392576 A    
N9    H27   1.041260 S    
O1    C3    1.328772 A    
C46   O17   1.324622 A    
O2    C4    1.328730 A    
C2    O7    1.311670 A    
O12   V3    1.996420 S    
C23   C25   1.407337 A    
O5    C3    1.327328 A    
C14   H10   1.075269 S    
C4    C7    1.455980 S    
C42   N4    1.429079 S    
O14   C46   1.328261 A    
C16   C20   1.430554 A    
C2    C37   1.491613 S    
C19   C21   1.422627 A    
C5    C29   1.386336 A    
C31   C46   1.473989 S    
C11   N7    1.436365 S    
C3    C8    1.456081 S    
C7    C27   1.395686 A    
N8    H25   1.045885 S    
C36   C38   1.418279 A    
C37   C39   1.403313 A    
C44   C47   1.492523 S    
O18   V4    2.031495 S    
C43   C48   1.492500 S    
N2    O24   1.300422 A    
C26   N10   1.429122 S    
C34   H12   1.083694 S    
C18   C26   1.424095 A    
N4    H18   1.045528 S    
C38   C40   1.403347 A    
C15   C17   1.430786 A    
C19   C27   1.417798 A    
C45   O18   1.324395 A    
C9    C31   1.398185 A    
C10   C32   1.398085 A    
O16   V4    2.025147 S    
C24   C26   1.407362 A    
O15   V3    2.025183 S    
O6    V2    2.041607 S    
O13   C45   1.328522 A    
C32   C45   1.473969 S    
C6    C30   1.386377 A    
N10   H29   1.041197 S    
C39   C41   1.403713 A    
C35   C37   1.418365 A    
O20   V3    1.787380 S    
O4    C2    1.321269 A    
C27   H5    1.075783 S    
O5    V1    2.041216 S    
C5    H3    1.082816 S    
C34   C36   1.402738 A    
C41   C43   1.412833 A    
C16   C18   1.430657 A    
O4    V2    2.025049 S    
C9    H7    1.084793 S    
C10   H8    1.084777 S    
O11   V4    1.996419 S    
N7    H24   1.045668 S    
O16   C48   1.338594 A    
C23   N5    1.439432 S    
N5    H19   1.045022 S    
O15   C47   1.338642 A    
O6    C4    1.327293 A    
N4    H17   1.045244 S    
N9    H28   1.045358 S    
O1    V2    2.027871 S    
C5    C21   1.410324 A    
O14   V4    2.041336 S    
N6    H22   1.045050 S    
O2    V1    2.027656 S    
O13   V3    2.040945 S    
C33   C43   1.404948 A    
C42   C44   1.412890 A    
N5    H20   1.045048 S    
O12   C48   1.335032 A    
C34   C44   1.404976 A    
C33   H11   1.083704 S    
C17   C31   1.434599 A    
C15   C19   1.430500 A    
C20   C28   1.417842 A    
C18   C32   1.434536 A    
C40   C42   1.403756 A    
O17   V3    2.031274 S    
O3    V1    2.025081 S    
C28   H6    1.075739 S    
C6    H4    1.082811 S    
O3    C1    1.321238 A    
N10   H30   1.045351 S    
H1    C29   1.083874 S    
C36   N2    1.430366 S    
C9    C11   1.391241 A    
N7    H23   1.045901 S    
C10   C12   1.391385 A    
C8    C30   1.390492 A    
C20   C22   1.422670 A    
C6    C22   1.410341 A    
C17   C25   1.424225 A    
C1    O8    1.311741 A    
C21   C23   1.400111 A    
O8    V2    2.007926 S    
C22   C24   1.400195 A    
N2    O23   1.300621 A    
N3    H16   1.045524 S    
C13   H9    1.075288 S    
C12   N8    1.436267 S    
C8    C28   1.395731 A    
C12   C14   1.392635 A    
N8    H26   1.045640 S    
C1    C38   1.491607 S    
O7    V1    2.007936 S    
N6    H21   1.045004 S    
C35   N1    1.430389 S    
C24   N6    1.439425 S    
O19   V4    1.787147 S    
C13   C15   1.419022 A    
C25   N9    1.429073 S    
O9    V2    1.787729 S    
C41   N3    1.429002 S    
N1    O22   1.300420 A    
O10   V1    1.787963 S    
H2    C30   1.083871 S    
C40   H14   1.083453 S    
O11   C47   1.335040 A    
