data_mof_unit_38988.cif
_audit_creation_date              2012-12-11T14:56:20-0500
_audit_creation_method            fapswitch 2.2
_symmetry_space_group_name_H-M    P1
_symmetry_Int_Tables_number       1
_space_group_crystal_system       triclinic
_cell_length_a                    10.523575
_cell_length_b                    10.740672
_cell_length_c                    17.02486
_cell_angle_alpha                 80.287094
_cell_angle_beta                  89.931843
_cell_angle_gamma                 119.040192
_cell_volume                      1650.55524417

loop_
_atom_site_label
_atom_site_type_symbol
_atom_type_description
_atom_site_fract_x
_atom_site_fract_y
_atom_site_fract_z
_atom_type_partial_charge
C1    C     C_R   0.222674 0.854493 0.128557 0.560025
C2    C     C_1   0.637731 0.312226 0.704950 0.012553
C3    C     C_R   0.643535 0.690830 0.821298 0.102484
C4    C     C_R   0.608719 0.205178 0.102082 0.590196
C5    C     C_R   0.624311 0.671792 0.742364 0.071777
C6    C     C_R   0.706275 0.789235 0.679476 -0.005461
C7    C     C_R   0.809252 0.925151 0.698064 0.328320
C8    C     C_R   0.816163 0.946720 0.777163 0.119266
C9    C     C_R   0.715128 0.832899 0.836537 -0.023009
C10   C     C_R   0.284984 0.986573 0.741690 0.065428
C11   C     C_R   0.274376 0.950844 0.666627 0.346158
C12   C     C_R   0.718931 0.243871 0.308635 0.378558
C13   C     C_R   0.168509 0.813246 0.658685 -0.022374
C14   C     C_R   0.102003 0.700129 0.726330 0.050627
C15   C     C_R   0.144240 0.729021 0.801102 0.325538
C16   C     C_R   0.640874 0.858406 0.125111 0.533090
C17   C     C_R   0.236174 0.872622 0.809669 -0.039779
C18   C     C_R   0.685878 0.810218 0.357597 0.571709
C19   C     C_R   0.680988 0.382044 0.399966 0.605330
C20   C     C_R   0.104370 0.810481 0.359553 0.544676
C21   C     C_R   0.703192 0.763535 0.596739 0.593402
C22   C     C_R   0.675820 0.376219 0.623187 0.608008
C23   C     C_R   0.709656 0.211476 0.232960 0.374314
C24   C     C_R   0.100226 0.800754 0.585370 0.598053
C25   C     C_R   0.281777 0.900550 0.888081 0.567639
C26   C     C_R   0.614703 0.222438 0.858819 0.545216
C27   C     C_R   0.651381 0.863737 0.902463 0.534840
C28   C     C_R   0.500574 0.247845 0.218034 -0.208758
C29   C     C_R   0.513511 0.288224 0.292741 0.044260
C30   C     C_R   0.631155 0.297393 0.335831 0.002146
C31   C     C_3   0.013464 0.448401 0.723860 -0.230916
C32   C     C_3   0.416131 0.452210 0.278664 -0.235262
C33   C     C_3   0.683334 0.569137 0.944362 -0.244068
C34   C     C_R   0.606617 0.222573 0.185175 -0.067855
C35   C     C_3   0.373323 0.545642 0.718144 -0.271769
C36   C     C_3   0.999620 0.087358 0.864201 -0.251339
C37   C     C_3   0.258251 0.200224 0.692666 -0.214828
C38   C     C_1   0.668865 0.849025 0.205395 0.004353
C39   C     C_1   0.679715 0.839708 0.275086 0.009924
C40   C     C_1   0.181157 0.826160 0.211269 -0.032257
C41   C     C_1   0.152196 0.820237 0.280067 -0.028366
C42   C     C_1   0.624712 0.269095 0.775385 -0.047945
Cr1   Cr    Cr6+3 0.402240 0.783890 0.019450 1.051728
Cr2   Cr    Cr6+3 0.382360 0.097900 0.991800 0.981126
Cr3   Cr    Cr6+3 0.715380 0.118170 0.988700 1.061526
Cr4   Cr    Cr6+3 0.936650 0.882420 0.465510 1.145411
Cr5   Cr    Cr6+3 0.605770 0.565620 0.493360 1.052800
Cr6   Cr    Cr6+3 0.921340 0.550490 0.496380 1.085179
F1    F     F_    0.343290 0.056777 0.600468 -0.615864
F2    F     F_    0.080673 0.619390 0.866066 -0.620063
F3    F     F_    0.821683 0.232300 0.352670 -0.563084
F4    F     F_    0.805995 0.175310 0.205278 -0.586134
F5    F     F_    0.897357 0.039927 0.639532 -0.630259
H1    H     H_    0.412463 0.244759 0.184084 0.172963
H2    H     H_    0.478181 0.527959 0.906058 0.277826
H3    H     H_    0.789187 0.592375 0.915236 0.198483
H4    H     H_    0.635063 0.462207 0.984360 0.202730
H5    H     H_    0.702345 0.651238 0.981376 0.132015
H6    H     H_    0.493550 0.447743 0.763410 0.275483
H7    H     H_    0.324636 0.501495 0.664681 0.153374
H8    H     H_    0.390435 0.658081 0.709490 0.161071
H9    H     H_    0.296919 0.480814 0.772721 0.119443
H10   H     H_    0.975243 0.167586 0.747291 0.272020
H11   H     H_    0.116884 0.137752 0.845412 0.134684
H12   H     H_    0.892437 0.535243 0.761812 0.281494
H13   H     H_    0.963790 0.977061 0.899676 0.165726
H14   H     H_    0.987379 0.154583 0.903215 0.168742
H15   H     H_    0.333666 0.159507 0.801540 0.270538
H16   H     H_    0.224884 0.262528 0.724303 0.077138
H17   H     H_    0.158780 0.119167 0.670037 0.232901
H18   H     H_    0.338435 0.275739 0.641466 0.223543
H19   H     H_    0.913002 0.346485 0.719993 0.172698
H20   H     H_    0.091733 0.474139 0.672052 0.144631
H21   H     H_    0.057309 0.429727 0.781202 0.174379
H22   H     H_    0.305778 0.235023 0.332155 0.281589
H23   H     H_    0.372481 0.434033 0.219773 0.144150
H24   H     H_    0.530310 0.543000 0.268912 0.159148
H25   H     H_    0.349049 0.482432 0.313057 0.177158
N1    N     N_2   0.979581 0.564018 0.721292 -0.470602
N2    N     N_2   0.410508 0.322134 0.323141 -0.472544
N3    N     N_2   0.584994 0.567114 0.884570 -0.505191
N4    N     N_2   0.508008 0.540934 0.726418 -0.488673
N5    N     N_2   0.917523 0.084633 0.795185 -0.498982
N6    N     N_2   0.323712 0.132026 0.746358 -0.517740
O1    O     O_R   0.521780 0.757110 0.108900 -0.535692
O2    O     O_R   0.805020 0.410040 0.421340 -0.438677
O3    O     O_R   0.049240 0.685450 0.403290 -0.495710
O4    O     O_R   0.275160 0.783810 0.101120 -0.476598
O5    O     O_R   0.077520 0.903010 0.551800 -0.451533
O6    O     O_R   0.802980 0.872780 0.546830 -0.409775
O7    O     O_R   0.578090 0.681300 0.569920 -0.496051
O8    O     O_R   0.608530 0.436370 0.586530 -0.498854
O9    O     O_R   0.798770 0.401880 0.597100 -0.496275
O10   O     O_R   0.043450 0.677890 0.566230 -0.500289
O11   O     O_3   0.821250 0.666180 0.485090 -0.327035
O12   O     O_R   0.513330 0.228330 0.898660 -0.523917
O13   O     O_R   0.237900 0.972600 0.090980 -0.515034
O14   O     O_R   0.511190 0.220540 0.061620 -0.536735
O15   O     O_R   0.736920 0.257720 0.063840 -0.430629
O16   O     O_R   0.710450 0.984050 0.081720 -0.470167
O17   O     O_R   0.524090 0.765520 0.933110 -0.521185
O18   O     O_R   0.277300 0.791600 0.938160 -0.407226
O19   O     O_R   0.240210 0.981010 0.915190 -0.546809
O20   O     O_R   0.739230 0.266130 0.888050 -0.477261
O21   O     O_R   0.712580 0.991850 0.918770 -0.505416
O22   O     O_3   0.499990 0.999980 0.999980 -0.328403
O23   O     O_R   0.083770 0.911170 0.376030 -0.504714
O24   O     O_R   0.808770 0.880340 0.383890 -0.447099
O25   O     O_R   0.584340 0.689460 0.394160 -0.533316
O26   O     O_R   0.614320 0.443940 0.423590 -0.472065

loop_
_geom_bond_atom_site_label_1
_geom_bond_atom_site_label_2
_ccdc_geom_bond_type
C33   H5    S    
H12   N1    S    
Cr6   O11   S    
C37   H16   S    
C8    N5    S    
Cr5   O8    S    
C18   O25   A    
C19   O2    A    
C24   O5    A    
C20   C41   S    
C36   H14   S    
C7    C8    A    
Cr4   O5    S    
C12   C23   A    
C26   C42   S    
Cr6   O10   S    
Cr2   O12   S    
Cr1   O4    S    
C28   C29   A    
C4    O14   A    
C38   C39   T    
C36   H13   S    
C25   O18   A    
C31   H20   S    
C27   O21   A    
C36   N5    S    
C20   O3    A    
Cr5   O11   S    
C15   F2    S    
C1    C40   S    
C26   O20   A    
C32   H24   S    
Cr2   O14   S    
Cr2   O19   S    
Cr4   O11   S    
C8    C9    A    
Cr4   O24   S    
C3    N3    S    
H6    N4    S    
C37   N6    S    
H2    N3    S    
H22   N2    S    
C20   O23   A    
C1    O4    A    
C28   C34   A    
C13   C14   A    
C35   N4    S    
Cr3   O21   S    
C21   O6    A    
C26   O12   A    
C4    C34   S    
Cr6   O9    S    
Cr1   O1    S    
C11   F1    S    
Cr3   O15   S    
C1    O13   A    
C28   H1    S    
C16   O16   A    
C31   H21   S    
Cr5   O25   S    
C6    C21   S    
C27   O17   A    
C13   C24   S    
H10   N5    S    
C35   H7    S    
Cr1   O22   S    
H15   N6    S    
C18   C39   S    
Cr1   O17   S    
C2    C22   S    
C29   C30   A    
C3    C9    A    
Cr3   O20   S    
C24   O10   A    
C32   N2    S    
Cr2   O13   S    
C23   C34   A    
Cr4   O23   S    
Cr6   O3    S    
C35   H8    S    
C14   N1    S    
C31   H19   S    
C37   H18   S    
C16   O1    A    
C22   O9    A    
Cr6   O2    S    
C7    F5    S    
C12   F3    S    
Cr3   O22   S    
C9    C27   S    
C21   O7    A    
C19   O26   A    
C15   C17   A    
C40   C41   T    
C33   H4    S    
C12   C30   A    
Cr5   O7    S    
C25   O19   A    
C3    C5    A    
Cr3   O16   S    
C32   H23   S    
C31   N1    S    
C6    C7    A    
Cr4   O6    S    
Cr2   O22   S    
Cr5   O26   S    
C17   C25   S    
Cr1   O18   S    
C5    N4    S    
C11   C13   A    
C33   H3    S    
C23   F4    S    
C5    C6    A    
C29   N2    S    
C2    C42   T    
C10   N6    S    
C35   H9    S    
C18   O24   A    
C10   C11   A    
C32   H25   S    
C4    O15   A    
C22   O8    A    
C14   C15   A    
C10   C17   A    
C36   H11   S    
C19   C30   S    
C33   N3    S    
C37   H17   S    
C16   C38   S    
