data_mof_unit_35727.cif
_audit_creation_date              2013-03-05T16:01:16-0500
_audit_creation_method            fapswitch 2.2
_symmetry_space_group_name_H-M    P1
_symmetry_Int_Tables_number       1
_space_group_crystal_system       triclinic
_cell_length_a                    14.66162
_cell_length_b                    14.769106
_cell_length_c                    17.250402
_cell_angle_alpha                 105.659072
_cell_angle_beta                  73.484117
_cell_angle_gamma                 115.094667
_cell_volume                      3194.88641892

loop_
_atom_site_label
_atom_site_type_symbol
_atom_site_description
_atom_site_fract_x
_atom_site_fract_y
_atom_site_fract_z
_atom_type_partial_charge
O1    O     O_R   0.020090 0.662480 0.528530 -0.551963
O2    O     O_R   0.979910 0.337520 0.471470 -0.544815
O3    O     O_R   0.160710 0.620650 0.491980 -0.562547
O4    O     O_R   0.839290 0.379350 0.508020 -0.568108
C1    C     C_R   0.118977 0.687560 0.516450 0.824382
C2    C     C_R   0.880409 0.311886 0.488457 0.840583
O5    O     O_R   0.921540 0.523360 0.633990 -0.553831
O6    O     O_R   0.078460 0.476640 0.366010 -0.556987
O7    O     O_R   0.062170 0.481520 0.597440 -0.576946
O8    O     O_R   0.937830 0.518480 0.402560 -0.566469
C3    C     C_R   0.987743 0.499089 0.652213 0.875890
C4    C     C_R   0.008442 0.494698 0.347614 0.868589
Cu1   Cu    Cu3+1 0.916740 0.524770 0.521640 1.000687
Cu2   Cu    Cu3+1 0.083260 0.475230 0.478360 1.004508
C5    C     C_R   0.976332 0.486988 0.736465 -0.246207
C6    C     C_R   0.005939 0.489128 0.262842 -0.261970
C7    C     C_R   0.007596 0.416542 0.752526 0.346130
C8    C     C_R   0.911460 0.437035 0.236390 0.343773
C9    C     C_R   0.987777 0.400707 0.833595 0.217954
C10   C     C_R   0.899726 0.456295 0.165393 0.252551
C11   C     C_R   0.945151 0.461650 0.898408 -0.168398
C12   C     C_R   0.986261 0.518489 0.115916 -0.150862
C13   C     C_R   0.914148 0.531543 0.881822 0.470595
C14   C     C_R   0.082482 0.563595 0.139725 0.474426
C15   C     C_R   0.930702 0.543912 0.801208 -0.331682
C16   C     C_R   0.090929 0.550937 0.214280 -0.349201
C17   C     C_2   0.933663 0.451950 0.983227 -0.059287
C18   C     C_2   0.979664 0.532006 0.036546 -0.056395
H1    H     H_    0.162616 0.592541 0.235793 0.180191
H2    H     H_    0.907658 0.598420 0.789232 0.191270
H3    H     H_    0.023938 0.605448 0.017335 0.190722
H4    H     H_    0.899680 0.376203 0.998501 0.195098
C19   C     C_R   0.185741 0.791064 0.545308 -0.134049
C20   C     C_R   0.812061 0.203442 0.482096 -0.117182
C21   C     C_R   0.219952 0.929276 0.659422 -0.194084
C22   C     C_R   0.785281 0.030415 0.415121 -0.176152
C23   C     C_R   0.151254 0.843263 0.620178 -0.281378
C24   C     C_R   0.849066 0.131788 0.428167 -0.286247
C25   C     C_R   0.290420 0.826149 0.508622 0.389400
C26   C     C_R   0.709527 0.171963 0.527019 0.397573
C27   C     C_R   0.363073 0.906272 0.552727 -0.051202
C28   C     C_R   0.643987 0.066625 0.516835 -0.047402
C29   C     C_R   0.325698 0.962951 0.625861 -0.007316
C30   C     C_R   0.682675 0.997344 0.456551 0.010432
C31   C     C_R   0.471139 0.933032 0.525651 -0.004948
C32   C     C_R   0.539355 0.028110 0.559393 -0.032129
C33   C     C_R   0.500274 0.079381 0.634419 -0.233476
C34   C     C_R   0.513548 0.864939 0.470370 -0.216968
C35   C     C_R   0.394927 0.050340 0.665804 0.415657
C36   C     C_R   0.618347 0.895177 0.438325 0.399429
H5    H     H_    0.927069 0.154810 0.393393 0.195872
H6    H     H_    0.071917 0.813925 0.650654 0.209002
H7    H     H_    0.190133 0.965875 0.718465 0.186558
H8    H     H_    0.816364 0.978123 0.370594 0.192033
H9    H     H_    0.550409 0.142029 0.670751 0.227020
H10   H     H_    0.467539 0.785670 0.454271 0.213865
N1    N     N_R   0.208390 0.438070 0.445820 -0.214305
N2    N     N_R   0.791610 0.561930 0.554180 -0.219149
C37   C     C_R   0.297028 0.332457 0.359910 -0.415347
C38   C     C_R   0.699462 0.663437 0.642187 -0.424944
C39   C     C_R   0.211791 0.361186 0.381421 0.717402
C40   C     C_R   0.786221 0.636720 0.620348 0.694420
C41   C     C_R   0.286880 0.491342 0.487093 -0.079511
C42   C     C_R   0.718751 0.516625 0.506733 -0.109048
C43   C     C_R   0.375171 0.466511 0.466899 -0.020150
C44   C     C_R   0.628713 0.538819 0.528053 -0.031220
C45   C     C_R   0.378771 0.385682 0.401408 0.090654
C46   C     C_R   0.621292 0.614418 0.597154 0.103926
C47   C     C_R   0.458468 0.517350 0.509930 0.092389
C48   C     C_R   0.545780 0.488319 0.484467 0.075876
C49   C     C_R   0.545878 0.408089 0.417866 -0.225078
C50   C     C_R   0.456410 0.594797 0.578550 -0.263570
C51   C     C_R   0.463663 0.357608 0.377728 -0.147592
C52   C     C_R   0.536087 0.641857 0.621194 -0.192665
H11   H     H_    0.466663 0.295661 0.327423 0.158290
H12   H     H_    0.530671 0.700476 0.673955 0.149136
H13   H     H_    0.733046 0.463512 0.453006 0.177227
H14   H     H_    0.277676 0.552096 0.535464 0.144179
H15   H     H_    0.300581 0.268851 0.311980 0.148014
H16   H     H_    0.691365 0.722514 0.693317 0.157192
H17   H     H_    0.607725 0.380851 0.395925 0.164373
H18   H     H_    0.393594 0.620489 0.601965 0.134201
O9    O     O_3   0.050377 0.357605 0.688524 -0.524657
C53   C     C_3   0.157608 0.395701 0.684816 0.138973
H19   H     H_    0.177043 0.405263 0.745148 0.147408
H20   H     H_    0.195328 0.470421 0.663976 0.123213
C54   C     C_3   0.201866 0.321520 0.624111 -0.752042
H21   H     H_    0.183024 0.308403 0.563069 0.252327
H22   H     H_    0.286637 0.352630 0.617937 0.184760
H23   H     H_    0.169194 0.247953 0.646209 0.255418
O10   O     O_3   0.826850 0.375270 0.284256 -0.554279
C55   C     C_3   0.835353 0.280324 0.271964 0.103927
H24   H     H_    0.892461 0.286342 0.305829 0.122520
H25   H     H_    0.858437 0.251206 0.205623 0.152201
C56   C     C_3   0.731711 0.202946 0.304121 -0.760427
H26   H     H_    0.673675 0.193856 0.270030 0.270870
H27   H     H_    0.737876 0.128446 0.296082 0.208817
H28   H     H_    0.706087 0.228343 0.370169 0.213147
O11   O     O_3   0.871352 0.688040 0.658333 -0.567972
C57   C     C_3   0.853073 0.744394 0.737852 -0.012389
H29   H     H_    0.907157 0.746708 0.772728 0.175790
H30   H     H_    0.775328 0.707635 0.774113 0.133868
C58   C     C_3   0.876284 0.854693 0.734279 -0.788203
H31   H     H_    0.839767 0.859767 0.688307 0.247333
H32   H     H_    0.847717 0.892603 0.795503 0.229260
H33   H     H_    0.960234 0.896567 0.717558 0.241736
O12   O     O_3   0.126786 0.310576 0.343727 -0.580353
C59   C     C_3   0.149643 0.274738 0.258329 0.022262
H34   H     H_    0.075639 0.237781 0.236626 0.165653
H35   H     H_    0.180157 0.213915 0.244620 0.137180
C60   C     C_3   0.218692 0.360071 0.208894 -0.832414
H36   H     H_    0.297312 0.395226 0.222264 0.241660
H37   H     H_    0.224203 0.328783 0.142279 0.222118
H38   H     H_    0.185850 0.419188 0.223491 0.263105
O13   O     O_3   0.871149 0.591333 0.944488 -0.583709
C61   C     C_3   0.763473 0.539100 0.963861 0.164365
H39   H     H_    0.736825 0.567902 0.029077 0.210330
H40   H     H_    0.739785 0.455507 0.958506 0.157229
C62   C     C_3   0.708795 0.560925 0.911939 -0.891342
H41   H     H_    0.723284 0.523273 0.847214 0.245663
H42   H     H_    0.624716 0.531072 0.936006 0.223471
H43   H     H_    0.735943 0.644019 0.914425 0.255834
O14   O     O_3   0.167414 0.625731 0.092550 -0.584553
C63   C     C_3   0.222625 0.567771 0.037230 0.085587
H44   H     H_    0.248192 0.594037 0.977280 0.170494
H45   H     H_    0.176574 0.484531 0.024874 0.169132
C64   C     C_3   0.317743 0.585611 0.067802 -0.822453
H46   H     H_    0.295299 0.554176 0.124993 0.238287
H47   H     H_    0.365270 0.547256 0.020573 0.214161
H48   H     H_    0.364200 0.668172 0.080019 0.261920
N3    N     N_R   0.798931 0.418046 0.146950 0.140534
O15   O     O_R   0.737748 0.324066 0.150312 -0.354396
O16   O     O_R   0.765119 0.479342 0.132906 -0.387313
N4    N     N_R   0.012133 0.323432 0.849380 0.125310
O17   O     O_R   0.987391 0.233771 0.803947 -0.319964
O18   O     O_R   0.066966 0.344845 0.904134 -0.427661
O19   O     O_3   0.361360 0.108443 0.736593 -0.574618
C65   C     C_3   0.325806 0.172266 0.715205 0.034407
H49   H     H_    0.247216 0.129572 0.702052 0.157807
H50   H     H_    0.375998 0.206012 0.660150 0.132906
C66   C     C_3   0.321424 0.258102 0.786781 -0.722473
H51   H     H_    0.398748 0.302868 0.802110 0.235073
H52   H     H_    0.294593 0.309044 0.770205 0.208548
H53   H     H_    0.267259 0.226653 0.841449 0.266748
O20   O     O_3   0.655401 0.826493 0.381434 -0.582922
C67   C     C_3   0.675449 0.769656 0.423922 0.024019
H54   H     H_    0.603756 0.725322 0.462920 0.165008
H55   H     H_    0.733045 0.820186 0.463037 0.149445
C68   C     C_3   0.718637 0.695447 0.362042 -0.687099
H56   H     H_    0.788820 0.737149 0.320482 0.246998
H57   H     H_    0.738978 0.653325 0.394544 0.205313
H58   H     H_    0.660624 0.640301 0.325073 0.262933
O21   O     O_3   0.678773 0.244289 0.584717 -0.584047
C69   C     C_3   0.614766 0.271717 0.555504 0.073007
H59   H     H_    0.547029 0.205512 0.536953 0.125813
H60   H     H_    0.656961 0.309401 0.501444 0.152856
C70   C     C_3   0.577151 0.344817 0.624156 -0.769619
H61   H     H_    0.642749 0.415721 0.638995 0.257420
H62   H     H_    0.520751 0.362655 0.605819 0.198701
H63   H     H_    0.540607 0.310779 0.680597 0.248915
O22   O     O_3   0.320372 0.780030 0.429983 -0.590257
C71   C     C_3   0.316595 0.831023 0.373311 0.051218
H64   H     H_    0.359928 0.914540 0.387276 0.142213
H65   H     H_    0.235430 0.816006 0.373450 0.139838
C72   C     C_3   0.365422 0.791797 0.287816 -0.740832
H66   H     H_    0.326189 0.708236 0.272504 0.246487
H67   H     H_    0.358969 0.827812 0.241868 0.207612
H68   H     H_    0.447884 0.810243 0.285189 0.256156

loop_
_geom_bond_atom_site_label_1
_geom_bond_atom_site_label_2
_geom_bond_distance
_ccdc_geom_bond_type
N2    C40   1.367962 A    
C44   C46   1.410757 A    
C54   H21   1.110196 S    
C41   C43   1.417361 A    
C70   H61   1.108204 S    
C35   O19   1.385871 S    
C21   H7    1.082023 S    
C51   H11   1.084375 S    
C42   H13   1.074625 S    
C56   H26   1.110363 S    
C53   C54   1.521628 S    
O22   C71   1.410533 S    
C56   H28   1.106990 S    
O14   C63   1.416435 S    
C33   C35   1.396687 A    
C31   C32   1.417542 A    
C59   H34   1.110693 S    
C9    N4    1.439784 S    
O5    C3    1.303419 A    
C72   H66   1.109930 S    
C52   H12   1.084458 S    
O9    C53   1.415745 S    
O1    C1    1.302701 A    
C8    O10   1.384621 S    
C33   H9    1.077599 S    
C9    C11   1.409742 A    
C14   C16   1.394404 A    
C71   H64   1.115806 S    
C68   H57   1.109515 S    
O20   C67   1.411429 S    
C5    C15   1.395392 A    
C46   C52   1.393180 A    
O13   C61   1.416082 S    
C67   C68   1.521332 S    
C61   H39   1.109931 S    
C38   C40   1.410216 A    
C28   C32   1.435554 A    
O4    Cu1   1.941126 S    
C55   H24   1.112287 S    
C37   C45   1.397011 A    
C3    C5    1.465896 S    
C58   H32   1.110192 S    
C4    C6    1.452463 S    
C61   H40   1.116394 S    
C43   C45   1.412689 A    
C1    C19   1.462808 S    
O12   C59   1.418275 S    
C48   C49   1.410531 A    
C45   C51   1.394700 A    
C25   O22   1.383205 S    
C21   C29   1.406173 A    
C69   H60   1.105565 S    
C26   C28   1.433512 A    
C11   C17   1.463659 S    
C72   H67   1.110422 S    
C12   C18   1.470735 S    
Cu1   Cu2   2.690237 S    
C6    C16   1.393644 A    
C27   C29   1.420756 A    
C60   H38   1.107492 S    
O2    C2    1.306058 A    
C66   H51   1.110219 S    
C28   C30   1.425731 A    
O2    Cu2   1.950523 S    
C57   H30   1.112797 S    
N1    C41   1.358560 A    
C67   H55   1.114853 S    
C62   H42   1.110500 S    
N2    C42   1.361586 A    
C37   C39   1.407345 A    
C61   C62   1.527110 S    
C53   H19   1.113310 S    
C69   C70   1.521758 S    
C25   C27   1.421059 A    
C66   H53   1.110632 S    
C37   H15   1.080076 S    
O10   C55   1.414081 S    
C49   C51   1.386304 A    
C23   H6    1.079325 S    
C29   C35   1.406115 A    
N4    O18   1.301261 A    
C24   H5    1.083326 S    
N3    O16   1.300511 A    
C65   C66   1.521437 S    
C14   O14   1.383003 S    
C19   C23   1.392801 A    
C2    C20   1.479076 S    
C7    O9    1.385873 S    
C42   C44   1.418193 A    
C70   H62   1.109839 S    
C47   C50   1.410136 A    
O7    Cu2   1.970813 S    
C64   H47   1.110457 S    
C71   C72   1.521022 S    
O11   C57   1.417774 S    
O6    C4    1.299542 A    
C55   H25   1.116571 S    
C60   H37   1.110312 S    
C19   C25   1.405255 A    
C34   C36   1.390756 A    
O7    C3    1.293238 A    
C69   H59   1.110360 S    
O3    Cu2   1.941127 S    
O8    C4    1.290114 A    
C63   C64   1.524425 S    
C68   H58   1.110808 S    
C36   O20   1.383549 S    
C50   C52   1.383039 A    
C10   C12   1.414533 A    
C72   H68   1.110917 S    
C11   C13   1.409049 A    
C65   H50   1.113087 S    
C12   C14   1.409695 A    
C26   O21   1.383640 S    
C22   C30   1.402265 A    
O4    C2    1.297098 A    
O1    Cu1   1.950522 S    
C55   C56   1.520763 S    
C10   N3    1.437527 S    
C7    C9    1.408087 A    
C64   H46   1.109143 S    
C17   C18   1.337175 D    
C63   H45   1.117571 S    
C67   H54   1.112708 S    
C31   C34   1.408171 A    
C30   C36   1.403766 A    
C15   H2    1.079402 S    
C34   H10   1.078844 S    
Cu2   N1    2.020972 S    
C32   C33   1.412122 A    
C38   H16   1.079919 S    
O6    Cu2   1.965231 S    
C60   H36   1.109205 S    
C21   C23   1.387330 A    
C17   H4    1.086680 S    
C20   C24   1.395833 A    
C18   H3    1.087296 S    
C53   H20   1.111901 S    
O3    C1    1.292279 A    
O8    Cu1   1.970813 S    
C62   H41   1.109588 S    
C56   H27   1.110378 S    
N1    C39   1.364392 A    
N4    O17   1.301265 A    
Cu1   N2    2.020972 S    
C70   H63   1.107664 S    
O19   C65   1.417838 S    
C59   C60   1.532171 S    
C66   H52   1.110730 S    
C64   H48   1.110666 S    
C71   H65   1.113615 S    
C68   H56   1.110641 S    
C44   C48   1.431061 A    
C43   C47   1.429339 A    
C22   C24   1.384531 A    
C57   H29   1.108615 S    
C62   H43   1.110550 S    
C59   H35   1.108643 S    
C58   H33   1.108799 S    
C8    C10   1.399929 A    
C57   C58   1.531455 S    
C47   C48   1.435177 A    
C39   O12   1.393905 S    
C22   H8    1.083246 S    
C65   H49   1.109908 S    
C13   O13   1.383926 S    
C40   O11   1.398647 S    
O5    Cu1   1.965230 S    
C13   C15   1.390581 A    
C38   C46   1.392812 A    
C16   H1    1.082050 S    
C6    C8    1.408840 A    
C54   H23   1.110676 S    
C58   H31   1.108450 S    
C54   H22   1.110835 S    
C27   C31   1.425653 A    
C20   C26   1.419817 A    
O21   C69   1.414295 S    
C5    C7    1.414810 A    
C50   H18   1.075888 S    
N3    O15   1.300906 A    
C63   H44   1.110558 S    
C49   H17   1.076762 S    
C41   H14   1.074288 S    
