data_mof_unit_18853.cif
_audit_creation_date              2013-03-05T15:55:32-0500
_audit_creation_method            fapswitch 2.2
_symmetry_space_group_name_H-M    P1
_symmetry_Int_Tables_number       1
_space_group_crystal_system       triclinic
_cell_length_a                    20.169784
_cell_length_b                    7.289141
_cell_length_c                    13.754274
_cell_angle_alpha                 90.00453
_cell_angle_beta                  103.23899
_cell_angle_gamma                 89.999807
_cell_volume                      1968.41651007

loop_
_atom_site_label
_atom_site_type_symbol
_atom_site_description
_atom_site_fract_x
_atom_site_fract_y
_atom_site_fract_z
_atom_type_partial_charge
O1    O     O_R   0.449560 0.506810 0.599700 -0.584702
O2    O     O_R   0.550440 0.006810 0.400300 -0.584742
O3    O     O_R   0.587960 0.180060 0.595760 -0.540181
O4    O     O_R   0.412040 0.680060 0.404240 -0.540139
C1    C     C_R   0.615510 0.343176 0.616038 0.946973
C2    C     C_R   0.384477 0.843165 0.384004 0.947120
O5    O     O_R   0.452380 0.177430 0.611700 -0.596500
O6    O     O_R   0.547620 0.677430 0.388300 -0.596528
O7    O     O_R   0.413900 0.001890 0.416350 -0.590062
O8    O     O_R   0.586100 0.501890 0.583650 -0.589983
C3    C     C_R   0.436082 0.345315 0.636142 0.941228
C4    C     C_R   0.563913 0.845314 0.363856 0.941326
O9    O     O_3   0.487530 0.337490 0.435890 -0.267437
O10   O     O_3   0.512470 0.837490 0.564110 -0.267444
V1    V     V_3+5 0.502310 0.064660 0.511890 1.267596
V2    V     V_3+5 0.497690 0.564660 0.488110 1.267657
C5    C     C_R   0.606114 0.870554 0.114124 -0.114923
C6    C     C_R   0.393791 0.367362 0.885906 -0.114887
H1    H     H_    0.513812 0.870927 0.166073 0.117367
H2    H     H_    0.486137 0.367487 0.834071 0.117313
H3    H     H_    0.685705 0.910465 0.990043 0.186544
H4    H     H_    0.314225 0.405869 0.010126 0.186743
H5    H     H_    0.579058 0.884096 0.036699 0.126637
H6    H     H_    0.420845 0.379150 0.963424 0.126666
C7    C     C_R   0.602786 0.851573 0.287297 -0.086404
C8    C     C_R   0.397168 0.351473 0.712662 -0.086422
C9    C     C_R   0.930794 0.830574 0.312674 0.027241
C10   C     C_R   0.069056 0.333297 0.686984 0.024379
C11   C     C_R   0.894771 0.804459 0.386959 -0.123569
C12   C     C_R   0.105035 0.310434 0.612393 -0.122306
C13   C     C_R   0.824014 0.806726 0.364229 -0.153838
C14   C     C_R   0.175795 0.311586 0.635164 -0.154205
C15   C     C_R   0.785999 0.838194 0.265774 0.077783
C16   C     C_R   0.213870 0.339622 0.733927 0.077678
C17   C     C_R   0.822083 0.864641 0.188598 -0.094177
C18   C     C_R   0.177816 0.364203 0.811295 -0.094563
C19   C     C_R   0.713093 0.845555 0.241832 0.082755
C20   C     C_R   0.286798 0.345866 0.757970 0.082843
C21   C     C_R   0.677520 0.864309 0.140658 0.113614
C22   C     C_R   0.322373 0.362296 0.859276 0.113557
C23   C     C_R   0.713107 0.886578 0.066625 -0.293653
C24   C     C_R   0.286800 0.383463 0.933412 -0.293605
C25   C     C_R   0.783658 0.896404 0.089753 0.333665
C26   C     C_R   0.216266 0.394119 0.910317 0.333726
C27   C     C_R   0.673872 0.840190 0.314804 -0.217890
C28   C     C_R   0.326057 0.341412 0.685025 -0.218036
C29   C     C_R   0.568919 0.864220 0.187270 -0.176210
C30   C     C_R   0.431015 0.361919 0.812777 -0.176186
C31   C     C_R   0.895042 0.858989 0.213205 -0.173451
C32   C     C_R   0.104852 0.359040 0.786676 -0.170636
H7    H     H_    0.696675 0.831784 0.393582 0.140632
H8    H     H_    0.303298 0.334317 0.606201 0.140838
H9    H     H_    0.800606 0.780705 0.425801 0.127658
H10   H     H_    0.199132 0.287786 0.573300 0.127550
H11   H     H_    0.921726 0.780244 0.463527 0.113682
H12   H     H_    0.078033 0.288793 0.535599 0.111960
C33   C     C_R   0.216148 0.020430 0.227251 -0.102210
C34   C     C_R   0.783718 0.520477 0.773166 -0.098779
H13   H     H_    0.193812 0.153599 0.206699 0.190514
H14   H     H_    0.805954 0.653653 0.794037 0.190213
C35   C     C_R   0.281484 0.012977 0.289503 -0.135069
C36   C     C_R   0.718387 0.513019 0.710896 -0.135785
H15   H     H_    0.307271 0.138543 0.314656 0.238899
H16   H     H_    0.692515 0.638579 0.686002 0.238955
C37   C     C_R   0.313813 0.845453 0.318807 -0.311884
C38   C     C_R   0.686153 0.345485 0.681302 -0.312116
C39   C     C_R   0.276706 0.682295 0.286737 0.410653
C40   C     C_R   0.723326 0.182349 0.713167 0.412340
C41   C     C_R   0.210837 0.690461 0.226112 -0.185760
C42   C     C_R   0.789224 0.190538 0.773703 -0.191301
H17   H     H_    0.183830 0.563370 0.204515 0.187052
H18   H     H_    0.816319 0.063499 0.795033 0.186607
C43   C     C_R   0.180619 0.858647 0.192240 -0.161678
C44   C     C_R   0.819364 0.358688 0.807817 -0.160445
O11   O     O_R   0.913920 0.203370 0.916260 -0.549037
O12   O     O_R   0.086080 0.703370 0.083740 -0.547556
O13   O     O_R   0.047620 0.535540 0.888290 -0.576244
O14   O     O_R   0.952380 0.035540 0.111710 -0.582165
C45   C     C_R   0.064580 0.368319 0.863589 0.970877
C46   C     C_R   0.935347 0.868315 0.136326 0.973491
O15   O     O_R   0.912040 0.532780 0.904220 -0.590267
O16   O     O_R   0.087960 0.032780 0.095780 -0.590930
O17   O     O_R   0.949550 0.708160 0.099720 -0.581402
O18   O     O_R   0.050450 0.208160 0.900280 -0.588887
C47   C     C_R   0.886728 0.364859 0.880352 0.978727
C48   C     C_R   0.113276 0.864857 0.119646 0.979214
O19   O     O_3   0.012480 0.375300 0.064060 -0.282665
O20   O     O_3   0.987520 0.875300 0.935940 -0.285085
V3    V     V_3+5 0.997690 0.648180 0.988110 1.260447
V4    V     V_3+5 0.002310 0.148180 0.011890 1.254583
N1    N     N_R   0.305164 0.505689 0.313258 0.219536
O21   O     O_R   0.302659 0.435143 0.399238 -0.473370
O22   O     O_R   0.343135 0.430869 0.259379 -0.419530
N2    N     N_R   0.694862 0.005734 0.686676 0.219570
O23   O     O_R   0.697589 0.934786 0.600870 -0.473244
O24   O     O_R   0.656678 0.931316 0.740352 -0.419735
N3    N     N_3   0.004064 0.824342 0.337214 -0.228096
H19   H     H_    0.022525 0.791263 0.412547 0.108787
H20   H     H_    0.021659 0.956502 0.327535 0.086817
N4    N     N_3   0.995762 0.329618 0.662174 -0.231584
H21   H     H_    0.977118 0.324613 0.584735 0.107203
H22   H     H_    0.980452 0.207815 0.690711 0.094428
N5    N     N_R   0.813538 0.968772 0.014158 0.222627
O25   O     O_R   0.806060 0.143087 0.995254 -0.422319
O26   O     O_R   0.827566 0.859068 0.947183 -0.437358
N6    N     N_R   0.186505 0.466044 0.986162 0.222348
O27   O     O_R   0.194414 0.640084 0.005787 -0.423049
O28   O     O_R   0.172208 0.355802 0.052709 -0.436389

loop_
_geom_bond_atom_site_label_1
_geom_bond_atom_site_label_2
_geom_bond_distance
_ccdc_geom_bond_type
C34   C36   1.398548 A    
C38   C40   1.420504 A    
O12   C48   1.343946 A    
C9    C11   1.395769 A    
O1    C3    1.331671 A    
O2    C4    1.331586 A    
C32   C45   1.475483 S    
C2    O7    1.329545 A    
N3    H19   1.045813 S    
O3    V1    2.027256 S    
C21   C23   1.383203 A    
O14   V4    2.051050 S    
O5    C3    1.330095 A    
O13   V3    2.050960 S    
C5    H5    1.084187 S    
O18   V4    2.042874 S    
C6    H6    1.084177 S    
C45   O18   1.328442 A    
H1    C29   1.083687 S    
C33   H13   1.080187 S    
N6    O27   1.299181 A    
C27   H7    1.077543 S    
C34   H14   1.080217 S    
C28   H8    1.077437 S    
C35   H15   1.070262 S    
C5    C21   1.403134 A    
C33   C43   1.406391 A    
C41   H17   1.081200 S    
C6    C22   1.403156 A    
C36   H16   1.070236 S    
O11   V4    1.999084 S    
O19   V4    1.797243 S    
C10   C32   1.408257 A    
O11   C47   1.344004 A    
C2    C37   1.500145 S    
C37   C39   1.420499 A    
C42   C44   1.400440 A    
C13   C15   1.413781 A    
C41   C43   1.400522 A    
C12   C14   1.389366 A    
C17   C25   1.421296 A    
C7    C29   1.391944 A    
C16   C18   1.430984 A    
C8    C30   1.391924 A    
O12   V3    1.999041 S    
O15   V3    2.027361 S    
C10   N4    1.439275 S    
O5    V1    2.051232 S    
O6    V2    2.051321 S    
C23   C25   1.387055 A    
C24   C26   1.387046 A    
C46   O17   1.328288 A    
C14   H10   1.076610 S    
N3    H20   1.045627 S    
O13   C45   1.330908 A    
O17   V3    2.042822 S    
C36   C38   1.399420 A    
O4    C2    1.314986 A    
N1    O21   1.301133 A    
C11   H11   1.083335 S    
C3    C8    1.450568 S    
O16   C48   1.337897 A    
C12   H12   1.083353 S    
C40   N2    1.422608 S    
C39   C41   1.398760 A    
C14   C16   1.413854 A    
O4    V2    2.027328 S    
C17   C31   1.433048 A    
N1    O22   1.301181 A    
O6    C4    1.330122 A    
C39   N1    1.422619 S    
N5    O26   1.298971 A    
O1    V2    2.039239 S    
C13   H9    1.076696 S    
N2    O24   1.301139 A    
O2    V1    2.039188 S    
H2    C30   1.083683 S    
H3    C23   1.085661 S    
C18   C26   1.421316 A    
C19   C27   1.413633 A    
C7    C27   1.399042 A    
C18   C32   1.433039 A    
C34   C44   1.406401 A    
C15   C19   1.432458 A    
N4    H22   1.045597 S    
C9    N3    1.439274 S    
C16   C20   1.432579 A    
C5    C29   1.386670 A    
C1    C38   1.500156 S    
O3    C1    1.314988 A    
C6    C30   1.386683 A    
C33   C35   1.398547 A    
C26   N6    1.417817 S    
O16   V4    2.027429 S    
C31   C46   1.475574 S    
C4    C7    1.450466 S    
C10   C12   1.395692 A    
O7    V1    2.010629 S    
C1    O8    1.329567 A    
C11   C13   1.389389 A    
O8    V2    2.010669 S    
C20   C22   1.418724 A    
H4    C24   1.085648 S    
N6    O28   1.299100 A    
C22   C24   1.383260 A    
N4    H21   1.045822 S    
C15   C17   1.430926 A    
O14   C46   1.331086 A    
C44   C47   1.490844 S    
N2    O23   1.301145 A    
C25   N5    1.417621 S    
C43   C48   1.490911 S    
C20   C28   1.413723 A    
C8    C28   1.399040 A    
C35   C37   1.399438 A    
C19   C21   1.418681 A    
O20   V3    1.797346 S    
C40   C42   1.398777 A    
O9    V2    1.797831 S    
N5    O25   1.298797 A    
O10   V1    1.797934 S    
C42   H18   1.081110 S    
O15   C47   1.337818 A    
C9    C31   1.408139 A    
