data_mof_unit_30715.cif
_audit_creation_date              2012-12-11T14:06:42-0500
_audit_creation_method            fapswitch 2.2
_symmetry_space_group_name_H-M    P1
_symmetry_Int_Tables_number       1
_space_group_crystal_system       triclinic
_cell_length_a                    6.927436
_cell_length_b                    17.290691
_cell_length_c                    24.120047
_cell_angle_alpha                 104.586008
_cell_angle_beta                  90.508386
_cell_angle_gamma                 89.987178
_cell_volume                      2795.87310612

loop_
_atom_site_label
_atom_site_type_symbol
_atom_type_description
_atom_site_fract_x
_atom_site_fract_y
_atom_site_fract_z
_atom_type_partial_charge
O1    O     O_R   0.494290 0.391990 0.999150 -0.542172
O2    O     O_R   0.827170 0.534410 0.082350 -0.506611
O3    O     O_R   0.994360 0.608010 0.000850 -0.540311
C1    C     C_R   0.658882 0.549944 0.106153 0.786686
O4    O     O_R   0.824210 0.388010 0.004470 -0.548053
O5    O     O_R   0.991370 0.460560 0.922410 -0.505698
C2    C     C_R   0.654524 0.354882 0.001475 0.772515
O6    O     O_R   0.497270 0.539440 0.077590 -0.546988
O7    O     O_3   0.659770 0.523970 0.973170 -0.359353
V1    V     V_3+5 0.935840 0.495550 0.004980 1.552353
O8    O     O_R   0.320910 0.465590 0.917650 -0.540298
C3    C     C_R   0.151060 0.450553 0.893851 0.749624
O9    O     O_R   0.323870 0.611990 0.995530 -0.552145
C4    C     C_R   0.154397 0.645119 0.998530 0.764751
V2    V     V_3+5 0.435470 0.504450 0.995020 1.497844
O10   O     O_3   0.161670 0.476030 0.026830 -0.366602
C5    C     C_2   0.142741 0.730274 0.998113 -0.326941
H1    H     H_    0.277085 0.761126 0.994752 0.149643
C6    C     C_2   0.972814 0.769770 0.002028 -0.329216
H2    H     H_    0.838471 0.738918 0.005391 0.148563
C7    C     C_R   0.138720 0.251281 0.624031 0.582561
N1    N     N_R   0.104067 0.330652 0.648039 -0.561180
C8    C     C_R   0.053770 0.381054 0.614550 0.663369
C9    C     C_R   0.034184 0.352002 0.554419 -0.161007
C10   C     C_R   0.068861 0.270469 0.529277 -0.088930
C11   C     C_R   0.122412 0.219716 0.564372 0.000879
C12   C     C_R   0.981127 0.402199 0.519015 0.600509
C13   C     C_R   0.962208 0.372068 0.459454 -0.185357
C14   C     C_R   0.996363 0.289778 0.433499 -0.152800
C15   C     C_R   0.050174 0.239354 0.469062 -0.010874
C16   C     C_R   0.085927 0.157473 0.444605 -0.012271
C17   C     C_R   0.139248 0.107789 0.480149 -0.151074
C18   C     C_R   0.157175 0.138482 0.539225 -0.133501
C19   C     C_R   0.980038 0.255454 0.373438 0.681457
N2    N     N_R   0.016439 0.175886 0.350828 -0.539065
C20   C     C_R   0.068192 0.126960 0.384994 0.625854
O11   O     O_2   0.186511 0.202684 0.657839 -0.512382
O12   O     O_2   0.024081 0.459141 0.639445 -0.446642
O13   O     O_2   0.928906 0.300685 0.337638 -0.489548
O14   O     O_2   0.102704 0.048867 0.361264 -0.503215
H3    H     H_    0.167421 0.044811 0.462430 0.173630
H4    H     H_    0.198416 0.098183 0.565126 0.176696
C21   C     C_R   0.826326 0.115700 0.263560 -0.127214
H5    H     H_    0.698920 0.117894 0.289536 0.208696
C22   C     C_R   0.812902 0.085332 0.204010 -0.164187
H6    H     H_    0.673901 0.064722 0.185106 0.161170
C23   C     C_R   0.977345 0.081518 0.169467 -0.150568
C24   C     C_R   0.155072 0.108978 0.196129 -0.267260
H7    H     H_    0.284428 0.107404 0.170986 0.155591
C25   C     C_R   0.167756 0.139874 0.255566 0.682822
C26   C     C_R   0.003489 0.143350 0.289629 0.253400
C27   C     C_R   0.951373 0.391042 0.741039 -0.158496
H8    H     H_    0.814159 0.391081 0.719166 0.150110
C28   C     C_R   0.961500 0.420597 0.800623 0.582998
C29   C     C_R   0.138448 0.420704 0.830258 -0.187527
C30   C     C_R   0.303856 0.391079 0.798333 -0.250570
H9    H     H_    0.441668 0.389711 0.819536 0.213945
C31   C     C_R   0.292966 0.361751 0.738682 -0.065863
H10   H     H_    0.422054 0.339289 0.715055 0.147527
C32   C     C_R   0.116488 0.361338 0.709576 0.278361
C33   C     C_R   0.559616 0.874978 0.614839 0.574067
N3    N     N_R   0.501722 0.825957 0.648330 -0.564785
C34   C     C_R   0.460861 0.746868 0.624351 0.605122
C35   C     C_R   0.479166 0.714203 0.564750 -0.045488
C36   C     C_R   0.539064 0.763618 0.529902 -0.009087
C37   C     C_R   0.579251 0.844912 0.555117 -0.026094
C38   C     C_R   0.441118 0.633211 0.539575 -0.106429
C39   C     C_R   0.461649 0.600778 0.480480 -0.061556
C40   C     C_R   0.520362 0.650131 0.444417 -0.086828
C41   C     C_R   0.559408 0.731892 0.469870 -0.015968
C42   C     C_R   0.619501 0.782385 0.435513 -0.040775
C43   C     C_R   0.658547 0.863358 0.461219 -0.127858
C44   C     C_R   0.638732 0.894193 0.520203 -0.148132
C45   C     C_R   0.541800 0.621676 0.384024 0.644873
N4    N     N_R   0.600457 0.671981 0.351595 -0.534260
C46   C     C_R   0.639316 0.750834 0.376110 0.661856
O15   O     O_2   0.597418 0.952732 0.639158 -0.512765
O16   O     O_2   0.405014 0.699610 0.658087 -0.493986
H11   H     H_    0.396108 0.594387 0.566096 0.194454
O17   O     O_2   0.503574 0.544733 0.357576 -0.484939
O18   O     O_2   0.697175 0.798673 0.343011 -0.492335
H12   H     H_    0.704864 0.903339 0.435812 0.180152
H13   H     H_    0.670509 0.956854 0.538331 0.171502
C47   C     C_R   0.467070 0.651428 0.253823 0.717423
C48   C     C_R   0.480982 0.621098 0.194483 -0.321480
H14   H     H_    0.360466 0.629756 0.167778 0.199910
C49   C     C_R   0.648581 0.581279 0.169709 -0.267263
C50   C     C_R   0.802977 0.572304 0.206225 0.584245
C51   C     C_R   0.787815 0.601743 0.266089 -0.229568
C52   C     C_R   0.619008 0.641507 0.290191 0.137598
C53   C     C_R   0.309400 0.865814 0.737240 -0.073812
H15   H     H_    0.178399 0.848649 0.712372 0.123431
C54   C     C_R   0.298011 0.896416 0.796845 -0.188696
H16   H     H_    0.157524 0.901803 0.816756 0.127723
C55   C     C_R   0.466353 0.918931 0.830267 -0.058051
C56   C     C_R   0.645857 0.910444 0.802303 -0.190220
H17   H     H_    0.778607 0.927108 0.826378 0.131259
C57   C     C_R   0.656754 0.880356 0.742806 -0.076716
H18   H     H_    0.796392 0.874260 0.722351 0.119933
C58   C     C_R   0.488927 0.857572 0.709758 0.375472
C59   C     C_2   0.642855 0.269717 0.001893 -0.326059
H19   H     H_    0.777400 0.238840 0.005256 0.150130
C60   C     C_2   0.472651 0.230244 0.997977 -0.332242
H20   H     H_    0.338105 0.261122 0.994617 0.148540
O19   O     O_R   0.618210 0.960470 0.922400 -0.541254
O20   O     O_R   0.291310 0.111960 0.995450 -0.545982
O21   O     O_R   0.124210 0.039530 0.077580 -0.540278
C61   C     C_R   0.460990 0.145089 0.998423 0.777580
O22   O     O_R   0.288310 0.965490 0.917650 -0.543517
O23   O     O_R   0.121180 0.892010 0.999220 -0.536039
C62   C     C_R   0.456630 0.949868 0.893843 0.705526
O24   O     O_R   0.621230 0.107990 0.000760 -0.535735
O25   O     O_3   0.455770 0.976060 0.026840 -0.371297
V3    V     V_3+5 0.179680 0.004440 0.995020 1.421753
O26   O     O_R   0.791670 0.888040 0.004570 -0.546099
C63   C     C_R   0.961149 0.854914 0.001581 0.774088
O27   O     O_R   0.794680 0.034510 0.082370 -0.543622
C64   C     C_R   0.964369 0.050195 0.106074 0.745471
V4    V     V_3+5 0.680070 0.995560 0.005010 1.424494
O28   O     O_3   0.953840 0.023940 0.973160 -0.374053
F1    F     F_    0.339755 0.167192 0.280055 -0.679074
F2    F     F_    0.798171 0.449964 0.828864 -0.688718
C65   C     C_1   0.423903 0.516204 0.459316 0.457413
N5    N     N_1   0.394357 0.448396 0.442603 -0.310375
F3    F     F_    0.305109 0.690997 0.276041 -0.650317
F4    F     F_    0.966725 0.533783 0.184032 -0.659012
C66   C     C_1   0.946374 0.591109 0.302621 0.580769
N6    N     N_1   0.073316 0.582667 0.332023 -0.256871
F5    F     F_    0.947436 0.481284 0.542020 -0.647216
C67   C     C_1   0.910166 0.428511 0.426692 0.551760
N7    N     N_1   0.869031 0.474013 0.400703 -0.279333

loop_
_geom_bond_atom_site_label_1
_geom_bond_atom_site_label_2
_ccdc_geom_bond_type
C49   C50   A    
C59   H19   S    
C19   O13   S    
C55   C56   A    
C9    C12   A    
C1    O6    A    
C65   N5    T    
C1    C49   S    
C22   H6    S    
N3    C34   A    
O20   V3    S    
C18   H4    S    
C13   C14   A    
O22   C62   A    
N1    C32   S    
C15   C16   A    
C31   C32   A    
O26   C63   A    
C10   C15   A    
C30   H9    S    
C19   N2    A    
C50   F4    S    
C27   C32   A    
N4    C52   S    
O25   V4    S    
O8    V2    S    
C33   C37   A    
C23   C64   S    
N2    C20   A    
C33   O15   S    
C39   C40   A    
C56   C57   A    
C17   H3    S    
C41   C42   A    
O1    V2    S    
C53   C58   A    
O7    V1    S    
O23   V3    S    
O21   C64   A    
C48   C49   A    
O19   C62   A    
C59   C60   D    
C45   O17   S    
O9    C4    A    
C4    C5    S    
C33   N3    A    
C25   F1    S    
C47   C52   A    
C39   C65   S    
C7    C11   A    
C27   C28   A    
C5    H1    S    
C16   C20   A    
C22   C23   A    
C45   N4    A    
C38   C39   A    
C35   C38   A    
C20   O14   S    
C38   H11   S    
C9    C10   A    
C53   H15   S    
O4    C2    A    
C10   C11   A    
C48   H14   S    
C37   C44   A    
C14   C19   A    
C61   O24   A    
C36   C41   A    
O2    C1    A    
N4    C46   A    
O21   V3    S    
C14   C15   A    
C53   C54   A    
C11   C18   A    
C23   C24   A    
C8    C9    A    
C56   H17   S    
C29   C30   A    
C25   C26   A    
C7    O11   S    
C40   C45   A    
C54   H16   S    
C47   C48   A    
C21   C22   A    
C60   C61   S    
O3    C4    A    
O22   V3    S    
N3    C58   S    
C24   H7    S    
C36   C37   A    
O6    V2    S    
C57   C58   A    
O9    V2    S    
C21   H5    S    
N2    C26   S    
C12   F5    S    
C66   N6    T    
O2    V1    S    
O23   C63   A    
C12   C13   A    
C27   H8    S    
O25   V3    S    
C51   C66   S    
C47   F3    S    
C28   C29   A    
O1    C2    A    
C16   C17   A    
C43   C44   A    
C46   O18   S    
O5    V1    S    
O24   V4    S    
V4    O28   S    
C8    O12   S    
O26   V4    S    
C35   C36   A    
C6    H2    S    
O27   V4    S    
C67   N7    T    
C31   H10   S    
O4    V1    S    
O3    V1    S    
C55   C62   S    
O27   C64   A    
C17   C18   A    
O5    C3    A    
C21   C26   A    
C42   C46   A    
O20   C61   A    
C6    C63   S    
C24   C25   A    
C5    C6    D    
C30   C31   A    
C13   C67   S    
O7    V2    S    
C40   C41   A    
C43   H12   S    
C3    C29   S    
C34   C35   A    
C28   F2    S    
C42   C43   A    
C50   C51   A    
C54   C55   A    
C57   H18   S    
C2    C59   S    
C60   H20   S    
N1    C8    A    
O19   V4    S    
V1    O10   S    
C51   C52   A    
C7    N1    A    
C44   H13   S    
V3    O28   S    
V2    O10   S    
O8    C3    A    
C34   O16   S    
