data_mof_unit_67018.cif
_audit_creation_date              2013-03-05T15:58:14-0500
_audit_creation_method            fapswitch 2.2
_symmetry_space_group_name_H-M    P1
_symmetry_Int_Tables_number       1
_space_group_crystal_system       triclinic
_cell_length_a                    8.226001
_cell_length_b                    12.673478
_cell_length_c                    14.201279
_cell_angle_alpha                 92.557578
_cell_angle_beta                  90.785351
_cell_angle_gamma                 98.475334
_cell_volume                      1462.57735733

loop_
_atom_site_label
_atom_site_type_symbol
_atom_site_description
_atom_site_fract_x
_atom_site_fract_y
_atom_site_fract_z
_atom_type_partial_charge
P1    P     P_3+3 0.054400 0.427280 0.286870 0.475928
O1    O     O_2   0.887370 0.460630 0.272300 -0.368882
O2    O     O_3   0.129410 0.451380 0.388510 -0.416659
O3    O     O_3   0.670210 0.653170 0.329170 -0.386581
O4    O     O_2   0.786433 0.587249 0.165490 -0.334316
O5    O     O_3   0.015581 0.288657 0.265547 -0.534602
O6    O     O_3   0.722531 0.781979 0.171237 -0.446180
H1    H     H_    0.753704 0.882160 0.290818 0.134480
C1    C     C_3   0.629509 0.950660 0.179069 -1.026491
H2    H     H_    0.573478 0.007615 0.225506 0.239309
H3    H     H_    0.745117 0.991858 0.150978 0.284522
P2    P     P_3+3 0.668300 0.742890 0.573060 0.453693
P3    P     P_3+3 0.134043 0.843485 0.376681 0.467369
O7    O     O_2   0.845380 0.761330 0.544970 -0.373735
O8    O     O_3   0.088930 0.704860 0.376040 -0.338021
O9    O     O_2   0.019179 0.887461 0.448587 -0.384008
O10   O     O_3   0.679064 0.762864 0.696211 -0.578303
O11   O     O_3   0.071174 0.889643 0.269274 -0.551015
C2    C     C_3   0.180453 0.870991 0.196914 0.858475
H4    H     H_    0.299059 0.851672 0.223294 -0.047369
C3    C     C_3   0.218536 0.970818 0.139002 -0.804276
H5    H     H_    0.289825 0.036166 0.183995 0.213193
C4    C     C_3   0.228540 0.761087 0.653733 0.400871
H6    H     H_    0.336244 0.728325 0.625619 0.099626
H7    H     H_    0.128316 0.749985 0.599756 0.144070
C5    C     C_3   0.275916 0.879901 0.676999 -0.945770
H8    H     H_    0.391329 0.893733 0.720009 0.255362
H9    H     H_    0.295483 0.924014 0.611637 0.250464
H10   H     H_    0.176135 0.910866 0.716639 0.282729
Ba1   Ba    Ba6+2 0.855630 0.555280 0.454520 1.565811
C6    C     C_3   0.972045 0.238756 0.349404 0.392700
H11   H     H_    0.849851 0.256219 0.369805 0.076104
H12   H     H_    0.061977 0.264762 0.407598 0.140708
C7    C     C_3   0.966906 0.119348 0.332686 -0.840785
H13   H     H_    0.873057 0.089437 0.277738 0.261166
H14   H     H_    0.934954 0.077141 0.397848 0.221163
H15   H     H_    0.089261 0.102193 0.309858 0.271883
C8    C     C_3   0.709303 0.669266 0.738055 0.299547
H16   H     H_    0.837587 0.657238 0.725304 0.070519
H17   H     H_    0.624722 0.598028 0.710083 0.150660
C9    C     C_3   0.679903 0.678943 0.843875 -0.723750
H18   H     H_    0.687420 0.601495 0.875559 0.162791
H19   H     H_    0.554068 0.698449 0.855224 0.233322
P4    P     P_3+3 0.135310 0.572810 0.713130 0.447523
O12   O     O_2   0.302330 0.539400 0.727760 -0.363689
O13   O     O_3   0.060300 0.548700 0.611500 -0.406517
O14   O     O_3   0.519500 0.346920 0.670840 -0.351081
O15   O     O_3   0.176842 0.711047 0.736184 -0.580895
P5    P     P_3+3 0.059328 0.155400 0.622416 0.470352
O16   O     O_3   0.614310 0.373510 0.452640 -0.396202
O17   O     O_3   0.100780 0.295230 0.623970 -0.378791
O18   O     O_2   0.184245 0.111339 0.556945 -0.356925
O19   O     O_3   0.110697 0.113538 0.733149 -0.520222
Ba2   Ba    Ba6+2 0.334200 0.444810 0.545490 1.555584
P6    P     P_3+3 0.657277 0.652433 0.206272 0.520877
C10   C     C_3   0.661560 0.855310 0.233639 0.492729
H20   H     H_    0.544945 0.821931 0.266719 0.011241
H21   H     H_    0.546663 0.922711 0.118139 0.278024
O20   O     O_3   0.575400 0.626570 0.547370 -0.403201
C11   C     C_3   0.476671 0.310444 0.257611 0.405197
H22   H     H_    0.357327 0.330198 0.282911 0.097242
H23   H     H_    0.575060 0.379189 0.273358 0.122136
C12   C     C_3   0.464199 0.289820 0.151178 -0.941888
H24   H     H_    0.360506 0.225520 0.132494 0.300992
H25   H     H_    0.442768 0.363361 0.116404 0.217224
H26   H     H_    0.580175 0.265335 0.124767 0.255430
P7    P     P_3+3 0.525984 0.241750 0.421909 0.417810
O21   O     O_2   0.344320 0.238700 0.455090 -0.368920
O22   O     O_3   0.513905 0.218444 0.299370 -0.587408
H27   H     H_    0.294774 0.953131 0.078114 0.179956
C13   C     C_3   0.998310 0.140732 0.800698 0.435237
H28   H     H_    0.888221 0.168833 0.769889 -0.084088
C14   C     C_3   0.937628 0.040969 0.854233 -0.876074
H29   H     H_    0.043229 0.007130 0.884089 0.250993
H30   H     H_    0.856305 0.059957 0.912411 0.246368
H31   H     H_    0.866985 0.979823 0.805052 0.239061
P8    P     P_3+3 0.535553 0.346407 0.793909 0.462326
C15   C     C_3   0.552159 0.150494 0.828845 0.412868
H32   H     H_    0.667902 0.183107 0.867690 0.033260
O23   O     O_2   0.424786 0.424938 0.833789 -0.393098
O24   O     O_3   0.440113 0.223712 0.832143 -0.476498
H33   H     H_    0.577742 0.128717 0.754293 0.080266
H34   H     H_    0.467439 0.069398 0.954179 0.259867
C16   C     C_3   0.477611 0.050683 0.877499 -0.911532
H35   H     H_    0.556380 0.987246 0.867535 0.242451
H36   H     H_    0.352987 0.021022 0.847850 0.275338
C17   C     C_R   0.987155 0.442085 0.061298 -0.036595
C18   C     C_R   0.183989 0.497225 0.195736 0.280218
C19   C     C_R   0.338244 0.549500 0.226001 -0.481432
C20   C     C_R   0.450705 0.596507 0.162341 0.216420
C21   C     C_R   0.406342 0.598981 0.067345 -0.260013
C22   C     C_R   0.249998 0.550249 0.034474 0.110954
C23   C     C_R   0.138929 0.495268 0.097889 0.025878
H37   H     H_    0.374198 0.549518 0.299591 0.165764
C24   C     C_R   0.053529 0.502131 0.902149 -0.045630
C25   C     C_R   0.943217 0.446239 0.965427 0.083496
C26   C     C_R   0.008713 0.499793 0.804153 0.227595
C27   C     C_R   0.857670 0.443031 0.773309 -0.499210
C28   C     C_R   0.745659 0.395206 0.836830 0.188933
C29   C     C_R   0.788175 0.395767 0.932344 -0.323429
C30   C     C_R   0.204891 0.555734 0.938888 -0.092760
H38   H     H_    0.494073 0.638368 0.019390 0.159275
H39   H     H_    0.699539 0.357949 0.980712 0.156303
H40   H     H_    0.822123 0.442108 0.699594 0.176494
H41   H     H_    0.901403 0.396608 0.106500 0.154445
H42   H     H_    0.289925 0.601619 0.893770 0.160782
C31   C     C_R   0.759193 0.176937 0.539385 -0.484182
C32   C     C_R   0.433718 0.812784 0.457489 -0.492677
C33   C     C_R   0.409198 0.994609 0.424885 -0.232056
C34   C     C_R   0.346009 0.886956 0.418783 0.166920
C35   C     C_R   0.577798 0.846062 0.510827 0.290658
C36   C     C_R   0.641051 0.956807 0.521235 -0.059916
C37   C     C_R   0.555977 0.031407 0.476052 -0.039028
C38   C     C_R   0.617278 0.141416 0.485635 0.282275
C39   C     C_R   0.849186 0.104767 0.578556 0.182429
C40   C     C_R   0.787660 0.995680 0.573304 -0.200858
H43   H     H_    0.337771 0.048559 0.392534 0.180341
H44   H     H_    0.858612 0.943003 0.607775 0.187838
H45   H     H_    0.807159 0.261290 0.544402 0.164436
H46   H     H_    0.382856 0.728949 0.452006 0.171254
C41   C     C_2   0.804458 0.761947 0.893021 0.726156
H47   H     H_    0.934763 0.758313 0.885943 0.028650
O25   O     O_2   0.759837 0.832950 0.942615 -0.589450
C42   C     C_2   0.083943 0.230326 0.864367 0.623337
H48   H     H_    0.130917 0.305139 0.833815 0.045267
O26   O     O_2   0.103649 0.220760 0.948761 -0.566814
Cl1   Cl    Cl    0.090363 0.760237 0.122695 -0.644897
C43   C     C_2   0.066975 0.007360 0.100248 0.725158
H49   H     H_    0.980161 0.952826 0.056716 0.097339
O27   O     O_2   0.042000 0.099053 0.115635 -0.548712

loop_
_geom_bond_atom_site_label_1
_geom_bond_atom_site_label_2
_geom_bond_distance
_ccdc_geom_bond_type
C12   H25   1.109380 S    
C7    H15   1.110202 S    
C14   H30   1.110352 S    
C14   H29   1.110963 S    
C32   H46   1.081976 S    
C2    H4    1.104880 S    
O6    P6    1.746896 S    
C43   H49   1.083562 S    
H1    C10   1.110011 S    
C26   C27   1.395205 A    
C33   H43   1.078349 S    
Ba1   Ba2   4.557791 S    
C5    H8    1.109338 S    
O16   Ba2   2.907776 S    
P3    O11   1.755962 S    
C11   C12   1.521840 S    
C2    C3    1.535661 S    
P7    C38   1.834518 S    
C16   H36   1.109047 S    
O11   C2    1.409327 S    
P6    C20   1.831811 S    
C8    H16   1.104450 S    
O2    Ba2   2.787407 S    
P5    O19   1.747930 S    
Ba2   O21   2.871590 S    
C39   C40   1.398771 A    
C25   C29   1.404550 A    
C10   H20   1.109194 S    
C11   H23   1.110816 S    
C7    H13   1.104281 S    
C9    H18   1.107356 S    
C4    C5    1.519050 S    
C9    C41   1.496889 S    
C19   H37   1.082193 S    
P1    Ba1   3.393720 S    
P2    O20   1.581956 S    
C35   C36   1.423578 A    
C40   H44   1.078039 S    
P5    O17   1.753686 S    
P2    O10   1.755057 S    
C24   C30   1.408979 A    
C4    H6    1.104577 S    
C6    H12   1.107222 S    
C1    H2    1.110083 S    
C33   C37   1.408201 A    
P1    C18   1.859789 S    
O5    C6    1.399477 S    
Ba1   O16   2.809494 S    
C12   H26   1.110767 S    
C3    H5    1.112388 S    
C17   C25   1.409103 A    
C9    H19   1.111310 S    
O6    C10   1.405936 S    
O7    Ba1   2.871382 S    
C31   H45   1.082450 S    
C36   C37   1.425552 A    
P4    O13   1.561343 S    
Ba2   O20   2.808826 S    
P7    O21   1.568621 D    
C13   C42   1.502726 S    
C16   H35   1.110026 S    
C8    C9    1.527794 S    
C21   C22   1.406077 A    
C13   C14   1.528369 S    
C15   H32   1.109459 S    
C29   H39   1.083169 S    
P1    O5    1.750603 S    
C11   H22   1.108890 S    
P1    O2    1.561461 S    
O2    Ba1   2.916595 S    
C31   C38   1.392163 A    
P3    C34   1.833068 S    
C15   C16   1.521356 S    
P4    C26   1.863158 S    
C15   H33   1.112886 S    
C28   C29   1.395589 A    
C17   H41   1.080478 S    
P8    O24   1.748238 S    
P5    O18   1.543109 D    
Ba1   O20   2.908558 S    
O13   Ba2   2.917359 S    
C6    C7    1.515612 S    
C1    C10   1.517315 S    
C3    C43   1.498616 S    
C1    H3    1.103983 S    
C31   C39   1.388439 A    
C41   H47   1.085477 S    
C22   C30   1.409745 A    
O14   Ba2   2.776962 S    
P5    C39   1.842752 S    
P2    O7    1.503168 D    
O12   Ba2   2.835538 S    
P3    O8    1.740883 S    
O3    P6    1.746614 S    
C14   H31   1.110788 S    
H34   C16   1.111024 S    
O14   P8    1.751281 S    
C21   H38   1.082316 S    
O19   C13   1.407975 S    
C36   C40   1.418396 A    
P4    O12   1.510488 D    
O8    Ba1   2.773746 S    
C42   O26   1.220988 D    
C37   C38   1.410861 A    
O16   P7    1.753688 S    
P8    O23   1.540349 D    
C30   H42   1.078718 S    
P1    O1    1.510131 D    
C18   C23   1.431421 A    
C1    H21   1.106310 S    
C4    O15   1.398026 S    
P2    Ba1   3.414051 S    
O4    P6    1.542579 D    
C6    H11   1.100504 S    
C43   O27   1.220374 D    
C24   C26   1.432665 A    
C5    H9    1.106322 S    
C32   C35   1.398520 A    
Ba1   O13   2.786836 S    
C3    H27   1.109159 S    
O1    Ba1   2.835026 S    
O17   Ba2   2.774336 S    
C13   H28   1.111962 S    
C33   C34   1.385033 A    
C8    H17   1.110066 S    
C15   O24   1.400773 S    
C20   C21   1.395630 A    
C11   O22   1.402483 S    
C27   H40   1.082148 S    
C17   C23   1.409244 A    
C2    Cl1   1.780526 S    
C22   C23   1.422052 A    
C32   C34   1.393366 A    
P8    C28   1.834000 S    
C7    H14   1.104966 S    
O10   C8    1.402826 S    
C4    H7    1.107233 S    
C41   O25   1.219995 D    
C12   H24   1.109802 S    
P4    Ba2   3.394178 S    
C18   C19   1.394843 A    
C5    H10   1.110181 S    
C27   C28   1.391776 A    
P3    O9    1.541759 D    
C24   C25   1.422119 A    
P7    O22   1.751059 S    
C19   C20   1.391604 A    
P2    C35   1.848521 S    
O3    Ba1   2.777560 S    
P4    O15   1.750004 S    
C42   H48   1.081597 S    
