data_mof_unit_9498.cif
_audit_creation_date              2012-12-11T15:55:58-0500
_audit_creation_method            fapswitch 2.2
_symmetry_space_group_name_H-M    P1
_symmetry_Int_Tables_number       1
_space_group_crystal_system       triclinic
_cell_length_a                    11.01971
_cell_length_b                    11.041719
_cell_length_c                    18.667015
_cell_angle_alpha                 90.204224
_cell_angle_beta                  90.611009
_cell_angle_gamma                 59.900426
_cell_volume                      1964.94370003

loop_
_atom_site_label
_atom_site_type_symbol
_atom_type_description
_atom_site_fract_x
_atom_site_fract_y
_atom_site_fract_z
_atom_type_partial_charge
Br1   Br    Br    0.110020 0.263977 0.397813 -0.563620
C1    C     C_R   0.354409 0.779729 0.399741 0.552728
C2    C     C_R   0.277501 0.434372 0.199384 -0.184506
C3    C     C_R   0.246905 0.448471 0.272519 -0.023488
C4    C     C_R   0.380078 0.352687 0.389524 0.583474
C5    C     C_R   0.811075 0.742818 0.321438 -0.073882
C6    C     C_R   0.851138 0.671461 0.256742 -0.110584
C7    C     C_R   0.990437 0.578784 0.242306 -0.100778
C8    C     C_R   0.097414 0.558196 0.290977 0.039325
C9    C     C_R   0.336308 0.332531 0.317516 0.046193
C10   C     C_R   0.931017 0.311069 0.191931 -0.020597
C11   C     C_R   0.790663 0.365324 0.207023 0.028659
C12   C     C_R   0.604098 0.060538 0.195475 0.030544
C13   C     C_R   0.746305 0.382028 0.276409 -0.044372
C14   C     C_R   0.979766 0.305818 0.320210 0.135882
C15   C     C_R   0.025126 0.290187 0.248684 -0.158000
C16   C     C_R   0.780349 0.377225 0.404394 0.595309
C17   C     C_3   0.690195 0.321004 0.182167 -0.241673
C18   C     C_3   0.639891 0.341428 0.259079 -0.272102
C19   C     C_R   0.840068 0.343663 0.333792 0.035739
C20   C     C_R   0.288933 0.947673 0.188752 0.004309
C21   C     C_R   0.422173 0.865964 0.216651 0.013937
C22   C     C_R   0.441934 0.828342 0.289175 -0.003868
C23   C     C_R   0.367770 0.304511 0.168652 0.000639
C24   C     C_R   0.192959 0.945034 0.306123 -0.117054
C25   C     C_R   0.173795 0.982749 0.233538 -0.162534
C26   C     C_3   0.514708 0.719250 0.192690 -0.261470
C27   C     C_3   0.539267 0.680931 0.270676 -0.263378
C28   C     C_R   0.347864 0.762108 0.606514 0.555565
C29   C     C_R   0.328764 0.864499 0.334589 0.042662
C30   C     C_R   0.324814 0.331212 0.818562 0.017915
C31   C     C_R   0.446867 0.235178 0.782664 0.035798
C32   C     C_R   0.454092 0.240685 0.710425 0.040877
C33   C     C_R   0.230870 0.453865 0.706659 -0.157897
C34   C     C_R   0.424917 0.200940 0.286944 -0.139434
C35   C     C_R   0.222570 0.449183 0.781292 -0.169741
C36   C     C_3   0.527571 0.077419 0.781231 -0.265788
C37   C     C_3   0.534992 0.086039 0.700978 -0.286306
C38   C     C_R   0.342773 0.341670 0.670449 0.021615
C39   C     C_R   0.800143 0.343924 0.838810 0.015086
C40   C     C_R   0.371764 0.351991 0.596711 0.568848
C41   C     C_R   0.771951 0.466561 0.801976 0.033857
C42   C     C_R   0.763211 0.471875 0.728919 0.041841
C43   C     C_R   0.776227 0.248333 0.725502 -0.160581
C44   C     C_R   0.786191 0.241316 0.800783 -0.166935
C45   C     C_R   0.457032 0.184635 0.214003 -0.014612
C46   C     C_3   0.846424 0.549975 0.801467 -0.267893
C47   C     C_3   0.836527 0.553346 0.720987 -0.279511
C48   C     C_R   0.778143 0.359053 0.689007 0.018051
C49   C     C_R   0.317168 0.814392 0.832161 0.016403
C50   C     C_R   0.219992 0.794033 0.793005 0.024298
C51   C     C_R   0.229154 0.781693 0.719595 0.042066
C52   C     C_R   0.756295 0.380322 0.612326 0.559911
C53   C     C_R   0.444842 0.786341 0.722623 -0.161206
C54   C     C_R   0.438403 0.794187 0.797238 -0.159891
C55   C     C_3   0.063406 0.878926 0.789593 -0.273417
C56   C     C_R   0.054704 0.645715 0.351930 -0.058176
C57   C     C_3   0.074048 0.864200 0.708942 -0.279671
C58   C     C_R   0.333948 0.790777 0.682724 0.019135
C59   C     C_R   0.974103 0.289660 0.118097 0.524892
C60   C     C_R   0.330053 0.287580 0.094678 0.533815
C61   C     C_R   0.268351 0.967266 0.111310 0.543095
C62   C     C_R   0.877805 0.312264 0.906357 0.556250
C63   C     C_R   0.298001 0.290398 0.887076 0.555101
C64   C     C_R   0.888208 0.883640 0.154265 -0.094127
C65   C     C_R   0.277610 0.889996 0.899507 0.556591
C66   C     C_R   0.857498 0.943280 0.222035 -0.114262
C67   C     C_R   0.913200 0.731883 0.369478 -0.001455
C68   C     C_R   0.717959 0.022067 0.243872 -0.126150
C69   C     C_3   0.870988 0.819063 0.436851 -0.281915
C70   C     C_3   0.797109 0.770176 0.488744 -0.267701
C71   C     C_3   0.753912 0.857759 0.556945 -0.456678
C72   C     C_R   0.640292 0.976197 0.133358 -0.072983
C73   C     C_R   0.779549 0.893855 0.111442 -0.137591
Cr1   Cr    Cr6+3 0.601740 0.606840 0.505840 0.996568
Cr2   Cr    Cr6+3 0.291500 0.601560 0.495070 0.995886
Cr3   Cr    Cr6+3 0.606780 0.291630 0.499130 0.999520
Cr4   Cr    Cr6+3 0.062440 0.063060 0.008240 0.999832
Cr5   Cr    Cr6+3 0.062950 0.375000 0.998920 0.987832
Cr6   Cr    Cr6+3 0.374550 0.061770 0.992470 0.977319
H1    H     H_    0.483902 0.112435 0.322395 0.137858
H2    H     H_    0.102395 0.968342 0.338135 0.137124
H3    H     H_    0.803125 0.834496 0.062199 0.099921
H4    H     H_    0.068787 0.032993 0.211311 0.132774
H5    H     H_    0.604633 0.706032 0.161251 0.137862
H6    H     H_    0.455785 0.674598 0.165215 0.150576
H7    H     H_    0.493471 0.617813 0.288139 0.138128
H8    H     H_    0.644676 0.644969 0.292157 0.162651
H9    H     H_    0.149738 0.542783 0.677567 0.131223
H10   H     H_    0.133507 0.532046 0.808646 0.117474
H11   H     H_    0.463425 0.030551 0.797150 0.166879
H12   H     H_    0.701274 0.814693 0.331702 0.112958
H13   H     H_    0.631657 0.032878 0.808307 0.127242
H14   H     H_    0.643095 0.048132 0.681685 0.134744
H15   H     H_    0.474849 0.045354 0.671285 0.138337
H16   H     H_    0.773612 0.165086 0.696145 0.128695
H17   H     H_    0.795889 0.150584 0.828111 0.120892
H18   H     H_    0.956853 0.489553 0.819880 0.173748
H19   H     H_    0.783545 0.654853 0.826371 0.122626
H20   H     H_    0.768809 0.660023 0.699079 0.130517
H21   H     H_    0.939959 0.492142 0.694533 0.142201
H22   H     H_    0.533296 0.782427 0.696143 0.126129
H23   H     H_    0.775490 0.690781 0.215916 0.121330
H24   H     H_    0.520603 0.800174 0.826442 0.123612
H25   H     H_    0.024270 0.987853 0.807565 0.162962
H26   H     H_    0.996125 0.819551 0.137805 0.130644
H27   H     H_    0.012739 0.824286 0.814420 0.128051
H28   H     H_    0.030881 0.799660 0.687124 0.128708
H29   H     H_    0.039050 0.964880 0.680467 0.140067
H30   H     H_    0.941554 0.922526 0.259260 0.113247
H31   H     H_    0.701926 0.051046 0.299565 0.100080
H32   H     H_    0.125248 0.659356 0.383847 0.189274
H33   H     H_    0.566063 0.962353 0.103458 0.187779
H34   H     H_    0.013223 0.523503 0.191940 0.138022
H35   H     H_    0.213866 0.522168 0.164102 0.123367
H36   H     H_    0.847780 0.846430 0.585746 0.134287
H37   H     H_    0.682175 0.969842 0.543786 0.175483
H38   H     H_    0.698249 0.821839 0.592650 0.139485
H39   H     H_    0.701500 0.779457 0.462869 0.186381
H40   H     H_    0.868666 0.658543 0.503216 0.194640
H41   H     H_    0.964477 0.811936 0.464284 0.147562
H42   H     H_    0.799933 0.930734 0.422288 0.139203
H43   H     H_    0.133722 0.256421 0.237563 0.135425
H44   H     H_    0.743688 0.211184 0.163352 0.177993
H45   H     H_    0.610309 0.398035 0.144407 0.141098
H46   H     H_    0.528698 0.422516 0.263536 0.131188
H47   H     H_    0.664104 0.250647 0.291298 0.159006
O1    O     O_R   0.748670 0.497520 0.427970 -0.507190
O2    O     O_R   0.417470 0.174910 0.067830 -0.543618
O3    O     O_R   0.375160 0.946380 0.070880 -0.526381
O4    O     O_R   0.476470 0.723930 0.429450 -0.506117
O5    O     O_R   0.160500 0.919670 0.926690 -0.516180
O6    O     O_R   0.933140 0.190380 0.936050 -0.499700
O7    O     O_R   0.909010 0.403210 0.925030 -0.521642
O8    O     O_R   0.179590 0.361290 0.918480 -0.508341
O9    O     O_R   0.391360 0.170840 0.907510 -0.522424
O10   O     O_R   0.350950 0.942600 0.922260 -0.506910
O11   O     O_3   0.166650 0.166610 0.999880 -0.281723
O12   O     O_R   0.300170 0.471020 0.567120 -0.501840
O13   O     O_R   0.264730 0.744140 0.416740 -0.559792
O14   O     O_R   0.309440 0.472410 0.418220 -0.514749
O15   O     O_R   0.501630 0.260530 0.414310 -0.535082
O16   O     O_R   0.727920 0.305730 0.428950 -0.509223
O17   O     O_R   0.738670 0.496020 0.588600 -0.519967
O18   O     O_R   0.467190 0.722540 0.578350 -0.512136
O19   O     O_R   0.254720 0.742640 0.577370 -0.520381
O20   O     O_R   0.491630 0.259030 0.574940 -0.523232
O21   O     O_R   0.718640 0.304340 0.577850 -0.506525
O22   O     O_3   0.500010 0.500010 0.500020 -0.254670
O23   O     O_R   0.186620 0.923750 0.087000 -0.524142
O24   O     O_R   0.957350 0.194160 0.084660 -0.513214
O25   O     O_R   0.935120 0.407280 0.085350 -0.515319
O26   O     O_R   0.203800 0.365060 0.067090 -0.520489

loop_
_geom_bond_atom_site_label_1
_geom_bond_atom_site_label_2
_ccdc_geom_bond_type
C43   C48   A    
C20   C25   A    
C63   O9    A    
C23   C60   S    
C57   H29   S    
C72   C73   A    
C61   O3    A    
C73   H3    S    
Cr6   O10   S    
C34   H1    S    
C46   H19   S    
C6    C7    A    
C38   C40   S    
Cr1   O18   S    
C32   C38   A    
C46   H18   S    
C70   H40   S    
C62   O6    A    
C15   H43   S    
C50   C55   S    
C17   H45   S    
C28   O18   A    
C12   C45   S    
Cr6   O11   S    
C56   H32   S    
C14   C15   A    
C16   C19   S    
C72   H33   S    
C22   C29   A    
Cr1   O1    S    
C59   O25   A    
C26   H5    S    
Cr4   O5    S    
Cr3   O15   S    
C30   C31   A    
C7    C8    A    
C64   C66   A    
C71   H37   S    
C27   H8    S    
C9    C34   A    
Br1   C14   S    
C42   C47   S    
Cr3   O20   S    
C33   C35   A    
C7    H34   S    
Cr2   O14   S    
C39   C41   A    
C63   O8    A    
Cr2   O19   S    
C6    H23   S    
C20   C21   A    
C2    C23   A    
C39   C44   A    
Cr4   O11   S    
Cr1   O4    S    
Cr4   O24   S    
C49   C50   A    
C65   O5    A    
C53   C58   A    
Cr2   O13   S    
C14   C19   A    
C47   H20   S    
C57   H28   S    
Cr6   O3    S    
C36   H11   S    
C33   C38   A    
C62   O7    A    
C13   C19   A    
C16   O16   A    
Cr3   O22   S    
C28   O19   A    
C13   C18   S    
C42   C48   A    
C24   C25   A    
C31   C36   S    
C54   H24   S    
C52   O21   A    
C64   C73   A    
C50   C51   A    
C66   C68   A    
C59   O24   A    
C37   H15   S    
C26   H6    S    
Cr3   O16   S    
C55   H27   S    
C36   C37   S    
C43   H16   S    
C51   C58   A    
Cr5   O26   S    
C49   C65   S    
C10   C15   A    
C69   H42   S    
C66   H30   S    
C4    O14   A    
C46   C47   S    
C40   O20   A    
C5    C67   A    
C37   H14   S    
C27   H7    S    
C11   C17   S    
C1    O4    A    
C36   H13   S    
C22   C27   S    
C39   C62   S    
Cr3   O21   S    
C20   C61   S    
C69   C70   S    
C51   C57   S    
C12   C72   A    
C21   C26   S    
C24   H2    S    
C41   C42   A    
C56   C67   A    
C3    C9    A    
C10   C59   S    
C64   H26   S    
C43   C44   A    
Cr4   O23   S    
Cr2   O12   S    
C35   H10   S    
C24   C29   A    
Cr5   O7    S    
C53   C54   A    
C25   H4    S    
Cr6   O2    S    
C61   O23   A    
C21   C22   A    
C30   C63   S    
C53   H22   S    
C32   C37   S    
C11   C13   A    
C60   O26   A    
C10   C11   A    
C16   O1    A    
C5    C6    A    
C60   O2    A    
Cr5   O8    S    
C71   H36   S    
C18   H46   S    
C49   C54   A    
Cr6   O9    S    
C70   H39   S    
C1    C29   S    
C52   O17   A    
C23   C45   A    
C31   C32   A    
C33   H9    S    
C1    O13   A    
C70   C71   S    
C2    H35   S    
C68   H31   S    
C69   H41   S    
C4    O15   A    
C65   O10   A    
C12   C68   A    
Cr2   O22   S    
Cr1   O22   S    
C5    H12   S    
C47   H21   S    
C18   H47   S    
C55   C57   S    
C8    C56   A    
C41   C46   S    
Cr4   O6    S    
C55   H25   S    
C40   O12   A    
C48   C52   S    
Cr1   O17   S    
C4    C9    S    
Cr5   O11   S    
C67   C69   S    
C71   H38   S    
C26   C27   S    
C17   C18   S    
C28   C58   S    
C30   C35   A    
C44   H17   S    
C3    C8    S    
C34   C45   A    
C2    C3    A    
C17   H44   S    
Cr5   O25   S    
