data_mof_unit_52073.cif
_audit_creation_date              2012-12-10T18:08:47-0500
_audit_creation_method            fapswitch 2.2
_symmetry_space_group_name_H-M    P1
_symmetry_Int_Tables_number       1
_space_group_crystal_system       triclinic
_cell_length_a                    12.735024
_cell_length_b                    13.887896
_cell_length_c                    23.577041
_cell_angle_alpha                 90.460571
_cell_angle_beta                  92.68762
_cell_angle_gamma                 98.16888
_cell_volume                      4122.59323384

loop_
_atom_site_label
_atom_site_type_symbol
_atom_type_description
_atom_site_fract_x
_atom_site_fract_y
_atom_site_fract_z
_atom_type_partial_charge
C1    C     C_R   0.483340 0.315918 0.499908 0.827721
C2    C     C_R   0.516660 0.684081 0.500114 0.827348
C3    C     C_R   0.407274 0.515232 0.237252 0.214092
C4    C     C_R   0.591186 0.483851 0.762740 0.216395
C5    C     C_R   0.411830 0.516594 0.296626 -0.252549
C6    C     C_R   0.586010 0.480631 0.703422 -0.266134
C7    C     C_R   0.501695 0.493970 0.327927 -0.096544
C8    C     C_R   0.498424 0.507290 0.671938 -0.091606
C9    C     C_R   0.588174 0.466837 0.298503 0.136895
C10   C     C_R   0.414571 0.539927 0.701046 0.136472
C11   C     C_R   0.583318 0.466689 0.239024 -0.147829
C12   C     C_R   0.419485 0.541451 0.760523 -0.149108
C13   C     C_R   0.494587 0.491476 0.208489 0.324596
C14   C     C_R   0.506016 0.512918 0.791398 0.328280
C15   C     C_1   0.526584 0.787075 0.497814 -0.168599
C16   C     C_1   0.473421 0.212926 0.502286 -0.168837
C17   C     C_2   0.541884 0.977882 0.492974 -0.028668
C18   C     C_2   0.458196 0.022132 0.507261 -0.028675
C19   C     C_1   0.465343 0.126115 0.504664 -0.040519
C20   C     C_1   0.534688 0.873893 0.495506 -0.040139
C21   C     C_2   0.027824 0.470573 0.484869 0.099060
C22   C     C_2   0.972179 0.529476 0.515108 0.099073
C23   C     C_R   0.500743 0.497543 0.390665 0.815065
C24   C     C_R   0.499295 0.502707 0.609290 0.815218
C25   C     C_1   0.854643 0.520444 0.511312 0.201622
C26   C     C_1   0.145359 0.479579 0.488678 0.201633
C27   C     C_R   0.518028 0.595115 0.882606 0.529322
C28   C     C_R   0.480281 0.408915 0.117366 0.530076
C29   C     C_R   0.485910 0.422189 0.877792 0.547220
C30   C     C_R   0.512441 0.581822 0.121909 0.544692
C31   C     C_R   0.493334 0.415941 0.937649 -0.032168
C32   C     C_R   0.503677 0.587787 0.062101 -0.027872
C33   C     C_R   0.499085 0.503512 0.969937 -0.069313
C34   C     C_R   0.497754 0.500182 0.029848 -0.067665
C35   C     C_R   0.507383 0.594551 0.942136 -0.091312
C36   C     C_R   0.489636 0.409216 0.057712 -0.091164
C37   C     C_R   0.497022 0.325975 0.965728 0.126111
C38   C     C_R   0.499030 0.677576 0.034051 0.125966
C39   C     C_R   0.491760 0.322373 0.025539 -0.021203
C40   C     C_R   0.504351 0.681271 0.974266 -0.020149
Cu1   Cu    Cu3+1 0.395330 0.493960 0.496390 0.971282
Cu2   Cu    Cu3+1 0.604670 0.506040 0.503610 0.970936
H1    H     H_    0.344914 0.536307 0.318577 0.172219
H2    H     H_    0.651146 0.456681 0.681733 0.175988
H3    H     H_    0.649081 0.447639 0.215809 0.139847
H4    H     H_    0.355253 0.564253 0.783479 0.140940
N1    N     N_R   0.504018 0.510130 0.852225 -0.459036
N2    N     N_R   0.494982 0.494032 0.147630 -0.453661
N3    N     N_1   0.238030 0.484870 0.490960 -0.168254
N4    N     N_1   0.761970 0.515130 0.509040 -0.168311
O1    O     O_R   0.399110 0.356330 0.496510 -0.568843
O2    O     O_R   0.600890 0.643670 0.503490 -0.569018
O3    O     O_R   0.575900 0.366540 0.502610 -0.568095
O4    O     O_R   0.424100 0.633460 0.497390 -0.568010
O5    O     O_R   0.411590 0.494870 0.414830 -0.579571
O6    O     O_R   0.588410 0.505130 0.585170 -0.579333
O7    O     O_R   0.588370 0.505070 0.420930 -0.571623
O8    O     O_R   0.411630 0.494930 0.579070 -0.571453
O9    O     O_2   0.543292 0.679119 0.854834 -0.534375
O10   O     O_2   0.455930 0.325057 0.145407 -0.536813
O11   O     O_2   0.459187 0.341878 0.844798 -0.546644
O12   O     O_2   0.540265 0.662304 0.154655 -0.552103
C41   C     C_3   0.515293 0.235432 0.932667 -0.793162
H5    H     H_    0.579113 0.254303 0.902462 0.247766
H6    H     H_    0.543443 0.178046 0.959271 0.205388
H7    H     H_    0.440405 0.202664 0.909799 0.257551
C42   C     C_3   0.479416 0.767661 0.067109 -0.794832
H8    H     H_    0.416829 0.747860 0.097898 0.244167
H9    H     H_    0.554303 0.802031 0.089343 0.257725
H10   H     H_    0.448854 0.823870 0.040500 0.206330
C43   C     C_R   0.493518 0.227280 0.053767 0.188481
C44   C     C_R   0.403130 0.156216 0.050294 -0.105166
C45   C     C_R   0.406449 0.065216 0.074745 -0.132780
C46   C     C_R   0.499781 0.044729 0.102717 -0.105988
C47   C     C_R   0.590098 0.115066 0.106142 -0.128859
C48   C     C_R   0.587286 0.206054 0.081606 -0.109343
H11   H     H_    0.330716 0.171217 0.028359 0.124825
H12   H     H_    0.336780 0.010482 0.071892 0.129720
H13   H     H_    0.502159 0.974344 0.121696 0.137467
H14   H     H_    0.662396 0.098948 0.127638 0.130006
H15   H     H_    0.657906 0.259806 0.084033 0.116315
C49   C     C_R   0.501499 0.776224 0.946011 0.188300
C50   C     C_R   0.407893 0.795829 0.917283 -0.110167
C51   C     C_R   0.403950 0.886601 0.892676 -0.128745
C52   C     C_R   0.492945 0.958353 0.896923 -0.106205
C53   C     C_R   0.586094 0.939493 0.925781 -0.133148
C54   C     C_R   0.590562 0.848704 0.950287 -0.104559
H16   H     H_    0.338263 0.740973 0.914209 0.115985
H17   H     H_    0.331786 0.901454 0.870488 0.129764
H18   H     H_    0.489677 0.028575 0.877897 0.137287
H19   H     H_    0.654724 0.995321 0.929271 0.129662
H20   H     H_    0.662821 0.834959 0.972895 0.125350
C55   C     C_3   0.309240 0.538168 0.204962 -0.838715
H21   H     H_    0.328614 0.605023 0.179854 0.243910
H22   H     H_    0.277551 0.476609 0.175799 0.236851
H23   H     H_    0.245865 0.550308 0.233898 0.221848
C56   C     C_3   0.688446 0.456263 0.793725 -0.826858
H24   H     H_    0.688431 0.468246 0.840264 0.230990
H25   H     H_    0.693433 0.378295 0.785361 0.235994
H26   H     H_    0.760518 0.500993 0.778313 0.224462
C57   C     C_3   0.684739 0.435700 0.328648 -0.821952
H27   H     H_    0.660171 0.375315 0.357954 0.231410
H28   H     H_    0.738796 0.409077 0.298376 0.212787
H29   H     H_    0.730700 0.498198 0.352606 0.249600
C58   C     C_3   0.320938 0.575503 0.670465 -0.824333
H30   H     H_    0.349104 0.633792 0.640497 0.230362
H31   H     H_    0.271370 0.514285 0.647118 0.249544
H32   H     H_    0.269271 0.606401 0.700404 0.212920
C59   C     C_R   0.357680 0.968031 0.527373 0.141380
C60   C     C_R   0.259895 0.980962 0.500486 -0.136512
C61   C     C_R   0.164892 0.931925 0.519737 -0.137423
C62   C     C_R   0.166612 0.870143 0.566149 -0.114814
C63   C     C_R   0.263295 0.857419 0.593494 -0.132236
C64   C     C_R   0.358458 0.906601 0.574533 -0.132357
H33   H     H_    0.257314 0.028613 0.464454 0.128191
H34   H     H_    0.089891 0.941968 0.498723 0.127718
H35   H     H_    0.092985 0.832506 0.581088 0.130700
H36   H     H_    0.264463 0.809921 0.629627 0.132505
H37   H     H_    0.432542 0.897371 0.596870 0.128406
C65   C     C_R   0.642446 0.031974 0.472914 0.141164
C66   C     C_R   0.740183 0.018969 0.499831 -0.136898
C67   C     C_R   0.835238 0.067982 0.480628 -0.137349
C68   C     C_R   0.833617 0.129821 0.434239 -0.115049
C69   C     C_R   0.736982 0.142626 0.406868 -0.131830
C70   C     C_R   0.641769 0.093453 0.425774 -0.131680
H38   H     H_    0.742687 0.971275 0.535847 0.128057
H39   H     H_    0.910201 0.057878 0.501663 0.127716
H40   H     H_    0.907285 0.167442 0.419338 0.130859
H41   H     H_    0.735887 0.190187 0.370759 0.132330
H42   H     H_    0.567725 0.102730 0.403411 0.128609
C71   C     C_3   0.030459 0.607676 0.554219 -0.902963
H43   H     H_    0.974267 0.649351 0.575056 0.231028
H44   H     H_    0.077139 0.574475 0.587836 0.237688
H45   H     H_    0.085051 0.659237 0.529696 0.243041
C72   C     C_3   0.969541 0.392399 0.445743 -0.903346
H46   H     H_    0.025730 0.350720 0.424905 0.231206
H47   H     H_    0.914930 0.340838 0.470256 0.242955
H48   H     H_    0.922882 0.425625 0.412127 0.238074

loop_
_geom_bond_atom_site_label_1
_geom_bond_atom_site_label_2
_ccdc_geom_bond_type
C72   H48   S    
C38   C40   A    
C21   C26   S    
C41   H6    S    
C55   H21   S    
C22   C71   S    
Cu1   Cu2   S    
C61   C62   A    
C18   C59   S    
C71   H45   S    
C56   H24   S    
C72   H46   S    
C52   C53   A    
C58   H31   S    
C57   H27   S    
C29   N1    A    
C30   N2    A    
Cu1   O8    S    
C53   H19   S    
Cu2   O3    S    
C62   H35   S    
C33   C35   A    
C49   C54   A    
C17   C20   S    
C72   H47   S    
C18   C19   S    
C45   C46   A    
C67   H39   S    
C1    O3    A    
C60   C61   A    
Cu1   O5    S    
C17   C65   S    
Cu2   O6    S    
C25   N4    T    
C70   H42   S    
C22   C25   S    
C45   H12   S    
C31   C33   A    
C61   H34   S    
C32   C38   A    
C47   H14   S    
C64   H37   S    
C3    C13   A    
C50   H16   S    
C5    H1    S    
C41   H7    S    
C55   H22   S    
C6    H2    S    
C4    C56   S    
C10   C12   A    
Cu2   O7    S    
Cu1   N3    S    
C62   C63   A    
C37   C41   S    
C17   C18   D    
C28   O10   S    
C15   C20   T    
C58   H32   S    
C29   O11   S    
C46   C47   A    
C42   H8    S    
C24   O8    A    
C40   C49   S    
C68   C69   A    
C51   C52   A    
C12   H4    S    
C2    O4    A    
C26   N3    T    
C5    C7    A    
C53   C54   A    
C6    C8    A    
C27   C35   A    
C41   H5    S    
C36   C39   A    
C31   C37   A    
C42   H9    S    
C32   C34   A    
C47   C48   A    
C44   H11   S    
C9    C11   A    
C50   C51   A    
C29   C31   A    
C33   C34   A    
C3    C55   S    
C1    C16   S    
C2    C15   S    
C1    O1    A    
C66   C67   A    
C2    O2    A    
C59   C64   A    
Cu2   N4    S    
C23   O7    A    
C4    C6    A    
C12   C14   A    
C55   H23   S    
C46   H13   S    
C30   O12   S    
C11   H3    S    
C24   O6    A    
C51   H17   S    
C71   H43   S    
C3    C5    A    
C56   H26   S    
C54   H20   S    
C65   C66   A    
C63   C64   A    
C57   H28   S    
C27   N1    A    
C7    C9    A    
C28   N2    A    
C56   H25   S    
C65   C70   A    
C8    C10   A    
C44   C45   A    
C71   H44   S    
C48   H15   S    
C13   N2    S    
C52   H18   S    
C23   O5    A    
C14   N1    S    
C57   H29   S    
C58   H30   S    
C42   H10   S    
C35   C40   A    
C66   H38   S    
C37   C39   A    
C27   O9    S    
C59   C60   A    
C30   C32   A    
C11   C13   A    
C68   H40   S    
C43   C48   A    
C16   C19   T    
C7    C23   S    
C8    C24   S    
Cu1   O1    S    
C69   H41   S    
C34   C36   A    
C4    C14   A    
Cu1   O4    S    
C63   H36   S    
C43   C44   A    
C38   C42   S    
C28   C36   A    
C9    C57   S    
C49   C50   A    
C39   C43   S    
C10   C58   S    
C67   C68   A    
C21   C22   D    
C60   H33   S    
C21   C72   S    
Cu2   O2    S    
C69   C70   A    
