data_mof_unit_37561.cif
_audit_creation_date              2013-03-05T16:25:01-0500
_audit_creation_method            fapswitch 2.2
_symmetry_space_group_name_H-M    P1
_symmetry_Int_Tables_number       1
_space_group_crystal_system       triclinic
_cell_length_a                    15.153913
_cell_length_b                    13.825969
_cell_length_c                    9.057804
_cell_angle_alpha                 89.998497
_cell_angle_beta                  89.999902
_cell_angle_gamma                 90.002511
_cell_volume                      1897.76873121

loop_
_atom_site_label
_atom_site_type_symbol
_atom_site_description
_atom_site_fract_x
_atom_site_fract_y
_atom_site_fract_z
_atom_type_partial_charge
O1    O     O_R   0.371460 0.581430 0.500010 -0.552662
O2    O     O_R   0.628540 0.418570 0.499990 -0.552785
O3    O     O_R   0.628540 0.581430 0.499990 -0.552669
O4    O     O_R   0.371460 0.418570 0.500010 -0.552786
C1    C     C_R   0.329847 0.499998 0.500007 0.906608
C2    C     C_R   0.670153 0.500002 0.499982 0.906653
O5    O     O_R   0.500000 0.581420 0.288390 -0.579301
O6    O     O_R   0.500000 0.418580 0.711610 -0.579279
O7    O     O_R   0.500000 0.581420 0.711610 -0.579315
O8    O     O_R   0.500000 0.418580 0.288390 -0.579276
C3    C     C_R   0.434614 0.106627 0.577609 0.366160
C4    C     C_R   0.434756 0.893371 0.422101 0.366009
C5    C     C_R   0.565412 0.106629 0.422422 0.366146
C6    C     C_R   0.565228 0.893347 0.577953 0.365676
C7    C     C_R   0.500000 0.500001 0.220476 0.818147
C8    C     C_R   0.500000 0.499999 0.779524 0.818113
Cu1   Cu    Cu3+1 0.500000 0.596430 0.500000 0.964770
Cu2   Cu    Cu3+1 0.500000 0.403570 0.500000 0.964619
H1    H     H_    0.391734 0.250335 0.644387 0.179095
H2    H     H_    0.391948 0.749700 0.355099 0.178977
H3    H     H_    0.608248 0.250372 0.355607 0.179088
H4    H     H_    0.608048 0.749713 0.644942 0.178965
N1    N     N_R   0.500000 0.258690 0.500000 -0.217097
N2    N     N_R   0.500000 0.741310 0.500000 -0.217400
C9    C     C_R   0.500018 0.054661 0.500038 0.061349
C10   C     C_R   0.500001 0.945352 0.500032 0.060890
C11   C     C_1   0.500000 0.500001 0.065536 -0.198684
C12   C     C_1   0.500000 0.499999 0.934464 -0.198671
C13   C     C_R   0.094541 0.574155 0.425567 0.415309
C14   C     C_R   0.905452 0.425815 0.425552 0.415319
C15   C     C_R   0.905474 0.574158 0.574347 0.415320
C16   C     C_R   0.094533 0.425798 0.574341 0.415322
C17   C     C_R   0.186761 0.572996 0.423418 0.333187
C18   C     C_R   0.813232 0.427000 0.423375 0.333191
C19   C     C_R   0.813254 0.573006 0.576515 0.333170
C20   C     C_R   0.186753 0.426978 0.576545 0.333156
C21   C     C_R   0.233145 0.499992 0.499993 -0.407538
C22   C     C_R   0.766856 0.500003 0.499959 -0.407535
C23   C     C_R   0.048323 0.499972 0.499944 -0.177084
C24   C     C_R   0.951677 0.499979 0.499953 -0.177094
C25   C     C_R   0.438171 0.209409 0.579210 -0.055815
C26   C     C_R   0.438295 0.790597 0.420515 -0.055247
C27   C     C_R   0.561834 0.209420 0.420797 -0.055935
C28   C     C_R   0.561701 0.790591 0.579501 -0.054493
O9    O     O_3   0.051293 0.653055 0.364612 -0.491469
C29   C     C_3   0.011798 0.627389 0.228906 -0.271157
H5    H     H_    0.942878 0.603117 0.246978 0.146496
H6    H     H_    0.048971 0.571383 0.166323 0.093724
H7    H     H_    0.008901 0.692765 0.158113 0.181970
O10   O     O_3   0.948691 0.346916 0.364584 -0.491517
C30   C     C_3   0.988178 0.372591 0.228874 -0.271253
H8    H     H_    0.057096 0.396869 0.246938 0.146466
H9    H     H_    0.950997 0.428594 0.166295 0.093794
H10   H     H_    0.991078 0.307217 0.158081 0.181922
O11   O     O_3   0.948739 0.653049 0.635303 -0.491461
C31   C     C_3   0.988233 0.627368 0.771004 -0.271196
H11   H     H_    0.057149 0.603093 0.752926 0.146482
H12   H     H_    0.951054 0.571358 0.833583 0.093720
H13   H     H_    0.991140 0.692737 0.841806 0.181978
O12   O     O_3   0.051278 0.346893 0.635279 -0.491514
C32   C     C_3   0.011782 0.372550 0.770986 -0.271231
H14   H     H_    0.942865 0.396826 0.752913 0.146453
H15   H     H_    0.048959 0.428550 0.833582 0.093783
H16   H     H_    0.008876 0.307169 0.841767 0.181931
O13   O     O_3   0.231090 0.647014 0.351962 -0.538546
C33   C     C_3   0.255255 0.615444 0.209294 -0.295433
H17   H     H_    0.296303 0.548775 0.212282 0.133404
H18   H     H_    0.295316 0.672793 0.156049 0.177861
H19   H     H_    0.196389 0.603441 0.138904 0.147815
O14   O     O_3   0.768891 0.353026 0.351835 -0.538630
C34   C     C_3   0.744735 0.384674 0.209199 -0.295827
H20   H     H_    0.703861 0.451457 0.212206 0.133424
H21   H     H_    0.704508 0.327464 0.156004 0.177590
H22   H     H_    0.803592 0.396492 0.138752 0.147987
O15   O     O_3   0.768940 0.647039 0.647941 -0.538594
C35   C     C_3   0.744786 0.615504 0.790634 -0.295362
H23   H     H_    0.703716 0.548847 0.787695 0.133364
H24   H     H_    0.704754 0.672879 0.843862 0.178099
H25   H     H_    0.803657 0.603498 0.861008 0.147824
O16   O     O_3   0.231076 0.352980 0.648050 -0.538644
C36   C     C_3   0.255235 0.384586 0.790705 -0.295629
H26   H     H_    0.296225 0.451300 0.787704 0.133451
H27   H     H_    0.295353 0.327289 0.843941 0.177698
H28   H     H_    0.196368 0.396523 0.861111 0.147871
O17   O     O_3   0.373334 0.054773 0.660062 -0.575344
C37   C     C_3   0.287498 0.093036 0.643705 -0.235155
H29   H     H_    0.273101 0.115608 0.528036 0.174966
H30   H     H_    0.277013 0.154015 0.721454 0.186990
H31   H     H_    0.239230 0.035840 0.672911 0.182550
O18   O     O_3   0.373643 0.945133 0.339224 -0.575030
C38   C     C_3   0.287641 0.907537 0.356894 -0.234653
H32   H     H_    0.273387 0.886040 0.473128 0.174937
H33   H     H_    0.276635 0.845935 0.280445 0.187195
H34   H     H_    0.239614 0.964801 0.326861 0.182670
O19   O     O_3   0.626668 0.054741 0.339956 -0.575553
C39   C     C_3   0.712448 0.093340 0.355401 -0.235894
H35   H     H_    0.727089 0.116302 0.470807 0.175026
H36   H     H_    0.722566 0.154112 0.277122 0.186911
H37   H     H_    0.760792 0.036218 0.326237 0.182423
O20   O     O_3   0.626307 0.945007 0.661005 -0.574802
C40   C     C_3   0.712435 0.908081 0.641714 -0.234922
H38   H     H_    0.726400 0.887771 0.524837 0.174841
H39   H     H_    0.724025 0.845795 0.716693 0.187815
H40   H     H_    0.760277 0.965368 0.672565 0.182809

loop_
_geom_bond_atom_site_label_1
_geom_bond_atom_site_label_2
_geom_bond_distance
_ccdc_geom_bond_type
C8    C12   1.403419 S    
C33   H18   1.108953 S    
O11   C31   1.412473 S    
C40   H38   1.115532 S    
C1    C21   1.465414 S    
O2    Cu2   1.958883 S    
N2    C26   1.362759 A    
O19   C39   1.412100 S    
C35   H25   1.108951 S    
O3    C2    1.290429 A    
C36   H26   1.112346 S    
C17   O13   1.384692 S    
O17   C37   1.412024 S    
C15   C24   1.412881 A    
C29   H7    1.109091 S    
C19   O15   1.384680 S    
C5    O19   1.390822 S    
O1    C1    1.290426 A    
C16   C20   1.397737 A    
C4    O18   1.390460 S    
C20   C21   1.412082 A    
O7    C8    1.282820 A    
C35   H24   1.108962 S    
O8    C7    1.282819 A    
C37   H30   1.109976 S    
C33   H19   1.108959 S    
C3    C9    1.411485 A    
C39   H37   1.109177 S    
C13   C17   1.397729 A    
N1    C27   1.362650 A    
C31   H11   1.109127 S    
C16   C23   1.412875 A    
C32   H15   1.112795 S    
C4    C26   1.422036 A    
H3    C27   1.078840 S    
H4    C28   1.078920 S    
O5    Cu1   1.927930 S    
C39   H36   1.110038 S    
C2    C22   1.465415 S    
O3    Cu1   1.958901 S    
O14   C34   1.412315 S    
C18   O14   1.384698 S    
C38   H32   1.115085 S    
C3    O17   1.390698 S    
O4    Cu2   1.958904 S    
O5    C7    1.282829 A    
C33   H17   1.112362 S    
C14   O10   1.387214 S    
C40   H39   1.110712 S    
C5    C9    1.411538 A    
O2    C2    1.290425 A    
C36   H27   1.108930 S    
O10   C30   1.412465 S    
C29   H6    1.112795 S    
Cu1   N2    2.003105 S    
C14   C18   1.397733 A    
C30   H8    1.109124 S    
C19   C22   1.412064 A    
C35   H23   1.112356 S    
C20   O16   1.384694 S    
C23   C24   1.464571 S    
C34   H21   1.108787 S    
C37   H29   1.114753 S    
O16   C36   1.412306 S    
C9    C10   1.511304 S    
O9    C29   1.412469 S    
C17   C21   1.412075 A    
Cu2   N1    2.003105 S    
C4    C10   1.411499 A    
O12   C32   1.412470 S    
C30   H9    1.112797 S    
C32   H16   1.109093 S    
O15   C35   1.412283 S    
C38   H33   1.110291 S    
C7    C11   1.403418 S    
C39   H35   1.114784 S    
C13   C23   1.412884 A    
Cu1   Cu2   2.666478 S    
C14   C24   1.412878 A    
C6    C10   1.411454 A    
O7    Cu1   1.927918 S    
C40   H40   1.109498 S    
N2    C28   1.362730 A    
C15   C19   1.397734 A    
C16   O12   1.387216 S    
C5    C27   1.422304 A    
C36   H28   1.108932 S    
C6    C28   1.421768 A    
C29   H5    1.109123 S    
C18   C22   1.412080 A    
O4    C1    1.290425 A    
C37   H31   1.109182 S    
C34   H22   1.108760 S    
H2    C26   1.078912 S    
C6    O20   1.390238 S    
O1    Cu1   1.958886 S    
N1    C25   1.362648 A    
C31   H13   1.109095 S    
C30   H10   1.109092 S    
C34   H20   1.112203 S    
C38   H34   1.109305 S    
O18   C38   1.412181 S    
O8    Cu2   1.927919 S    
O20   C40   1.412342 S    
C31   H12   1.112799 S    
C3    C25   1.422153 A    
C32   H14   1.109127 S    
O6    Cu2   1.927928 S    
O6    C8    1.282830 A    
O13   C33   1.412294 S    
C13   O9    1.387221 S    
C11   C12   1.187217 T    
C15   O11   1.387219 S    
H1    C25   1.078863 S    
