data_mof_unit_57090.cif
_audit_creation_date              2012-12-10T16:44:15-0500
_audit_creation_method            fapswitch 2.2
_symmetry_space_group_name_H-M    P1
_symmetry_Int_Tables_number       1
_space_group_crystal_system       triclinic
_cell_length_a                    7.486258
_cell_length_b                    8.690739
_cell_length_c                    13.405178
_cell_angle_alpha                 94.948704
_cell_angle_beta                  77.980984
_cell_angle_gamma                 103.098377
_cell_volume                      830.143766845

loop_
_atom_site_label
_atom_site_type_symbol
_atom_type_description
_atom_site_fract_x
_atom_site_fract_y
_atom_site_fract_z
_atom_type_partial_charge
C1    C     C_R   0.545391 0.800048 0.502923 0.886844
C2    C     C_R   0.413729 0.503690 0.975945 0.077360
C3    C     C_R   0.459909 0.552700 0.873858 0.072306
C4    C     C_R   0.553127 0.544079 0.037308 0.070440
C5    C     C_R   0.727904 0.644633 0.999189 0.150041
C6    C     C_R   0.759330 0.708717 0.903872 -0.219979
C7    C     C_R   0.626178 0.665120 0.842673 -0.175681
C8    C     C_R   0.524622 0.487731 0.135495 -0.244912
C9    C     C_R   0.832710 0.631132 0.156994 -0.203928
C10   C     C_R   0.336664 0.490299 0.806027 -0.101896
C11   C     C_2   0.570480 0.968148 0.504813 -0.366868
C12   C     C_R   0.399994 0.496392 0.694261 0.786295
C13   C     C_2   0.430982 0.031999 0.493267 -0.350244
C14   C     C_R   0.455129 0.200005 0.496343 0.871943
C15   C     C_R   0.600289 0.510812 0.306282 0.776872
C16   C     C_R   0.867536 0.684060 0.058222 -0.180148
C17   C     C_R   0.658573 0.537131 0.196902 -0.047456
C18   C     C_R   0.155813 0.405501 0.844885 -0.165707
C19   C     C_R   0.101720 0.373522 0.947804 -0.139710
C20   C     C_R   0.229640 0.418081 0.012443 -0.186889
Cu1   Cu    Cu3+1 0.321300 0.483160 0.488710 0.987932
Cu2   Cu    Cu3+1 0.678700 0.516840 0.511290 0.989178
H1    H     H_    0.937746 0.670322 0.203700 0.157984
H2    H     H_    0.297248 0.960575 0.481320 0.196032
H3    H     H_    0.989381 0.380518 0.420471 0.194037
H4    H     H_    0.887668 0.792929 0.876463 0.164076
H5    H     H_    0.001453 0.760069 0.029133 0.143573
H6    H     H_    0.396981 0.407795 0.167542 0.142763
H7    H     H_    0.057325 0.359765 0.795092 0.170998
H8    H     H_    0.178408 0.387050 0.090910 0.129596
H9    H     H_    0.961316 0.308966 0.977113 0.149905
H10   H     H_    0.652838 0.723194 0.771374 0.179722
H11   H     H_    0.704635 0.039706 0.516172 0.181527
N1    N     N_2   0.947230 0.542220 0.528320 -0.004111
N2    N     N_2   0.052770 0.457780 0.471680 -0.182031
O1    O     O_R   0.383920 0.714220 0.492660 -0.550221
O2    O     O_R   0.685730 0.742660 0.511730 -0.576466
O3    O     O_R   0.275440 0.478800 0.636790 -0.553386
O4    O     O_R   0.577250 0.507240 0.655860 -0.567206
O5    O     O_R   0.314270 0.257340 0.488270 -0.587225
O6    O     O_R   0.616080 0.285780 0.507340 -0.590066
O7    O     O_R   0.422750 0.492760 0.344140 -0.588072
O8    O     O_R   0.724560 0.521200 0.363210 -0.601994
I1    I     I_    0.030553 0.709564 0.639280 -0.295230

loop_
_geom_bond_atom_site_label_1
_geom_bond_atom_site_label_2
_ccdc_geom_bond_type
C2    C4    A    
C6    C7    A    
Cu1   N2    S    
C15   O7    A    
C8    C17   A    
C1    C11   S    
C1    O2    A    
C4    C8    A    
C19   H9    S    
C12   O4    A    
C2    C3    A    
C15   O8    A    
Cu1   O1    S    
C20   H8    S    
C13   C14   S    
C11   C13   D    
C6    H4    S    
Cu1   O5    S    
C10   C12   S    
H3    N2    S    
C14   O6    A    
C8    H6    S    
Cu2   O4    S    
C9    C17   A    
C9    C16   A    
C10   C18   A    
C18   C19   A    
C3    C7    A    
C12   O3    A    
C5    C6    A    
Cu2   N1    S    
Cu2   O6    S    
C18   H7    S    
Cu1   O7    S    
C11   H11   S    
N1    I1    S    
C13   H2    S    
C15   C17   S    
N1    N2    D    
C16   H5    S    
C3    C10   A    
C2    C20   A    
C9    H1    S    
C5    C16   A    
C7    H10   S    
Cu1   Cu2   S    
Cu2   O2    S    
C14   O5    A    
Cu2   O8    S    
Cu1   O3    S    
C19   C20   A    
C1    O1    A    
C4    C5    A    
