data_mof_unit_20836.cif
_audit_creation_date              2013-03-05T16:12:50-0500
_audit_creation_method            fapswitch 2.2
_symmetry_space_group_name_H-M    P1
_symmetry_Int_Tables_number       1
_space_group_crystal_system       triclinic
_cell_length_a                    8.425547
_cell_length_b                    16.363908
_cell_length_c                    18.82308
_cell_angle_alpha                 111.90055
_cell_angle_beta                  91.386163
_cell_angle_gamma                 83.127799
_cell_volume                      2390.05060026

loop_
_atom_site_label
_atom_site_type_symbol
_atom_site_description
_atom_site_fract_x
_atom_site_fract_y
_atom_site_fract_z
_atom_type_partial_charge
P1    P     P_3+3 0.582960 0.413890 0.320860 0.510146
O1    O     O_2   0.402610 0.439360 0.314250 -0.378746
O2    O     O_3   0.648560 0.446300 0.404730 -0.296745
O3    O     O_3   0.108870 0.604000 0.387500 -0.358776
O4    O     O_2   0.218378 0.512419 0.247991 -0.404962
O5    O     O_3   0.626359 0.296540 0.288575 -0.600395
O6    O     O_3   0.152936 0.675135 0.267075 -0.575365
H1    H     H_    0.111527 0.766936 0.376105 0.141226
C1    C     C_3   0.141300 0.832852 0.296845 -0.797684
H2    H     H_    0.270947 0.833255 0.303374 0.252496
P2    P     P_3+3 0.071690 0.707860 0.593450 0.493700
P3    P     P_3+3 0.489519 0.766209 0.458367 0.451985
O7    O     O_2   0.241370 0.719440 0.573960 -0.366621
O8    O     O_3   0.507090 0.652150 0.432150 -0.398537
O9    O     O_2   0.323896 0.804448 0.497924 -0.352706
O10   O     O_3   0.071742 0.737646 0.693057 -0.541048
O11   O     O_3   0.473749 0.785526 0.372538 -0.555888
C2    C     C_3   0.518964 0.706084 0.308977 0.363381
H3    H     H_    0.428308 0.659615 0.298868 0.161140
H4    H     H_    0.631820 0.670728 0.319395 0.046076
C3    C     C_3   0.546873 0.727150 0.237225 -0.510169
H5    H     H_    0.566210 0.797940 0.255048 0.220772
C4    C     C_3   0.631194 0.739723 0.673073 0.381217
H6    H     H_    0.762978 0.725999 0.667245 0.083787
H7    H     H_    0.576309 0.713113 0.615915 0.078257
C5    C     C_3   0.581396 0.840204 0.707568 -0.434952
H8    H     H_    0.649020 0.874577 0.679751 0.142937
H9    H     H_    0.452956 0.852555 0.695552 0.179831
Ba1   Ba    Ba6+2 0.333520 0.539550 0.472180 1.577821
C6    C     C_3   0.504146 0.247130 0.248117 0.480818
H10   H     H_    0.387221 0.288244 0.262147 0.128799
C7    C     C_3   0.529610 0.216388 0.159584 -0.777357
H11   H     H_    0.600843 0.262665 0.147876 0.188058
H12   H     H_    0.412119 0.222798 0.133257 0.141988
C8    C     C_3   0.152988 0.669662 0.712182 0.436583
H13   H     H_    0.277298 0.655712 0.689537 0.099333
H14   H     H_    0.090164 0.609407 0.689584 0.110134
C9    C     C_3   0.156302 0.700235 0.799179 -0.991989
H15   H     H_    0.212177 0.762767 0.823572 0.279554
H16   H     H_    0.225919 0.649419 0.816834 0.221665
H17   H     H_    0.032878 0.711522 0.823002 0.250344
P4    P     P_3+3 0.606720 0.586180 0.679160 0.475984
O12   O     O_2   0.787080 0.560670 0.685800 -0.374864
O13   O     O_3   0.541120 0.553770 0.595290 -0.363964
O14   O     O_3   0.080800 0.396070 0.612520 -0.316575
O15   O     O_3   0.577522 0.701887 0.721813 -0.578963
P5    P     P_3+3 0.704264 0.232189 0.544770 0.491964
O16   O     O_3   0.164600 0.390590 0.443970 -0.326727
O17   O     O_3   0.682580 0.347920 0.567870 -0.343826
O18   O     O_2   0.852209 0.190620 0.491035 -0.348666
O19   O     O_3   0.761347 0.214925 0.628421 -0.466851
Ba2   Ba    Ba6+2 0.856270 0.460520 0.527840 1.621361
P6    P     P_3+3 0.089148 0.588818 0.290198 0.421088
C10   C     C_3   0.080301 0.758204 0.315947 0.580814
H18   H     H_    0.115996 0.821434 0.236034 0.181096
O20   O     O_3   0.025080 0.609480 0.556050 -0.399409
C11   C     C_3   0.006683 0.221034 0.260500 0.477278
H19   H     H_    0.911763 0.212815 0.295744 0.086594
C12   C     C_3   0.036971 0.131201 0.191735 -0.108604
H20   H     H_    0.920140 0.118178 0.164407 0.165997
P7    P     P_3+3 0.127652 0.277652 0.401341 0.468971
O21   O     O_2   0.948320 0.280590 0.426090 -0.356766
O22   O     O_3   0.148897 0.242266 0.300981 -0.634961
H21   H     H_    0.656482 0.686992 0.205935 0.172920
C13   C     C_3   0.626294 0.238687 0.677086 0.304542
H22   H     H_    0.566499 0.305713 0.683617 0.062475
H23   H     H_    0.541590 0.188485 0.653286 0.015997
C14   C     C_3   0.675152 0.242374 0.756843 -0.637478
H24   H     H_    0.774885 0.283562 0.777481 0.221652
H25   H     H_    0.571835 0.274424 0.796996 0.147668
P8    P     P_3+3 0.100620 0.408924 0.708438 0.516766
C15   C     C_3   0.201217 0.245510 0.672492 0.306625
H26   H     H_    0.307789 0.262411 0.707991 0.003375
O23   O     O_2   0.953658 0.471894 0.752410 -0.336590
O24   O     O_3   0.068678 0.305835 0.709491 -0.481268
H27   H     H_    0.223003 0.245280 0.614356 0.103107
H28   H     H_    0.280233 0.105792 0.636092 0.203151
C16   C     C_3   0.172933 0.152588 0.663635 -0.702139
H29   H     H_    0.068207 0.132573 0.626990 0.302693
H30   H     H_    0.151667 0.149831 0.720647 0.256706
C17   C     C_R   0.522797 0.452104 0.037292 0.056427
C18   C     C_R   0.441239 0.416413 0.081417 -0.176861
C19   C     C_R   0.349088 0.396233 0.924872 -0.169059
C20   C     C_R   0.472601 0.446131 0.962566 0.048704
C21   C     C_R   0.291416 0.397592 0.855518 -0.092517
C22   C     C_R   0.356248 0.446661 0.818767 -0.033365
C23   C     C_R   0.488599 0.492456 0.852009 0.001656
C24   C     C_R   0.546157 0.492477 0.924388 0.024833
C25   C     C_R   0.291928 0.452238 0.750303 0.127918
C26   C     C_R   0.370891 0.495575 0.712591 -0.439981
C27   C     C_R   0.509668 0.534884 0.739775 0.236818
C28   C     C_R   0.560923 0.539996 0.814014 -0.029784
C29   C     C_R   0.659301 0.494609 0.069111 0.044803
C30   C     C_R   0.712588 0.498254 0.143264 0.018938
C31   C     C_R   0.627689 0.461243 0.186389 -0.073888
C32   C     C_R   0.493729 0.419982 0.152946 -0.108652
H31   H     H_    0.316193 0.505503 0.664100 0.192710
H32   H     H_    0.192129 0.360835 0.832513 0.183166
H33   H     H_    0.425677 0.389019 0.181058 0.168785
C33   C     C_R   0.674108 0.595493 0.853933 -0.056659
C34   C     C_R   0.724503 0.598276 0.925994 -0.135103
C35   C     C_R   0.675068 0.540157 0.958693 0.061938
C36   C     C_R   0.744377 0.532038 0.026594 -0.034568
C37   C     C_R   0.898653 0.556218 0.052438 -0.112729
C38   C     C_R   0.852616 0.537308 0.173345 -0.052466
C39   C     C_R   0.946281 0.562216 0.125899 -0.231479
C40   C     C_R   0.899109 0.546543 0.248682 0.192106
C41   C     C_R   0.810185 0.512937 0.291620 -0.444584
C42   C     C_R   0.679017 0.466970 0.261223 0.203710
H34   H     H_    0.721652 0.639336 0.831030 0.151072
H35   H     H_    0.063308 0.581294 0.143458 0.222884
H36   H     H_    0.849927 0.518018 0.348054 0.182053
H37   H     H_    0.292853 0.355163 0.947586 0.128666
H38   H     H_    0.333269 0.386018 0.062953 0.126807
H39   H     H_    0.803427 0.646949 0.955939 0.113508
C43   C     C_2   0.400200 0.236868 0.483435 -0.566877
C44   C     C_R   0.784494 0.755610 0.530157 -0.539852
C45   C     C_2   0.236847 0.119109 0.418047 -0.263571
C46   C     C_2   0.260044 0.203804 0.437938 0.213684
C47   C     C_2   0.520531 0.183001 0.497888 0.051084
C48   C     C_3   0.514690 0.083585 0.461734 -0.004806
C49   C     C_3   0.343210 0.058852 0.447426 0.163525
C50   C     C_2   0.618017 0.030069 0.499394 -0.169324
C51   C     C_2   0.565648 0.968157 0.521470 -0.151349
C52   C     C_R   0.818816 0.934966 0.580342 0.086583
C53   C     C_R   0.678911 0.905477 0.542964 -0.043715
C54   C     C_R   0.939345 0.877228 0.594618 -0.271555
C55   C     C_R   0.924678 0.785846 0.567852 0.235793
C56   C     C_R   0.658331 0.814742 0.519492 0.200747
H40   H     H_    0.134797 0.094910 0.384147 0.187448
H41   H     H_    0.772745 0.685464 0.509406 0.181698
H42   H     H_    0.745026 0.036299 0.500804 0.209604
H43   H     H_    0.440692 0.957641 0.516827 0.206668
N1    N     N_2   0.602668 0.877014 0.789838 -0.067242
H44   H     H_    0.533576 0.937022 0.816357 0.196286
C57   C     C_3   0.766348 0.878214 0.814937 -0.726204
H45   H     H_    0.832470 0.916033 0.789709 0.255071
H46   H     H_    0.826755 0.809612 0.798256 0.260573
H47   H     H_    0.767975 0.910181 0.878337 0.226510
N2    N     N_2   0.491647 0.173579 0.272927 -0.124078
H48   H     H_    0.404804 0.134281 0.246638 0.182783
C58   C     C_3   0.634618 0.125621 0.289725 -0.784411
H49   H     H_    0.601073 0.069799 0.303910 0.240285
H50   H     H_    0.695659 0.168849 0.339862 0.247297
H51   H     H_    0.718980 0.097991 0.240153 0.239132
C59   C     C_2   0.608015 0.123555 0.115192 1.100579
O25   O     O_2   0.716708 0.112930 0.069633 -0.670545
O26   O     O_R   0.548820 0.049496 0.119929 -0.835080
H52   H     H_    0.610609 0.991504 0.085760 0.316263
C60   C     C_2   0.062546 0.922547 0.348412 1.065171
O27   O     O_2   0.095423 0.950986 0.416108 -0.597854
O28   O     O_R   0.944268 0.971127 0.321966 -0.777187
H53   H     H_    0.912017 0.937529 0.267661 0.293051
N3    N     N_2   0.910183 0.763590 0.304782 -0.145111
H54   H     H_    0.870774 0.770801 0.254893 0.160794
C61   C     C_3   0.815680 0.813548 0.372586 -0.980801
H55   H     H_    0.712317 0.854283 0.360237 0.292794
H56   H     H_    0.882918 0.858801 0.418790 0.263696
H57   H     H_    0.782233 0.764097 0.393267 0.262106
N4    N     N_2   0.946103 0.290860 0.233093 -0.115390
H58   H     H_    0.856790 0.274639 0.193740 0.148254
C62   C     C_3   0.060943 0.339744 0.215040 -0.771827
H59   H     H_    0.004512 0.375689 0.179701 0.216993
H60   H     H_    0.164006 0.295670 0.181229 0.229324
H61   H     H_    0.103927 0.387103 0.269060 0.286488
N5    N     N_2   0.090175 0.058885 0.217131 -0.099357
H62   H     H_    0.190937 0.067267 0.249861 0.186689
C63   C     C_3   0.094209 0.970820 0.158523 -0.887763
H63   H     H_    0.174743 0.962731 0.109949 0.265429
H64   H     H_    0.971909 0.958019 0.137354 0.252498
H65   H     H_    0.141408 0.920917 0.182606 0.237396
N6    N     N_2   0.151917 0.135676 0.137118 -0.108146
H66   H     H_    0.263908 0.103066 0.136754 0.231532
C64   C     C_3   0.094955 0.125863 0.061593 -0.830349
H67   H     H_    0.192176 0.134795 0.027321 0.235373
H68   H     H_    0.992971 0.177239 0.065821 0.275340
H69   H     H_    0.057717 0.058705 0.031992 0.273658
C65   C     C_2   0.722805 0.151415 0.757553 1.131117
O29   O     O_2   0.845539 0.107608 0.724437 -0.641679
O30   O     O_R   0.626498 0.117454 0.796662 -0.810593
H70   H     H_    0.670496 0.055542 0.792807 0.313842
C66   C     C_2   0.024841 0.560846 0.000739 0.985298
O31   O     O_2   0.024833 0.516111 0.932336 -0.634077
O32   O     O_R   0.147745 0.613306 0.030462 -0.830390
H71   H     H_    0.226838 0.609904 0.989407 0.321931
C67   C     C_2   0.077101 0.915845 0.638233 1.154858
O33   O     O_2   0.158089 0.957005 0.613691 -0.641510
O34   O     O_R   0.110659 0.908824 0.708879 -0.788101
H72   H     H_    0.202434 0.942488 0.735224 0.307083
C68   C     C_2   0.417999 0.328706 0.499804 1.189413
O35   O     O_2   0.354459 0.385901 0.555991 -0.621224
O36   O     O_R   0.508322 0.351518 0.451630 -0.674700
H73   H     H_    0.573133 0.297999 0.413782 0.292514
N7    N     N_2   0.414219 0.709163 0.185501 -0.059251
H74   H     H_    0.393569 0.643530 0.164089 0.244850
C69   C     C_3   0.415757 0.746507 0.126916 -0.828434
H75   H     H_    0.511344 0.709082 0.083379 0.237273
H76   H     H_    0.435028 0.817625 0.152336 0.242479
H77   H     H_    0.298457 0.743300 0.098862 0.276406

loop_
_geom_bond_atom_site_label_1
_geom_bond_atom_site_label_2
_geom_bond_distance
_ccdc_geom_bond_type
C37   C66   1.485751 S    
C23   C24   1.434918 A    
C30   C38   1.413913 A    
C33   H34   1.081160 S    
C68   O35   1.204235 D    
C50   H42   1.085801 S    
P7    C46   1.854829 S    
C2    C3    1.542810 S    
C19   H37   1.076723 S    
N7    C69   1.447400 S    
C31   C32   1.398935 A    
C15   H27   1.112514 S    
C29   C36   1.424057 A    
C37   C39   1.401440 A    
C65   O29   1.221578 D    
C11   H19   1.102619 S    
C50   C51   1.350445 D    
P5    O17   1.765142 S    
C21   C22   1.399751 A    
C47   C48   1.517819 S    
C38   C40   1.419381 A    
C5    H8    1.107251 S    
C34   C35   1.414472 A    
C51   H43   1.083231 S    
O1    Ba1   2.843140 S    
C5    N1    1.452443 S    
O7    Ba1   2.873406 S    
C61   H55   1.106192 S    
C8    H14   1.111058 S    
N2    C58   1.451688 S    
P4    C27   1.897084 S    
C15   O24   1.402684 S    
O10   C8    1.392987 S    
O19   C13   1.401410 S    
C9    H15   1.110788 S    
O3    P6    1.760549 S    
C16   H30   1.110475 S    
O12   Ba2   2.843644 S    
C11   C12   1.551846 S    
O14   P8    1.744244 S    
P7    O21   1.581877 D    
C32   H33   1.072240 S    
C54   C67   1.470671 S    
C41   C42   1.400664 A    
O2    Ba1   2.955444 S    
P1    O1    1.541491 D    
C45   C49   1.500848 S    
C4    C5    1.533905 S    
P7    O22   1.763944 S    
C64   H67   1.110430 S    
C3    H21   1.106325 S    
C15   C16   1.514057 S    
C21   H32   1.075955 S    
P1    C42   1.899783 S    
C45   C46   1.331698 D    
C63   H65   1.104638 S    
C8    H13   1.105715 S    
C14   H24   1.111629 S    
C13   H23   1.111388 S    
P3    O11   1.757313 S    
C4    H6    1.105983 S    
C54   C55   1.408700 A    
C11   O22   1.412459 S    
C1    H18   1.108502 S    
C3    N7    1.447784 S    
C6    C7    1.562778 S    
C44   C56   1.412440 A    
C1    H2    1.096806 S    
C26   H31   1.069704 S    
N3    C61   1.430481 S    
O3    Ba1   2.804635 S    
C26   C27   1.395805 A    
C15   H26   1.105346 S    
O17   Ba2   2.799789 S    
C63   H64   1.110856 S    
N7    H74   1.031811 S    
C12   H20   1.105858 S    
C4    O15   1.392952 S    
C3    H5    1.110686 S    
N5    C63   1.448804 S    
C58   H51   1.104891 S    
C30   C31   1.426859 A    
P4    O13   1.575556 S    
C69   H77   1.106731 S    
C44   C55   1.407381 A    
N6    C64   1.446446 S    
C17   C18   1.410218 A    
P5    O18   1.544150 D    
C59   O26   1.397417 S    
C39   H35   1.076962 S    
C1    C60   1.507331 S    
P8    O24   1.747113 S    
C6    N2    1.459387 S    
P3    C56   1.867363 S    
Ba1   O16   2.842079 S    
P1    O5    1.778414 S    
C8    C9    1.524005 S    
C18   C32   1.389419 A    
N2    H48   1.025423 S    
C18   H38   1.076928 S    
C9    H17   1.109700 S    
C69   H76   1.111629 S    
C31   C42   1.435866 A    
H1    C10   1.116136 S    
C27   C28   1.427760 A    
C16   H29   1.110320 S    
C2    H3    1.105386 S    
P5    O19   1.747294 S    
O14   Ba2   2.804014 S    
H28   C16   1.110557 S    
C41   H36   1.082119 S    
C7    H11   1.105405 S    
O34   H72   1.013352 S    
P1    O2    1.575556 S    
C7    H12   1.107585 S    
N1    C57   1.446906 S    
C45   H40   1.081539 S    
C62   H61   1.107776 S    
C17   C29   1.418671 A    
P2    O10   1.752472 S    
P6    C40   1.858567 S    
C65   O30   1.396862 S    
C19   C20   1.410164 A    
P8    C25   1.875312 S    
P3    O9    1.544999 D    
C6    H10   1.101973 S    
C40   C41   1.405867 A    
C13   C14   1.528198 S    
P1    Ba1   3.412384 S    
O11   C2    1.417664 S    
N3    H54   1.031604 S    
C29   C30   1.437817 A    
O26   H52   1.013857 S    
C64   H69   1.110808 S    
C48   C49   1.537407 S    
C12   N5    1.454140 S    
C57   H46   1.107209 S    
P5    C47   1.877574 S    
O5    C6    1.412780 S    
C11   N4    1.455912 S    
P3    O8    1.731874 S    
Ba1   O13   2.825353 S    
P4    O15   1.747630 S    
C52   C53   1.400044 A    
C34   H39   1.080736 S    
C60   O28   1.398028 S    
P4    O12   1.541780 D    
O6    P6    1.767758 S    
O8    Ba1   2.799173 S    
C67   O34   1.396242 S    
C12   N6    1.456557 S    
C17   C20   1.430183 A    
O30   H70   1.012760 S    
C28   C33   1.400828 A    
C51   C53   1.477517 S    
C59   O25   1.221891 D    
O4    P6    1.534559 D    
C43   C68   1.442989 S    
C63   H63   1.110020 S    
C68   O36   1.376464 S    
C19   C21   1.388956 A    
C22   C23   1.418818 A    
C61   H57   1.086570 S    
C20   C24   1.419953 A    
C69   H75   1.111200 S    
C22   C25   1.415929 A    
C10   N3    1.440620 S    
P8    O23   1.545348 D    
C24   C35   1.413679 A    
O2    Ba2   2.825916 S    
N1    H44   1.031459 S    
Ba1   O20   2.948651 S    
C62   H59   1.106423 S    
C38   C39   1.403276 A    
C5    H9    1.110416 S    
C53   C56   1.413642 A    
C43   C46   1.476133 S    
O36   H73   1.005801 S    
C61   H56   1.105349 S    
P2    C55   1.856487 S    
C67   O33   1.220659 D    
C62   H60   1.101680 S    
Ba2   O21   2.873593 S    
C57   H47   1.110497 S    
C9    H16   1.107230 S    
P2    O7    1.535075 D    
O13   Ba2   2.956230 S    
O16   P7    1.782016 S    
N5    H62   1.028905 S    
Ba2   O20   2.841523 S    
C14   C65   1.499468 S    
C33   C34   1.397459 A    
C64   H68   1.109957 S    
C2    H4    1.105132 S    
C4    H7    1.111594 S    
C35   C36   1.436726 A    
C44   H41   1.082025 S    
N4    H58   1.029374 S    
C66   O32   1.395958 S    
C48   C50   1.509339 S    
N6    H66   1.025791 S    
C43   C47   1.352985 D    
O16   Ba2   2.947864 S    
C7    C59   1.510604 S    
O28   H53   1.011947 S    
P2    Ba1   3.429657 S    
C14   H25   1.109476 S    
C13   H22   1.114488 S    
P4    Ba2   3.412908 S    
C36   C37   1.425394 A    
C52   C54   1.393823 A    
C58   H49   1.110386 S    
C57   H45   1.110598 S    
O32   H71   1.014075 S    
C1    C10   1.540270 S    
O6    C10   1.401385 S    
C25   C26   1.400271 A    
C23   C28   1.427445 A    
C58   H50   1.105027 S    
P2    O20   1.591853 S    
C66   O31   1.220878 D    
N4    C62   1.447587 S    
C60   O27   1.220004 D    
Ba1   Ba2   4.625837 S    
