data_mof_unit_41589.cif
_audit_creation_date              2012-12-10T16:48:51-0500
_audit_creation_method            fapswitch 2.2
_symmetry_space_group_name_H-M    P1
_symmetry_Int_Tables_number       1
_space_group_crystal_system       triclinic
_cell_length_a                    17.234411
_cell_length_b                    8.687885
_cell_length_c                    7.510706
_cell_angle_alpha                 103.318465
_cell_angle_beta                  90.491587
_cell_angle_gamma                 94.211035
_cell_volume                      1091.00537052

loop_
_atom_site_label
_atom_site_type_symbol
_atom_type_description
_atom_site_fract_x
_atom_site_fract_y
_atom_site_fract_z
_atom_type_partial_charge
Br1   Br    Br    0.103118 0.611981 0.949348 -0.270100
Br2   Br    Br    0.896909 0.387842 0.050688 -0.270067
Br3   Br    Br    0.399609 0.307236 0.919412 -0.314673
Br4   Br    Br    0.600391 0.692764 0.080590 -0.314697
C1    C     C_R   0.497495 0.199793 0.453380 0.860329
C2    C     C_R   0.779559 0.578304 0.617223 -0.278325
C3    C     C_R   0.140077 0.410897 0.391140 0.650258
C4    C     C_R   0.859933 0.589055 0.608843 0.650288
C5    C     C_R   0.104134 0.469784 0.557403 -0.194872
C6    C     C_R   0.895881 0.530096 0.442612 -0.194856
C7    C     C_R   0.149608 0.531517 0.717884 0.201715
C8    C     C_R   0.850408 0.468340 0.282147 0.201688
C9    C     C_R   0.230666 0.541239 0.708913 0.596941
C10   C     C_R   0.769342 0.458648 0.291113 0.596917
C11   C     C_2   0.019422 0.471823 0.561717 0.008243
C12   C     C_R   0.502505 0.800207 0.546620 0.860323
C13   C     C_2   0.980594 0.528093 0.438293 0.008362
C14   C     C_2   0.495946 0.031400 0.427833 -0.300814
C15   C     C_2   0.504054 0.968599 0.572166 -0.300818
C16   C     C_R   0.351082 0.499389 0.525343 0.885379
C17   C     C_R   0.648918 0.500609 0.474658 0.885387
C18   C     C_R   0.266370 0.488700 0.540236 -0.306210
C19   C     C_R   0.733630 0.511270 0.459770 -0.306152
C20   C     C_R   0.220442 0.421714 0.382756 -0.278312
Cu1   Cu    Cu3+1 0.508700 0.517250 0.683000 1.121648
Cu2   Cu    Cu3+1 0.491300 0.482750 0.317000 1.121652
F1    F     F_    0.725988 0.393617 0.136598 -0.592082
F2    F     F_    0.274023 0.606230 0.863441 -0.592075
F3    F     F_    0.902610 0.658692 0.763006 -0.593758
F4    F     F_    0.097403 0.341322 0.236931 -0.593725
H1    H     H_    0.246689 0.376377 0.252422 0.245846
H2    H     H_    0.753307 0.623730 0.747526 0.245803
H3    H     H_    0.011085 0.567647 0.328912 0.227116
H4    H     H_    0.988942 0.432327 0.671114 0.227125
H5    H     H_    0.487990 0.958849 0.289252 0.207574
H6    H     H_    0.512010 0.041151 0.710747 0.207575
N1    N     N_2   0.478180 0.456750 0.041980 0.067391
N2    N     N_2   0.521820 0.543250 0.958020 0.067379
O1    O     O_R   0.505650 0.286040 0.618880 -0.568431
O2    O     O_R   0.494350 0.713960 0.381120 -0.568429
O3    O     O_R   0.490960 0.256910 0.309800 -0.568585
O4    O     O_R   0.509040 0.743090 0.690200 -0.568589
O5    O     O_R   0.394600 0.516230 0.672450 -0.511750
O6    O     O_R   0.605400 0.483770 0.327550 -0.511760
O7    O     O_R   0.379910 0.487100 0.363380 -0.572927
O8    O     O_R   0.620090 0.512900 0.636620 -0.572932

loop_
_geom_bond_atom_site_label_1
_geom_bond_atom_site_label_2
_ccdc_geom_bond_type
C10   C19   A    
Cu1   O4    S    
C2    H2    S    
Cu2   N1    S    
N1    N2    D    
C10   F1    S    
C17   O6    A    
C7    C9    A    
C14   H5    S    
C11   H4    S    
C16   O7    A    
Br1   C7    S    
Br2   C8    S    
Cu1   O5    S    
C17   C19   S    
C5    C11   S    
C20   H1    S    
Cu2   O6    S    
C9    F2    S    
C3    F4    S    
Cu1   O1    S    
C5    C7    A    
Cu2   O2    S    
C13   H3    S    
C12   O2    A    
C12   C15   S    
C4    F3    S    
C6    C8    A    
C8    C10   A    
C9    C18   A    
C17   O8    A    
C3    C5    A    
C15   H6    S    
C1    O1    A    
Cu1   N2    S    
C18   C20   A    
C2    C19   A    
C6    C13   S    
C3    C20   A    
C12   O4    A    
C16   O5    A    
Br3   N1    S    
C4    C6    A    
C14   C15   D    
C11   C13   D    
C1    O3    A    
C2    C4    A    
C1    C14   S    
Cu2   O7    S    
Cu1   Cu2   S    
Br4   N2    S    
Cu1   O8    S    
Cu2   O3    S    
C16   C18   S    
