data_mof_unit_20487.cif
_audit_creation_date              2013-03-05T15:51:56-0500
_audit_creation_method            fapswitch 2.2
_symmetry_space_group_name_H-M    P1
_symmetry_Int_Tables_number       1
_space_group_crystal_system       triclinic
_cell_length_a                    9.577365
_cell_length_b                    10.865156
_cell_length_c                    17.347728
_cell_angle_alpha                 92.586907
_cell_angle_beta                  85.519127
_cell_angle_gamma                 90.4864
_cell_volume                      1797.82302866

loop_
_atom_site_label
_atom_site_type_symbol
_atom_site_description
_atom_site_fract_x
_atom_site_fract_y
_atom_site_fract_z
_atom_type_partial_charge
O1    O     O_R   0.381190 0.680360 0.500010 -0.594558
O2    O     O_R   0.618760 0.680340 0.500000 -0.571381
C1    C     C_R   0.500702 0.736863 0.493833 0.840424
O3    O     O_R   0.367440 0.500030 0.613600 -0.548935
O4    O     O_R   0.605010 0.500010 0.613590 -0.545753
C2    C     C_R   0.481044 0.501276 0.649702 0.942836
Cu1   Cu    Cu3+1 0.359340 0.500010 0.500010 0.966509
Cu2   Cu    Cu3+1 0.640660 0.499990 0.499990 0.974809
O5    O     O_R   0.381240 0.319660 0.500000 -0.609919
O6    O     O_R   0.618810 0.319640 0.499990 -0.607516
O7    O     O_R   0.394990 0.499990 0.386410 -0.612223
O8    O     O_R   0.632560 0.499970 0.386400 -0.611378
C3    C     C_R   0.497710 0.262316 0.503935 0.810099
C4    C     C_R   0.518824 0.498578 0.350204 0.746678
C5    C     C_R   0.468419 0.505821 0.734274 -0.282029
C6    C     C_R   0.556754 0.585135 0.775906 0.299262
C7    C     C_R   0.545999 0.585927 0.856553 -0.184085
C8    C     C_R   0.445007 0.513613 0.896030 0.045684
C9    C     C_R   0.353155 0.440437 0.855222 -0.196721
C10   C     C_R   0.366213 0.432629 0.774526 0.302576
C11   C     C_R   0.421515 0.453792 0.146073 -0.137122
C12   C     C_R   0.414967 0.453898 0.226148 -0.209506
C13   C     C_R   0.652488 0.533518 0.224275 -0.193576
C14   C     C_R   0.658310 0.535317 0.143842 -0.161339
C15   C     C_R   0.541770 0.498291 0.104330 0.179349
C16   C     C_2   0.434452 0.511790 0.980420 -0.168237
C17   C     C_2   0.549146 0.506595 0.019757 -0.211074
C18   C     C_R   0.529487 0.495200 0.265810 -0.019415
H1    H     H_    0.320271 0.420947 0.256934 0.152505
H2    H     H_    0.742582 0.564735 0.253960 0.153887
H3    H     H_    0.652288 0.509867 0.988899 0.162765
H4    H     H_    0.276053 0.383899 0.886423 0.177908
H5    H     H_    0.332274 0.417936 0.117692 0.126305
H6    H     H_    0.330085 0.508535 0.009324 0.148287
H7    H     H_    0.613242 0.646505 0.888661 0.180129
H8    H     H_    0.752783 0.567918 0.112552 0.132581
H9    H     H_    0.719369 0.891160 0.506497 0.169601
C19   C     C_R   0.255201 0.875951 0.446170 -0.159967
H10   H     H_    0.262275 0.787472 0.415111 0.160268
C20   C     C_R   0.124928 0.933014 0.453442 -0.155972
H11   H     H_    0.034616 0.886426 0.431748 0.135723
C21   C     C_R   0.110275 0.047920 0.491289 -0.131833
H12   H     H_    0.007770 0.089622 0.501151 0.147851
C22   C     C_R   0.228267 0.111021 0.514552 -0.102277
H13   H     H_    0.208859 0.197277 0.546529 0.209814
C23   C     C_R   0.364253 0.059799 0.499791 0.095972
C24   C     C_R   0.373317 0.933902 0.476891 0.085861
C25   C     C_R   0.499321 0.870578 0.486790 -0.117997
C26   C     C_R   0.621157 0.937242 0.500532 -0.165559
H14   H     H_    0.716129 0.113254 0.513460 0.168077
C27   C     C_R   0.618362 0.064413 0.506917 -0.196695
C28   C     C_R   0.491454 0.127553 0.506723 -0.081311
H15   H     H_    0.859775 0.640264 0.587028 0.194622
C29   C     C_R   0.868664 0.336495 0.396881 -0.153234
H16   H     H_    0.759329 0.329402 0.391593 0.199312
C30   C     C_R   0.947262 0.256094 0.346788 -0.215483
H17   H     H_    0.895904 0.193588 0.307491 0.154756
C31   C     C_R   0.091057 0.255728 0.346987 -0.209845
H18   H     H_    0.152278 0.192706 0.308010 0.155485
C32   C     C_R   0.157046 0.335656 0.397344 -0.165754
H19   H     H_    0.267581 0.327049 0.392934 0.196639
C33   C     C_R   0.081176 0.419213 0.449521 0.199877
C34   C     C_R   0.931496 0.419436 0.449416 0.203126
N1    N     N_R   0.852190 0.498790 0.499250 -0.213960
C35   C     C_R   0.920036 0.577056 0.547871 -0.034228
H20   H     H_    0.118602 0.640186 0.587006 0.164138
C36   C     C_R   0.068078 0.577028 0.547846 -0.030822
N2    N     N_R   0.148060 0.498710 0.499220 -0.211657
N3    N     N_R   0.653504 0.668729 0.737622 0.127910
O9    O     O_R   0.774405 0.691549 0.764782 -0.352171
O10   O     O_R   0.612976 0.736462 0.683611 -0.369834
N4    N     N_R   0.280084 0.345632 0.734765 0.138302
O11   O     O_R   0.336500 0.270149 0.681048 -0.378331
O12   O     O_R   0.150702 0.327590 0.760745 -0.338231

loop_
_geom_bond_atom_site_label_1
_geom_bond_atom_site_label_2
_geom_bond_distance
_ccdc_geom_bond_type
C12   H1    1.082589 S    
C9    C10   1.394510 A    
C8    C16   1.460577 S    
Cu1   Cu2   2.694278 S    
Cu1   O7    1.973594 S    
C16   C17   1.340576 D    
C14   H8    1.083491 S    
O4    C2    1.298280 A    
O7    C4    1.297835 A    
C11   H5    1.080495 S    
C29   C34   1.416751 A    
C31   C32   1.387513 A    
C5    C6    1.416648 A    
C23   C28   1.428350 A    
C1    C25   1.463704 S    
C30   H17   1.082988 S    
C32   C33   1.416245 A    
C8    C9    1.393483 A    
N3    O10   1.301559 A    
O5    C3    1.290227 A    
C2    C5    1.461278 S    
C23   C24   1.408567 A    
C16   H6    1.083731 S    
C6    C7    1.394429 A    
C35   C36   1.417828 A    
C13   C14   1.393095 A    
H15   C35   1.081447 S    
C20   C21   1.387092 A    
H20   C36   1.081741 S    
Cu1   N2    2.024548 S    
C12   C18   1.399801 A    
C11   C12   1.385573 A    
C21   C22   1.393932 A    
O3    Cu1   1.978090 S    
C9    H4    1.084193 S    
C22   C23   1.420863 A    
H14   C27   1.083500 S    
C5    C10   1.417142 A    
C29   C30   1.387567 A    
C17   H3    1.087261 S    
C36   N2    1.366662 A    
C13   H2    1.083254 S    
C14   C15   1.401598 A    
N4    O12   1.301383 A    
C26   C27   1.381501 A    
C31   H18   1.083027 S    
C27   C28   1.401052 A    
C32   H19   1.060034 S    
O1    C1    1.293576 A    
C33   C34   1.433702 A    
C3    C28   1.467758 S    
H9    C26   1.083531 S    
C24   C25   1.419975 A    
Cu2   O8    1.978090 S    
C7    C8    1.397871 A    
C13   C18   1.402271 A    
C19   C24   1.418451 A    
Cu2   N1    2.025087 S    
O3    C2    1.296804 A    
C20   H11   1.082695 S    
O8    C4    1.298772 A    
C21   H12   1.082896 S    
C22   H13   1.077269 S    
Cu1   O5    1.972485 S    
C11   C15   1.405862 A    
C29   H16   1.060116 S    
C25   C26   1.398776 A    
O1    Cu1   1.968906 S    
O2    Cu2   1.972485 S    
C6    N3    1.438274 S    
N4    O11   1.301068 A    
O6    C3    1.310327 A    
O4    Cu2   1.973595 S    
C15   C17   1.470148 S    
C33   N2    1.381816 A    
N1    C35   1.366850 A    
O2    C1    1.305250 A    
C19   C20   1.392295 A    
C19   H10   1.080606 S    
C30   C31   1.377488 A    
N3    O9    1.301568 A    
C34   N1    1.381623 A    
Cu2   O6    1.968906 S    
C10   N4    1.437530 S    
C7    H7    1.083504 S    
C4    C18   1.458449 S    
