data_mof_unit_18157.cif
_audit_creation_date              2013-03-05T16:19:39-0500
_audit_creation_method            fapswitch 2.2
_symmetry_space_group_name_H-M    P1
_symmetry_Int_Tables_number       1
_space_group_crystal_system       triclinic
_cell_length_a                    10.708428
_cell_length_b                    9.774684
_cell_length_c                    27.687405
_cell_angle_alpha                 91.3724
_cell_angle_beta                  90.525323
_cell_angle_gamma                 91.057717
_cell_volume                      2896.62329886

loop_
_atom_site_label
_atom_site_type_symbol
_atom_site_description
_atom_site_fract_x
_atom_site_fract_y
_atom_site_fract_z
_atom_type_partial_charge
O1    O     O_R   0.314910 0.616040 0.499990 -0.644181
O2    O     O_R   0.314910 0.383960 0.499990 -0.641519
C1    C     C_R   0.258153 0.498374 0.499423 0.868071
O3    O     O_R   0.500140 0.616020 0.428740 -0.642421
O4    O     O_R   0.500140 0.383980 0.428740 -0.617234
C2    C     C_R   0.500366 0.498361 0.406021 0.893707
Zn1   Zn    Zn3+2 0.500150 0.654960 0.499980 0.984481
Zn2   Zn    Zn3+2 0.500150 0.345040 0.499980 0.979172
O5    O     O_R   0.685320 0.616040 0.499970 -0.592537
O6    O     O_R   0.685320 0.383960 0.499970 -0.611057
O7    O     O_R   0.500090 0.616050 0.571230 -0.575964
O8    O     O_R   0.500090 0.383950 0.571230 -0.604332
C3    C     C_R   0.742354 0.500478 0.498968 0.939597
C4    C     C_R   0.500187 0.501087 0.593886 0.914675
C5    C     C_R   0.389965 0.462916 0.177358 0.517782
O9    O     O_2   0.282505 0.457588 0.202423 -0.541901
N1    N     N_R   0.501615 0.475846 0.201346 -0.360918
C6    C     C_R   0.612660 0.479486 0.177595 0.511684
C7    C     C_R   0.503422 0.361014 0.278337 -0.097918
C8    C     C_R   0.502970 0.366404 0.328461 -0.167647
C9    C     C_R   0.500537 0.615016 0.327200 -0.216473
C10   C     C_R   0.501062 0.609160 0.276975 -0.095007
C11   C     C_R   0.502321 0.482197 0.252704 0.318342
C12   C     C_R   0.499990 0.461391 0.101400 -0.052653
C13   C     C_R   0.386979 0.455402 0.126842 -0.043026
C14   C     C_R   0.274221 0.436980 0.101611 -0.170632
C15   C     C_R   0.614117 0.471523 0.127111 -0.022767
C16   C     C_R   0.501275 0.493497 0.353259 -0.033978
H1    H     H_    0.499336 0.714155 0.345521 0.155628
H2    H     H_    0.500152 0.702824 0.256866 0.138541
H3    H     H_    0.187804 0.421852 0.121108 0.196896
C17   C     C_R   0.498137 0.501350 0.646524 -0.069211
C18   C     C_R   0.385002 0.479171 0.974448 0.041502
C19   C     C_R   0.612388 0.445000 0.974198 0.044037
C20   C     C_R   0.498629 0.465056 0.949091 0.081768
C21   C     C_R   0.279164 0.523660 0.948899 -0.197106
C22   C     C_R   0.280535 0.535545 0.899057 -0.125576
C23   C     C_R   0.388924 0.507438 0.873238 -0.026123
C24   C     C_R   0.498877 0.473909 0.898209 -0.052757
C25   C     C_R   0.609363 0.450739 0.872331 -0.029016
C26   C     C_R   0.606930 0.457967 0.821951 0.524625
N2    N     N_R   0.498865 0.489900 0.798483 -0.356976
C27   C     C_R   0.391173 0.515617 0.822909 0.520415
C28   C     C_R   0.430180 0.395521 0.720067 -0.056360
C29   C     C_R   0.430540 0.398694 0.669984 -0.110773
C30   C     C_R   0.566701 0.599648 0.673722 -0.083786
C31   C     C_R   0.566212 0.596801 0.723879 -0.075280
C32   C     C_R   0.497952 0.494631 0.747061 0.264675
O10   O     O_2   0.286943 0.549408 0.798485 -0.528258
C33   C     C_R   0.383093 0.456960 0.024891 -0.010232
C34   C     C_R   0.498953 0.457666 0.050349 0.063448
C35   C     C_R   0.613933 0.454912 0.025212 0.053263
C36   C     C_R   0.271324 0.433249 0.051290 -0.017300
H4    H     H_    0.377619 0.321199 0.649543 0.184222
H5    H     H_    0.378009 0.315773 0.737963 0.161129
H6    H     H_    0.196453 0.568063 0.880921 0.197114
H7    H     H_    0.195813 0.556439 0.967065 0.160126
O11   O     O_2   0.720953 0.490476 0.202857 -0.534343
C37   C     C_R   0.726659 0.474054 0.102052 -0.126063
H8    H     H_    0.503809 0.271187 0.347687 0.160082
H9    H     H_    0.504422 0.262919 0.259316 0.137812
H10   H     H_    0.815461 0.483132 0.121044 0.195132
C38   C     C_R   0.721111 0.418290 0.947281 -0.213500
C39   C     C_R   0.719196 0.420285 0.897163 -0.119134
O12   O     O_2   0.711243 0.432433 0.796509 -0.521541
C40   C     C_R   0.726824 0.465184 0.051986 -0.207744
H11   H     H_    0.808536 0.392204 0.964027 0.162155
H12   H     H_    0.622951 0.676260 0.656390 0.252125
H13   H     H_    0.804791 0.399465 0.877992 0.198403
H14   H     H_    0.619556 0.672983 0.744761 0.170507
H15   H     H_    0.816969 0.471987 0.035094 0.157107
C41   C     C_3   0.074182 0.560577 0.547976 -0.237556
C42   C     C_3   0.068328 0.344801 0.491777 -0.242775
H16   H     H_    0.099598 0.671514 0.547768 0.204461
H17   H     H_    0.108433 0.302624 0.457680 0.185337
C43   C     C_3   0.931150 0.541412 0.549879 0.059842
C44   C     C_3   0.924825 0.348216 0.487022 0.107485
H18   H     H_    0.907689 0.454780 0.574013 0.127154
H19   H     H_    0.883317 0.280473 0.514770 0.141324
H20   H     H_    0.118127 0.686210 0.458440 0.199138
H21   H     H_    0.099852 0.532716 0.422256 0.197365
H22   H     H_    0.909585 0.704407 0.468917 0.224779
H23   H     H_    0.890491 0.576514 0.423556 0.221490
C45   C     C_3   0.074408 0.581938 0.457403 -0.447169
C46   C     C_3   0.121902 0.494465 0.499979 -0.035066
C47   C     C_3   0.878968 0.498791 0.498332 -0.116647
C48   C     C_3   0.932195 0.596609 0.459865 -0.348732
C49   C     C_3   0.392935 0.077030 0.470199 -0.366972
C50   C     C_3   0.400162 0.914587 0.466478 -0.339834
H24   H     H_    0.391507 0.119778 0.433326 0.187560
H25   H     H_    0.417687 0.882104 0.428375 0.182470
H26   H     H_    0.302935 0.106107 0.486778 0.177672
H27   H     H_    0.307827 0.868990 0.475680 0.178744
H28   H     H_    0.611776 0.104907 0.436228 0.175661
H29   H     H_    0.640047 0.872926 0.444790 0.158063
C51   C     C_3   0.612689 0.080789 0.475355 -0.191954
C52   C     C_3   0.618841 0.920937 0.480548 -0.241493
C53   C     C_3   0.487881 0.085429 0.548736 0.198893
C54   C     C_3   0.472218 0.925035 0.547837 0.202173
N3    N     N_3   0.499750 0.138610 0.498940 -0.123625
N4    N     N_3   0.499750 0.861390 0.498940 -0.109823
H30   H     H_    0.400044 0.127107 0.564051 0.087200
H31   H     H_    0.371826 0.902308 0.555609 0.076028
H32   H     H_    0.699672 0.131078 0.488644 0.230302
H33   H     H_    0.698758 0.895753 0.503996 0.249456
C55   C     C_1   0.132025 0.508016 0.592247 0.208560
N5    N     N_1   0.175664 0.467412 0.627319 -0.162676
C56   C     C_1   0.103799 0.249798 0.530380 0.198127
N6    N     N_1   0.130998 0.175366 0.560453 -0.161619
N7    N     N_R   0.875680 0.664617 0.571123 0.244816
O13   O     O_R   0.893844 0.783595 0.551986 -0.359443
O14   O     O_R   0.832042 0.659564 0.614720 -0.351743
N8    N     N_R   0.884436 0.289051 0.439677 0.213076
O15   O     O_R   0.808178 0.351373 0.411114 -0.413403
O16   O     O_R   0.912943 0.163224 0.428814 -0.411605
N9    N     N_R   0.589818 0.133883 0.581686 0.259550
O17   O     O_R   0.706895 0.119906 0.570959 -0.361116
O18   O     O_R   0.563095 0.161767 0.626532 -0.345018
N10   N     N_R   0.541368 0.867322 0.587970 0.239130
O19   O     O_R   0.660374 0.846587 0.585289 -0.274720
O20   O     O_R   0.489366 0.867830 0.630287 -0.385150
C57   C     C_1   0.155366 0.385799 0.028886 0.156794
N11   N     N_1   0.062492 0.347292 0.011161 -0.219492

loop_
_geom_bond_atom_site_label_1
_geom_bond_atom_site_label_2
_geom_bond_distance
_ccdc_geom_bond_type
C54   H31   1.117627 S    
C1    C46   1.459056 S    
C26   N2    1.366767 A    
H23   C48   1.108035 S    
C7    C8    1.387592 A    
C12   C15   1.409384 A    
C41   C43   1.541162 S    
C41   C46   1.558292 S    
N9    O17   1.299944 A    
Zn1   O7    2.017987 S    
N1    C11   1.421780 S    
C21   C22   1.387825 A    
C43   H18   1.117577 S    
C36   C57   1.446588 S    
C37   C40   1.386857 A    
C23   C24   1.407804 A    
O7    C4    1.300010 A    
C5    C13   1.398859 A    
C55   N5    1.155768 T    
C5    O9    1.350051 S    
C18   C21   1.411472 A    
C56   N6    1.157516 T    
C5    N1    1.364690 A    
C19   C20   1.416143 A    
C17   C29   1.402066 A    
O5    C3    1.293839 A    
N7    O13   1.301596 A    
C22   H6    1.083421 S    
C6    O11   1.349986 S    
C2    C16   1.460614 S    
C49   H26   1.110093 S    
C3    C47   1.463575 S    
C45   C48   1.534242 S    
C8    H8    1.083350 S    
H20   C45   1.113344 S    
C52   H33   1.104399 S    
C12   C34   1.413017 A    
C44   H19   1.116256 S    
C14   H3    1.085154 S    
C9    C10   1.390488 A    
C42   H17   1.113984 S    
C41   C55   1.475833 S    
O3    Zn1   1.999868 S    
C44   N8    1.477800 S    
C13   C14   1.396036 A    
N1    C6    1.364413 A    
N10   O20   1.301798 A    
C38   H11   1.078388 S    
C33   C36   1.426307 A    
C34   C35   1.420259 A    
C31   C32   1.398560 A    
C12   C13   1.406829 A    
C41   H16   1.113287 S    
C21   H7    1.078605 S    
C4    C17   1.457720 S    
C24   C25   1.407871 A    
C47   C48   1.553446 S    
C27   O10   1.350058 S    
C42   C56   1.483945 S    
C26   O12   1.350015 S    
C8    C16   1.405430 A    
C18   C33   1.418808 A    
C53   H30   1.115205 S    
C9    H1    1.083302 S    
O1    C1    1.290593 A    
C20   C24   1.413548 A    
C31   H14   1.082920 S    
C30   H12   1.076926 S    
C22   C23   1.396881 A    
C53   N9    1.479907 S    
C40   H15   1.078130 S    
Zn2   O8    2.000103 S    
C51   C52   1.575057 S    
C33   C34   1.421116 A    
N2    C32   1.425543 S    
C39   H13   1.083465 S    
C45   C46   1.559694 S    
H28   C51   1.114197 S    
C42   C46   1.572115 S    
C49   N3    1.496272 S    
O3    C2    1.297621 A    
C25   C26   1.398403 A    
C54   N4    1.510149 S    
C9    C16   1.404569 A    
C49   H24   1.112412 S    
C29   H4    1.083045 S    
C53   N3    1.490744 S    
C51   H32   1.101245 S    
C50   H25   1.113005 S    
N2    C27   1.366506 A    
C14   C36   1.392919 A    
C43   C47   1.571950 S    
H21   C45   1.113556 S    
C35   C40   1.412990 A    
C28   C29   1.387805 A    
C7    C11   1.395550 A    
N8    O15   1.301155 A    
Zn1   O5    2.025930 S    
C30   C31   1.389710 A    
C37   H10   1.083568 S    
C10   H2    1.083023 S    
C50   N4    1.496915 S    
O1    Zn1   2.012875 S    
C17   C30   1.399473 A    
Zn2   O6    2.012139 S    
O2    Zn2   2.026667 S    
C6    C15   1.398317 A    
O8    C4    1.292280 A    
O6    C3    1.283388 A    
C44   C47   1.585213 S    
O4    Zn2   2.017771 S    
N10   O19   1.296599 A    
H29   C52   1.112554 S    
C19   C35   1.413350 A    
C25   C39   1.397319 A    
O2    C1    1.283021 A    
Zn2   N3    2.017230 S    
C23   C27   1.398072 A    
C15   C37   1.396224 A    
C28   H5    1.082932 S    
O4    C2    1.295874 A    
C7    H9    1.083127 S    
C51   N3    1.493495 S    
C19   C38   1.413117 A    
C18   C20   1.417620 A    
N9    O18   1.300442 A    
C50   H27   1.111307 S    
N7    O14   1.300091 A    
C54   N10   1.459997 S    
C38   C39   1.388227 A    
C28   C32   1.397570 A    
C49   C50   1.592061 S    
C43   N7    1.465596 S    
C53   C54   1.573248 S    
Zn1   N4    2.018767 S    
C42   C44   1.542164 S    
C10   C11   1.397396 A    
C57   N11   1.157577 T    
C52   N4    1.491016 S    
H22   C48   1.108858 S    
N8    O16   1.301604 A    
