data_mof_unit_23037.cif
_audit_creation_date              2013-03-05T16:00:47-0500
_audit_creation_method            fapswitch 2.2
_symmetry_space_group_name_H-M    P1
_symmetry_Int_Tables_number       1
_space_group_crystal_system       triclinic
_cell_length_a                    20.320848
_cell_length_b                    22.006929
_cell_length_c                    14.29179
_cell_angle_alpha                 92.414239
_cell_angle_beta                  92.08948
_cell_angle_gamma                 90.413444
_cell_volume                      6381.11690164

loop_
_atom_site_label
_atom_site_type_symbol
_atom_site_description
_atom_site_fract_x
_atom_site_fract_y
_atom_site_fract_z
_atom_type_partial_charge
O1    O     O_R   0.066090 0.433930 0.580280 -0.609472
O2    O     O_R   0.933910 0.566070 0.419720 -0.609601
O3    O     O_R   0.933910 0.566070 0.580280 -0.590518
O4    O     O_R   0.066090 0.433930 0.419720 -0.590758
O5    O     O_R   0.933910 0.433930 0.419720 -0.589259
O6    O     O_R   0.066090 0.566070 0.580280 -0.589191
O7    O     O_R   0.066090 0.566070 0.419720 -0.596079
O8    O     O_R   0.933910 0.433930 0.580280 -0.596136
O9    O     O_R   0.566090 0.933930 0.580280 -0.609599
O10   O     O_R   0.433910 0.066070 0.419720 -0.609472
O11   O     O_R   0.433910 0.066070 0.580280 -0.590761
O12   O     O_R   0.566090 0.933930 0.419720 -0.590516
O13   O     O_R   0.433910 0.933930 0.419720 -0.589187
O14   O     O_R   0.566090 0.066070 0.580280 -0.589258
O15   O     O_R   0.566090 0.066070 0.419720 -0.596137
O16   O     O_R   0.433910 0.933930 0.580280 -0.596081
C1    C     C_R   0.088530 0.415533 0.500178 0.869063
C2    C     C_R   0.911470 0.584460 0.499814 0.868870
C3    C     C_R   0.912476 0.414843 0.497748 0.891225
C4    C     C_R   0.087506 0.585173 0.502252 0.891351
C5    C     C_R   0.588529 0.915540 0.500186 0.868875
C6    C     C_R   0.411471 0.084467 0.499822 0.869061
C7    C     C_R   0.412495 0.914826 0.497748 0.891346
C8    C     C_R   0.587521 0.085160 0.502252 0.891221
Zn1   Zn    Zn3+2 0.000000 0.500000 0.607200 1.000118
Zn2   Zn    Zn3+2 1.000000 0.500000 0.392800 1.000043
Zn3   Zn    Zn3+2 0.500000 0.000000 0.607200 1.000043
Zn4   Zn    Zn3+2 0.500000 0.000000 0.392800 1.000118
C9    C     C_R   0.115765 0.690480 0.517324 -0.286217
C10   C     C_R   0.884178 0.309554 0.482292 -0.286062
C11   C     C_R   0.868144 0.677308 0.566607 -0.281103
C12   C     C_R   0.132281 0.323010 0.432784 -0.281031
C13   C     C_R   0.615817 0.190450 0.517702 -0.286072
C14   C     C_R   0.384234 0.809519 0.482661 -0.286211
C15   C     C_R   0.367723 0.176992 0.567213 -0.281037
C16   C     C_R   0.631843 0.822683 0.433404 -0.281108
C17   C     C_R   0.137339 0.631197 0.507176 -0.026065
C18   C     C_R   0.862633 0.368824 0.492819 -0.026142
C19   C     C_R   0.860729 0.629946 0.499746 -0.060524
C20   C     C_R   0.139316 0.370078 0.500209 -0.061170
C21   C     C_R   0.637363 0.131180 0.507180 -0.026140
C22   C     C_R   0.362662 0.868802 0.492821 -0.026077
C23   C     C_R   0.360686 0.129924 0.499790 -0.061167
C24   C     C_R   0.639268 0.870052 0.500253 -0.060500
C25   C     C_R   0.204024 0.616916 0.496708 0.156734
C26   C     C_R   0.795975 0.383085 0.503628 0.156573
C27   C     C_R   0.807345 0.627827 0.433633 0.145511
C28   C     C_R   0.192399 0.371946 0.566799 0.145420
C29   C     C_R   0.704021 0.116920 0.496371 0.156575
C30   C     C_R   0.295975 0.883082 0.503267 0.156737
C31   C     C_R   0.307606 0.128057 0.433196 0.145418
C32   C     C_R   0.692657 0.872175 0.566357 0.145503
C33   C     C_R   0.249733 0.665045 0.494635 0.076182
C34   C     C_R   0.750278 0.334952 0.505726 0.076215
C35   C     C_R   0.763952 0.677290 0.431950 0.074960
C36   C     C_R   0.235653 0.322395 0.568627 0.074823
C37   C     C_R   0.749718 0.165053 0.494271 0.076214
C38   C     C_R   0.250264 0.834954 0.505317 0.076190
C39   C     C_R   0.264355 0.177611 0.431364 0.074823
C40   C     C_R   0.736049 0.822712 0.568040 0.074960
C41   C     C_R   0.227390 0.725952 0.502232 -0.020223
C42   C     C_R   0.772599 0.274055 0.497742 -0.020207
C43   C     C_R   0.772053 0.725633 0.500181 -0.018107
C44   C     C_R   0.227971 0.274381 0.499789 -0.018056
C45   C     C_R   0.727396 0.225950 0.502255 -0.020209
C46   C     C_R   0.272607 0.774047 0.497721 -0.020231
C47   C     C_R   0.272037 0.225625 0.500202 -0.018057
C48   C     C_R   0.727945 0.774366 0.499814 -0.018107
C49   C     C_R   0.159822 0.738719 0.514181 0.116980
C50   C     C_R   0.840128 0.261307 0.485395 0.116937
C51   C     C_R   0.824176 0.725219 0.568780 0.108851
C52   C     C_R   0.176325 0.275162 0.430518 0.108818
C53   C     C_R   0.659866 0.238697 0.514598 0.116945
C54   C     C_R   0.340174 0.761281 0.485774 0.116998
C55   C     C_R   0.323683 0.224844 0.569473 0.108822
C56   C     C_R   0.675817 0.774777 0.431223 0.108846
C57   C     C_R   0.317049 0.653539 0.483748 -0.203228
C58   C     C_R   0.682995 0.346442 0.517004 -0.203287
C59   C     C_R   0.712569 0.679287 0.363461 -0.210628
C60   C     C_R   0.286467 0.319977 0.637876 -0.210720
C61   C     C_R   0.816999 0.153562 0.482988 -0.203289
C62   C     C_R   0.182944 0.846460 0.516174 -0.203227
C63   C     C_R   0.213546 0.180032 0.362108 -0.210723
C64   C     C_R   0.787431 0.820715 0.636529 -0.210613
C65   C     C_R   0.862333 0.200773 0.477921 0.200469
C66   C     C_R   0.137591 0.799259 0.521224 0.200578
C67   C     C_R   0.169316 0.227838 0.361122 0.193689
C68   C     C_R   0.831724 0.772959 0.637422 0.193847
C69   C     C_R   0.362400 0.700741 0.478695 0.200602
C70   C     C_R   0.637660 0.299231 0.522064 0.200469
C71   C     C_R   0.668268 0.727037 0.362577 0.193865
C72   C     C_R   0.330698 0.272172 0.638860 0.193694
H1    H     H_    0.063598 0.698143 0.525251 0.152848
H2    H     H_    0.936323 0.301901 0.474107 0.152990
H3    H     H_    0.909813 0.676713 0.615994 0.183827
H4    H     H_    0.090863 0.323780 0.382995 0.184338
H5    H     H_    0.563672 0.198103 0.525887 0.152987
H6    H     H_    0.436404 0.801855 0.474749 0.152848
H7    H     H_    0.409140 0.176221 0.617004 0.184339
H8    H     H_    0.590165 0.823272 0.384031 0.183803
H9    H     H_    0.335331 0.607565 0.478798 0.164041
H10   H     H_    0.664725 0.392412 0.522265 0.164031
H11   H     H_    0.706345 0.643812 0.309150 0.165591
H12   H     H_    0.292254 0.355142 0.692727 0.165594
H13   H     H_    0.835269 0.107593 0.477726 0.164030
H14   H     H_    0.164660 0.892435 0.521109 0.164038
H15   H     H_    0.207762 0.144870 0.307253 0.165595
H16   H     H_    0.793657 0.856192 0.690836 0.165589
C73   C     C_R   0.941716 0.493311 0.795655 0.238221
C74   C     C_R   0.058287 0.506725 0.204367 0.238172
C75   C     C_R   0.057821 0.508138 0.804007 0.216110
C76   C     C_R   0.942183 0.491865 0.195994 0.216158
C77   C     C_R   0.441713 0.993275 0.795633 0.238170
C78   C     C_R   0.558284 0.006690 0.204345 0.238220
C79   C     C_R   0.557816 0.008136 0.804006 0.216162
C80   C     C_R   0.442179 0.991862 0.195993 0.216109
N1    N     N_R   1.000000 0.500000 0.750030 -0.135372
N2    N     N_R   0.000000 0.500000 0.249970 -0.135400
N3    N     N_R   0.500000 1.000000 0.750030 -0.135402
N4    N     N_R   0.500000 0.000000 0.249970 -0.135371
C81   C     C_R   0.059553 0.501631 0.903223 -0.048687
C82   C     C_R   0.940455 0.498393 0.096790 -0.048648
C83   C     C_R   0.940893 0.489111 0.895722 -0.060942
C84   C     C_R   0.059111 0.510923 0.104299 -0.060978
C85   C     C_R   0.559544 0.001608 0.903209 -0.048648
C86   C     C_R   0.440446 0.998369 0.096777 -0.048683
C87   C     C_R   0.440888 0.989078 0.895701 -0.060979
C88   C     C_R   0.559106 0.010889 0.104277 -0.060941
C89   C     C_R   0.000040 0.498137 0.949635 -0.034887
C90   C     C_R   0.999968 0.501883 0.050381 -0.034896
C91   C     C_R   0.500031 0.998117 0.949619 -0.034895
C92   C     C_R   0.499959 0.001863 0.050365 -0.034887
C93   C     C_R   0.118931 0.503666 0.958956 0.210801
C94   C     C_R   0.881077 0.496395 0.041074 0.210748
C95   C     C_R   0.882458 0.479808 0.945004 0.197624
C96   C     C_R   0.117537 0.520258 0.055022 0.197543
C97   C     C_R   0.618922 0.003604 0.958925 0.210744
C98   C     C_R   0.381069 0.996333 0.041044 0.210797
C99   C     C_R   0.382462 0.979741 0.944977 0.197544
C100  C     C_R   0.617541 0.020191 0.054995 0.197627
C101  C     C_3   0.226452 0.551429 0.487645 -0.882035
H17   H     H_    0.252678 0.543787 0.421475 0.258897
H18   H     H_    0.259992 0.541464 0.547983 0.241760
H19   H     H_    0.185495 0.518136 0.485651 0.245055
C102  C     C_3   0.773548 0.448554 0.512958 -0.882237
H20   H     H_    0.747498 0.456128 0.579289 0.259023
H21   H     H_    0.814486 0.481859 0.514767 0.245287
H22   H     H_    0.739830 0.458543 0.452832 0.241568
C103  C     C_3   0.794550 0.573003 0.367620 -0.883512
H23   H     H_    0.743003 0.556797 0.372868 0.234230
H24   H     H_    0.803361 0.585476 0.294787 0.246001
H25   H     H_    0.825243 0.533716 0.383959 0.272042
C104  C     C_3   0.205066 0.426630 0.633123 -0.882947
H26   H     H_    0.195548 0.414127 0.705713 0.245877
H27   H     H_    0.256782 0.442560 0.628755 0.234311
H28   H     H_    0.174805 0.466110 0.616331 0.271910
C105  C     C_3   0.726448 0.051451 0.487037 -0.882244
H29   H     H_    0.752502 0.043882 0.420708 0.259019
H30   H     H_    0.760163 0.041461 0.547167 0.241571
H31   H     H_    0.685510 0.018145 0.485219 0.245298
C106  C     C_3   0.273547 0.948569 0.512336 -0.882024
H32   H     H_    0.247308 0.956205 0.578498 0.258895
H33   H     H_    0.314506 0.981860 0.514351 0.245057
H34   H     H_    0.240017 0.958540 0.451986 0.241756
C107  C     C_3   0.294941 0.073375 0.366871 -0.882943
H35   H     H_    0.243224 0.057448 0.371222 0.234307
H36   H     H_    0.304474 0.085877 0.294285 0.245883
H37   H     H_    0.325195 0.033892 0.383675 0.271904
C108  C     C_3   0.705457 0.927003 0.632360 -0.883528
H38   H     H_    0.696655 0.914534 0.705198 0.246004
H39   H     H_    0.757004 0.943207 0.627097 0.234233
H40   H     H_    0.674762 0.966289 0.616024 0.272041
C109  C     C_3   0.933886 0.185215 0.464700 -0.915270
H41   H     H_    0.941947 0.135332 0.459663 0.242499
H42   H     H_    0.950767 0.204369 0.398953 0.243082
H43   H     H_    0.964534 0.204038 0.525163 0.245153
C110  C     C_3   0.065991 0.814833 0.533963 -0.915335
H44   H     H_    0.057899 0.864722 0.538595 0.242558
H45   H     H_    0.035496 0.795824 0.473472 0.245219
H46   H     H_    0.048951 0.795871 0.599764 0.242775
C111  C     C_3   0.115388 0.227135 0.285259 -0.905603
H47   H     H_    0.118247 0.186761 0.236289 0.241555
H48   H     H_    0.066465 0.225928 0.317338 0.238006
H49   H     H_    0.119509 0.268279 0.243382 0.255713
C112  C     C_3   0.886351 0.774205 0.712322 -0.905511
H50   H     H_    0.884055 0.815019 0.760544 0.241528
H51   H     H_    0.882561 0.733466 0.755187 0.255584
H52   H     H_    0.934945 0.775012 0.679233 0.237732
C113  C     C_3   0.433994 0.685168 0.465906 -0.915449
H53   H     H_    0.442071 0.635284 0.461157 0.242581
H54   H     H_    0.451027 0.704183 0.400146 0.242776
H55   H     H_    0.464503 0.704121 0.526419 0.245242
C114  C     C_3   0.566106 0.314788 0.535256 -0.915281
H56   H     H_    0.558044 0.364671 0.540279 0.242502
H57   H     H_    0.535471 0.295960 0.474787 0.245157
H58   H     H_    0.549210 0.295640 0.600997 0.243077
C115  C     C_3   0.613627 0.725784 0.287691 -0.905480
H59   H     H_    0.615941 0.684988 0.239439 0.241534
H60   H     H_    0.565038 0.724949 0.320800 0.237736
H61   H     H_    0.617384 0.766537 0.244845 0.255561
C116  C     C_3   0.384633 0.272881 0.714712 -0.905630
H62   H     H_    0.381779 0.313261 0.763671 0.241559
H63   H     H_    0.380514 0.231743 0.756599 0.255712
H64   H     H_    0.433551 0.274082 0.682624 0.238007
I1    I     I_    0.851837 0.513780 0.722042 -0.386093
I2    I     I_    0.148186 0.486389 0.278067 -0.386340
I3    I     I_    0.137756 0.560215 0.754129 -0.390837
I4    I     I_    0.862244 0.439788 0.245858 -0.390813
I5    I     I_    0.351813 0.013606 0.721930 -0.386324
I6    I     I_    0.648163 0.986222 0.277956 -0.386082
I7    I     I_    0.637756 0.060212 0.754142 -0.390807
I8    I     I_    0.362244 0.939786 0.245872 -0.390844
C117  C     C_3   0.182903 0.478500 0.923504 -0.860732
H65   H     H_    0.203735 0.446059 0.973960 0.240922
H66   H     H_    0.175072 0.452302 0.856130 0.242228
H67   H     H_    0.219492 0.515523 0.916153 0.264780
C118  C     C_3   0.817128 0.521590 0.076566 -0.860525
H68   H     H_    0.796319 0.554063 0.026142 0.241007
H69   H     H_    0.780512 0.484587 0.083886 0.264694
H70   H     H_    0.824977 0.547760 0.143975 0.242352
C119  C     C_3   0.825222 0.441663 0.904519 -0.837411
H71   H     H_    0.839221 0.413763 0.842002 0.254313
H72   H     H_    0.809924 0.408545 0.956319 0.243203
H73   H     H_    0.782395 0.470828 0.887815 0.260878
C120  C     C_3   0.174744 0.558441 0.095504 -0.837246
H74   H     H_    0.160715 0.586354 0.157993 0.254346
H75   H     H_    0.217585 0.529303 0.112248 0.260867
H76   H     H_    0.190036 0.591550 0.043686 0.243201
C121  C     C_3   0.682870 0.978405 0.923433 -0.860524
H77   H     H_    0.703676 0.945932 0.973858 0.241010
H78   H     H_    0.675018 0.952235 0.856024 0.242352
H79   H     H_    0.719487 0.015407 0.916112 0.264694
C122  C     C_3   0.317097 0.021496 0.076496 -0.860750
H80   H     H_    0.296264 0.053934 0.026038 0.240928
H81   H     H_    0.280510 0.984473 0.083849 0.264784
H82   H     H_    0.324927 0.047694 0.143868 0.242230
C123  C     C_3   0.325257 0.941555 0.904496 -0.837245
H83   H     H_    0.309969 0.908446 0.956314 0.243201
H84   H     H_    0.282415 0.970691 0.887749 0.260868
H85   H     H_    0.339289 0.913643 0.842008 0.254346
C124  C     C_3   0.674775 0.058340 0.095477 -0.837420
H86   H     H_    0.690067 0.091459 0.043676 0.243205
H87   H     H_    0.660776 0.086238 0.157995 0.254313
H88   H     H_    0.717605 0.029179 0.112178 0.260879

loop_
_geom_bond_atom_site_label_1
_geom_bond_atom_site_label_2
_geom_bond_distance
_ccdc_geom_bond_type
C25   C101  1.516411 S    
C96   C120  1.512655 S    
C105  H29   1.109624 S    
O8    Zn1   1.988168 S    
C75   C81   1.430364 A    
C108  H39   1.110242 S    
C108  H38   1.108091 S    
C57   H9    1.080735 S    
C14   C22   1.382829 A    
C28   C104  1.514791 S    
C59   H11   1.080894 S    
C106  H34   1.109759 S    
C106  H32   1.109659 S    
O15   Zn4   1.988165 S    
C29   C37   1.405614 A    
C12   C52   1.386986 A    
C31   C107  1.514780 S    
C111  H47   1.110840 S    
O10   C6    1.297721 A    
C118  H70   1.107232 S    
C10   C18   1.382816 A    
C107  H35   1.110176 S    
C7    C22   1.424883 S    
C60   H12   1.080780 S    
C54   C69   1.410641 A    
C27   C35   1.406245 A    
C120  H75   1.110010 S    
C39   C63   1.406860 A    
C53   C70   1.410618 A    
C124  H86   1.111232 S    
C119  H73   1.110016 S    
C38   C62   1.405982 A    
C112  H51   1.110734 S    
C26   C102  1.516253 S    
C58   H10   1.080726 S    
C41   C49   1.418422 A    
C46   C54   1.418411 A    
C120  H76   1.111244 S    
C45   C53   1.418444 A    
O13   C7    1.296897 A    
O3    C2    1.303025 A    
C113  H54   1.110391 S    
C100  C124  1.512657 S    
C116  H62   1.110830 S    
O14   C8    1.296911 A    
C115  H60   1.110701 S    
C20   C28   1.411440 A    
C82   C94   1.420616 A    
C32   C40   1.406242 A    
C39   C47   1.416889 A    
C77   N3    1.382557 A    
C33   C41   1.419385 A    
C41   C46   1.401702 A    
C38   C46   1.419378 A    
C86   C98   1.420719 A    
C27   C103  1.514940 S    
C113  H55   1.110435 S    
C63   H15   1.080783 S    
C110  H45   1.110477 S    
C35   C43   1.417113 A    
C93   C96   1.407090 A    
C65   C109  1.512888 S    
C36   C44   1.416892 A    
O13   Zn4   2.030375 S    
O11   Zn3   2.025691 S    
O14   Zn3   2.030372 S    
C104  H27   1.110190 S    
C15   C23   1.387674 A    
C122  H80   1.111012 S    
C59   C71   1.388800 A    
C61   C65   1.389517 A    
C10   H2    1.083891 S    
C74   C84   1.437703 A    
O16   C7    1.294438 A    
C24   C32   1.411571 A    
O16   Zn3   1.988168 S    
C12   C20   1.387684 A    
C40   C48   1.417116 A    
C25   C33   1.405671 A    
C107  H36   1.107847 S    
C80   C86   1.430368 A    
C16   C56   1.387012 A    
C83   C89   1.412047 A    
C30   C106  1.516407 S    
O1    Zn1   2.021021 S    
C8    C21   1.424926 S    
C116  H63   1.110513 S    
C42   C50   1.418446 A    
C29   C105  1.516254 S    
C74   N2    1.382553 A    
C115  H59   1.111138 S    
C101  H17   1.109641 S    
C87   C99   1.420362 A    
C15   H7    1.082841 S    
C88   C92   1.412041 A    
C21   C29   1.405158 A    
C10   C50   1.386980 A    
C121  H77   1.111008 S    
C102  H20   1.109615 S    
C9    C49   1.386995 A    
C109  H42   1.110442 S    
C95   C119  1.512660 S    
C97   C100  1.407097 A    
C61   H13   1.080731 S    
O8    C3    1.294451 A    
C78   C88   1.437697 A    
C102  H21   1.103613 S    
C9    H1    1.083886 S    
C73   N1    1.382573 A    
C109  H41   1.110814 S    
C30   C38   1.405670 A    
C44   C47   1.402558 A    
C64   C68   1.388792 A    
O3    Zn1   2.025691 S    
C121  H79   1.109864 S    
C76   I4    2.141602 S    
C97   C121  1.512687 S    
Zn4   N4    2.041298 S    
C103  H25   1.097813 S    
C37   C45   1.419312 A    
C84   C96   1.420368 A    
C73   C83   1.437697 A    
C112  H52   1.110647 S    
C106  H33   1.103643 S    
C34   C42   1.419309 A    
C103  H24   1.108092 S    
C85   C97   1.420607 A    
C118  H68   1.111012 S    
C117  H65   1.111028 S    
O12   C5    1.303019 A    
O7    C4    1.294437 A    
C66   C110  1.512885 S    
C58   C70   1.389522 A    
O5    Zn2   2.030375 S    
C83   C95   1.420443 A    
C124  H87   1.109531 S    
C1    C20   1.442446 S    
C60   C72   1.388813 A    
C115  H61   1.110776 S    
C33   C57   1.405962 A    
C2    C19   1.442256 S    
C76   C82   1.430256 A    
C119  H71   1.109542 S    
C3    C18   1.424928 S    
C5    C24   1.442242 S    
C35   C59   1.407132 A    
C85   C91   1.403509 A    
O4    Zn2   2.025691 S    
C6    C23   1.442438 S    
C86   C92   1.403531 A    
C110  H46   1.110478 S    
C57   C69   1.389565 A    
C26   C34   1.405622 A    
C114  H57   1.110398 S    
C120  H74   1.109539 S    
C84   C90   1.412051 A    
C74   I2    2.134997 S    
O15   C8    1.294451 A    
C48   C56   1.417149 A    
C104  H28   1.097785 S    
C73   I1    2.134756 S    
C52   C67   1.410359 A    
C122  H81   1.109862 S    
C63   C67   1.388814 A    
C32   C108  1.514946 S    
C55   C72   1.410356 A    
C22   C30   1.405140 A    
C77   C87   1.437702 A    
O4    C1    1.302974 A    
C13   C53   1.386982 A    
C68   C112  1.513044 S    
C12   H4    1.082843 S    
C43   C51   1.417145 A    
C110  H44   1.110885 S    
C107  H37   1.097787 S    
C79   N3    1.388053 A    
C123  H84   1.110010 S    
C116  H64   1.110426 S    
C37   C61   1.406015 A    
C15   C55   1.386983 A    
C31   C39   1.406045 A    
C17   C25   1.405135 A    
C91   C92   1.438782 A    
C75   I3    2.141615 S    
C102  H22   1.109669 S    
O9    Zn3   2.021021 S    
C19   C27   1.411585 A    
C89   C90   1.438783 A    
C117  H67   1.109879 S    
O10   Zn4   2.021020 S    
C28   C36   1.406047 A    
C43   C48   1.402707 A    
C101  H19   1.103636 S    
C111  H49   1.110537 S    
C42   C45   1.401666 A    
Zn2   N2    2.041298 S    
C81   C89   1.403530 A    
O2    C2    1.297582 A    
Zn1   N1    2.041296 S    
O2    Zn2   2.021020 S    
C67   C111  1.512743 S    
C105  H30   1.109670 S    
C16   H8    1.082926 S    
C109  H43   1.110420 S    
C94   C95   1.407099 A    
O5    C3    1.296911 A    
Zn3   N3    2.041296 S    
C105  H31   1.103615 S    
C118  H69   1.109866 S    
C94   C118  1.512686 S    
O6    C4    1.296896 A    
O11   C6    1.302972 A    
O1    C1    1.297723 A    
C36   C60   1.406859 A    
C79   I7    2.141597 S    
C75   N1    1.388152 A    
C124  H88   1.110004 S    
C13   C21   1.382821 A    
C78   I6    2.134752 S    
C101  H18   1.109723 S    
C88   C100  1.420441 A    
C117  H66   1.107079 S    
C93   C117  1.512646 S    
C119  H72   1.111242 S    
C62   C66   1.389561 A    
C103  H23   1.110246 S    
C114  H58   1.110413 S    
C76   N2    1.388066 A    
C4    C17   1.424875 S    
C40   C64   1.407116 A    
O9    C5    1.297579 A    
C112  H50   1.111155 S    
C80   I8    2.141599 S    
C70   C114  1.512857 S    
O7    Zn2   1.988165 S    
C23   C31   1.411438 A    
C11   H3    1.082916 S    
C79   C85   1.430252 A    
C11   C51   1.387011 A    
C14   H6    1.083885 S    
C11   C19   1.387623 A    
C62   H14   1.080738 S    
C13   H5    1.083889 S    
C44   C52   1.416961 A    
O6    Zn1   2.030372 S    
C113  H53   1.110779 S    
C122  H82   1.107068 S    
C87   C91   1.412044 A    
C99   C123  1.512658 S    
C18   C26   1.405162 A    
C16   C24   1.387634 A    
C98   C99   1.407091 A    
C72   C116  1.512719 S    
C56   C71   1.410546 A    
C77   I5    2.135010 S    
C51   C68   1.410536 A    
C71   C115  1.513121 S    
C80   N4    1.388153 A    
C64   H16   1.080897 S    
C47   C55   1.416962 A    
O12   Zn4   2.025691 S    
C121  H78   1.107241 S    
C114  H56   1.110807 S    
C123  H85   1.109534 S    
C9    C17   1.382841 A    
C69   C113  1.512858 S    
C98   C122  1.512626 S    
C14   C54   1.386995 A    
C108  H40   1.097812 S    
C81   C93   1.420723 A    
C104  H26   1.107853 S    
C123  H83   1.111242 S    
C50   C65   1.410619 A    
C82   C90   1.403508 A    
C78   N4    1.382569 A    
C49   C66   1.410665 A    
C111  H48   1.110449 S    
C34   C58   1.406016 A    
