data_mof_unit_13451.cif
_audit_creation_date              2012-12-11T15:12:08-0500
_audit_creation_method            fapswitch 2.2
_symmetry_space_group_name_H-M    P1
_symmetry_Int_Tables_number       1
_space_group_crystal_system       triclinic
_cell_length_a                    8.225386
_cell_length_b                    17.374166
_cell_length_c                    19.072965
_cell_angle_alpha                 94.280234
_cell_angle_beta                  94.444451
_cell_angle_gamma                 95.348694
_cell_volume                      2696.45827671

loop_
_atom_site_label
_atom_site_type_symbol
_atom_type_description
_atom_site_fract_x
_atom_site_fract_y
_atom_site_fract_z
_atom_type_partial_charge
Ba1   Ba    Ba6+2 0.157360 0.537160 0.466280 1.635167
Ba2   Ba    Ba6+2 0.652820 0.462830 0.533660 1.630056
C1    C     C_3   0.477655 0.791581 0.224913 -0.242198
C2    C     C_3   0.425934 0.732611 0.276523 0.331527
C3    C     C_3   0.539191 0.696313 0.632661 0.310966
C4    C     C_3   0.565569 0.783587 0.650359 -0.391248
C5    C     C_3   0.875825 0.248170 0.685289 0.358692
C6    C     C_3   0.851405 0.165563 0.706524 -0.365435
C7    C     C_3   0.403969 0.290076 0.724846 0.361261
C8    C     C_3   0.421283 0.263225 0.798849 -0.366533
C9    C     C_R   0.711083 0.723401 0.473851 -0.285807
C10   C     C_R   0.862642 0.746838 0.510191 0.058486
C11   C     C_R   0.920495 0.826632 0.518021 -0.119637
C12   C     C_3   0.935879 0.750403 0.315020 0.368541
C13   C     C_R   0.824616 0.882380 0.489574 -0.003393
C14   C     C_R   0.668743 0.856963 0.455134 -0.137103
C15   C     C_R   0.612143 0.777568 0.448169 0.010962
C16   C     C_R   0.890137 0.173602 0.482796 -0.118539
C17   C     C_R   0.947176 0.253482 0.490959 0.062276
C18   C     C_R   0.197202 0.222974 0.554024 0.009805
C19   C     C_R   0.140809 0.143536 0.546810 -0.133110
C20   C     C_R   0.985564 0.117995 0.511786 -0.005124
C21   C     C_1   0.928368 0.034867 0.503765 -0.002648
C22   C     C_1   0.882066 0.965478 0.497488 -0.002768
C23   C     C_3   0.960704 0.832984 0.293739 -0.371873
C24   C     C_R   0.097411 0.277139 0.528663 -0.290444
C25   C     C_R   0.611578 0.535848 0.298822 -0.276180
C26   C     C_R   0.461249 0.493967 0.276692 0.077392
C27   C     C_R   0.408175 0.484228 0.204569 -0.118642
C28   C     C_R   0.507266 0.514796 0.153979 -0.014592
C29   C     C_R   0.662757 0.553827 0.177469 -0.149714
C30   C     C_R   0.715196 0.563157 0.249574 0.004308
C31   C     C_R   0.490314 0.563248 0.032787 -0.085314
C32   C     C_R   0.436507 0.555044 0.961029 -0.076187
C33   C     C_R   0.343865 0.486815 0.930659 0.062133
C34   C     C_3   0.774665 0.372939 0.320802 0.313260
C35   C     C_R   0.304694 0.427502 0.974721 -0.079272
C36   C     C_R   0.357204 0.436227 0.046947 -0.075213
C37   C     C_R   0.450891 0.504410 0.077029 0.064767
C38   C     C_R   0.136347 0.439240 0.827395 -0.136621
C39   C     C_R   0.087423 0.433456 0.754756 0.018617
C40   C     C_R   0.342468 0.504956 0.732826 0.036946
C41   C     C_R   0.393045 0.510711 0.804883 -0.118953
C42   C     C_R   0.291144 0.477643 0.853354 -0.010211
C43   C     C_R   0.193653 0.463630 0.707942 -0.279164
C44   C     C_3   0.754685 0.352776 0.241413 -0.397248
C45   C     C_3   0.030944 0.625551 0.678923 0.312039
C46   C     C_3   0.054926 0.645536 0.758326 -0.397552
C47   C     C_3   0.268621 0.305216 0.380846 0.314013
C48   C     C_3   0.246904 0.217992 0.362213 -0.394715
H1    H     H_    0.338479 0.685640 0.248479 0.077613
H2    H     H_    0.653725 0.305728 0.227787 0.123398
H3    H     H_    0.725638 0.404035 0.213589 0.066526
H4    H     H_    0.870275 0.333253 0.223165 0.124746
H5    H     H_    0.144582 0.605862 0.660020 0.004249
H6    H     H_    0.929819 0.578464 0.667448 0.074775
H7    H     H_    0.162266 0.689334 0.771509 0.128504
H8    H     H_    0.075882 0.593169 0.786047 0.065855
H9    H     H_    0.943822 0.669309 0.777165 0.123556
H10   H     H_    0.149576 0.324919 0.393307 0.007891
H11   H     H_    0.359216 0.318007 0.427466 0.067098
H12   H     H_    0.368381 0.819749 0.205813 0.121070
H13   H     H_    0.153211 0.203476 0.316863 0.122747
H14   H     H_    0.206630 0.187368 0.407635 0.065385
H15   H     H_    0.365007 0.197562 0.348000 0.125548
H16   H     H_    0.535989 0.706009 0.296940 -0.064203
H17   H     H_    0.658050 0.675434 0.620475 0.016207
H18   H     H_    0.449683 0.684436 0.585533 0.062040
H19   H     H_    0.657306 0.797543 0.696491 0.124052
H20   H     H_    0.610969 0.812499 0.604729 0.063857
H21   H     H_    0.448179 0.806056 0.662875 0.126676
H22   H     H_    0.568060 0.837039 0.253489 0.098905
H23   H     H_    0.928219 0.874020 0.336683 0.071638
H24   H     H_    0.801629 0.251359 0.634615 0.091942
H25   H     H_    0.007511 0.261725 0.677755 -0.063708
H26   H     H_    0.720216 0.149626 0.713797 0.150395
H27   H     H_    0.889988 0.124886 0.664709 0.073432
H28   H     H_    0.926280 0.160323 0.756656 0.108021
H29   H     H_    0.274060 0.300226 0.712484 -0.065524
H30   H     H_    0.482916 0.345406 0.724273 0.093761
H31   H     H_    0.384869 0.308347 0.837255 0.070380
H32   H     H_    0.550439 0.252980 0.813249 0.149109
H33   H     H_    0.016743 0.746328 0.363728 0.097402
H34   H     H_    0.340982 0.208645 0.801451 0.108038
H35   H     H_    0.773843 0.154879 0.453068 0.085166
H36   H     H_    0.590749 0.898624 0.434968 0.075769
H37   H     H_    0.218657 0.101898 0.567121 0.078663
H38   H     H_    0.037683 0.845174 0.547075 0.088132
H39   H     H_    0.665451 0.662622 0.469158 0.070709
H40   H     H_    0.142033 0.338046 0.534126 0.069986
H41   H     H_    0.510732 0.541919 0.822794 0.076434
H42   H     H_    0.466396 0.602905 0.929567 0.057277
H43   H     H_    0.561656 0.616312 0.053872 0.062032
H44   H     H_    0.806109 0.738327 0.326244 -0.074564
H45   H     H_    0.290388 0.452261 0.188229 0.080076
H46   H     H_    0.235973 0.373647 0.953169 0.061013
H47   H     H_    0.327137 0.388771 0.078847 0.058316
H48   H     H_    0.051914 0.416567 0.863371 0.074089
H49   H     H_    0.745435 0.574534 0.139968 0.075301
H50   H     H_    0.155191 0.459984 0.652134 0.062974
H51   H     H_    0.653152 0.542193 0.354359 0.068003
H52   H     H_    0.090566 0.847841 0.283700 0.149671
H53   H     H_    0.881496 0.839035 0.245121 0.104034
H54   H     H_    0.657442 0.389477 0.338662 0.005331
H55   H     H_    0.871314 0.422140 0.332808 0.067885
O1    O     O_2   0.143190 0.684560 0.534150 -0.453272
O2    O     O_3   0.322949 0.341079 0.322551 -0.637614
O3    O     O_3   0.975807 0.698764 0.260141 -0.597324
O4    O     O_2   0.667110 0.315390 0.465830 -0.459069
O5    O     O_3   0.927950 0.409760 0.464380 -0.495234
O6    O     O_3   0.437660 0.360670 0.591630 -0.483028
O7    O     O_3   0.817468 0.307409 0.353236 -0.635816
O8    O     O_3   0.379150 0.537830 0.583060 -0.476573
O9    O     O_3   0.857920 0.398470 0.626650 -0.488806
O10   O     O_2   0.750105 0.441995 0.750593 -0.490189
O11   O     O_3   0.824891 0.299073 0.738132 -0.599161
O12   O     O_3   0.882350 0.590230 0.535560 -0.493809
O13   O     O_3   0.431150 0.462160 0.416880 -0.489262
O14   O     O_2   0.634060 0.535220 0.669530 -0.458921
O15   O     O_3   0.479780 0.661070 0.690755 -0.642455
O16   O     O_2   0.534987 0.224387 0.547006 -0.491202
O17   O     O_3   0.453052 0.233273 0.676726 -0.598795
O18   O     O_3   0.372640 0.639320 0.408320 -0.474460
O19   O     O_2   0.279057 0.774715 0.459421 -0.487755
O20   O     O_3   0.994309 0.692170 0.646767 -0.636638
O21   O     O_3   0.345505 0.771252 0.329125 -0.603902
O22   O     O_2   0.176230 0.464730 0.330450 -0.462307
O23   O     O_3   0.952380 0.601530 0.373300 -0.491690
O24   O     O_2   0.053347 0.556103 0.248932 -0.480301
P1    P     P_3+3 0.970290 0.672580 0.555000 0.985720
P2    P     P_3+3 0.347000 0.441860 0.341200 0.988155
P3    P     P_3+3 0.924431 0.603842 0.281747 0.948991
P4    P     P_3+3 0.840010 0.327410 0.444950 0.985478
P5    P     P_3+3 0.879841 0.394285 0.718439 0.945067
P6    P     P_3+3 0.403405 0.741067 0.411946 0.954387
P7    P     P_3+3 0.456424 0.560439 0.671066 0.947244
P8    P     P_3+3 0.405811 0.259385 0.591212 0.944869
C49   C     C_3   0.552940 0.754030 0.161557 -0.256492
C50   C     C_3   0.608267 0.815526 0.112335 -0.180903
C51   C     C_3   0.681528 0.779556 0.048071 -0.417203
H56   H     H_    0.782172 0.744663 0.064665 0.139659
H57   H     H_    0.585385 0.742245 0.013889 0.128377
H58   H     H_    0.731960 0.826256 0.016843 0.123978
H59   H     H_    0.502015 0.846139 0.093970 0.120861
H60   H     H_    0.701903 0.859029 0.141412 0.118353
H61   H     H_    0.660100 0.724327 0.180424 0.128499
H62   H     H_    0.459839 0.710398 0.132290 0.119088

loop_
_geom_bond_atom_site_label_1
_geom_bond_atom_site_label_2
_ccdc_geom_bond_type
C5    O11   S    
C4    H19   S    
C14   H36   S    
C19   H37   S    
Ba2   O4    S    
C48   H14   S    
C51   H58   S    
O7    P4    S    
C3    H17   S    
Ba2   O13   S    
C5    C6    S    
C47   O2    S    
C31   C37   A    
C47   H10   S    
C10   P1    S    
C26   C27   A    
C33   C35   A    
C35   C36   A    
C51   H57   S    
C32   C33   A    
C36   H47   S    
C38   H48   S    
C28   C29   A    
Ba2   O8    S    
C23   H52   S    
O11   P5    S    
C13   C14   A    
C44   H2    S    
C6    H26   S    
C44   H3    S    
C40   P7    S    
Ba1   Ba2   S    
C7    H29   S    
O16   P8    D    
C17   C24   A    
O13   P2    S    
O20   P1    S    
C9    C15   A    
C45   C46   S    
C14   C15   A    
O8    P7    S    
C15   P6    S    
C21   C22   T    
Ba1   O23   S    
C34   C44   S    
C29   H49   S    
C7    C8    S    
Ba1   O1    S    
O24   P3    D    
C12   O3    S    
C34   H55   S    
C19   C20   A    
C6    H28   S    
C48   H13   S    
Ba1   O8    S    
C12   H33   S    
C3    H18   S    
O23   P3    S    
C39   P5    S    
Ba2   O12   S    
C45   O20   S    
C5    H24   S    
O22   P2    D    
C4    H21   S    
Ba2   O6    S    
Ba2   P4    S    
C47   H11   S    
C3    O15   S    
O4    P4    D    
C16   H35   S    
C46   H7    S    
C36   C37   A    
C51   H56   S    
O2    P2    S    
Ba1   P1    S    
C27   H45   S    
O1    P1    D    
C16   C17   A    
C5    H25   S    
C2    H1    S    
C25   H51   S    
C41   H41   S    
C35   H46   S    
O18   P6    S    
O15   P7    S    
C40   C43   A    
C18   P8    S    
C41   C42   A    
Ba1   O18   S    
C34   O7    S    
C27   C28   A    
O12   P1    S    
Ba1   O5    S    
C50   H59   S    
C9    H39   S    
C29   C30   A    
C49   H62   S    
Ba2   O14   S    
C44   H4    S    
C7    O17   S    
O9    P5    S    
C1    C49   S    
Ba1   O12   S    
C10   C11   A    
C33   C42   S    
C38   C39   A    
O21   P6    S    
C11   C13   A    
C6    H27   S    
C24   H40   S    
C40   C41   A    
C1    C2    S    
C30   P3    S    
O6    P8    S    
C46   H9    S    
C45   H5    S    
C1    H12   S    
C4    H20   S    
Ba2   O5    S    
O19   P6    D    
C25   C30   A    
C16   C20   A    
C23   H53   S    
Ba1   O22   S    
O17   P8    S    
Ba1   P2    S    
C43   H50   S    
C31   H43   S    
C8    H32   S    
C50   C51   S    
C46   H8    S    
O10   P5    D    
C17   P4    S    
C12   H44   S    
C8    H31   S    
O14   P7    D    
C2    O21   S    
C34   H54   S    
C26   P2    S    
C1    H22   S    
C13   C22   S    
C2    H16   S    
Ba2   O9    S    
C3    C4    S    
C18   C24   A    
C49   H61   S    
C11   H38   S    
C8    H34   S    
C31   C32   A    
C28   C37   S    
C23   H23   S    
Ba1   O13   S    
C12   C23   S    
C48   H15   S    
C32   H42   S    
O3    P3    S    
C49   C50   S    
C38   C42   A    
C18   C19   A    
C47   C48   S    
C25   C26   A    
C39   C43   A    
C20   C21   S    
O5    P4    S    
C7    H30   S    
C9    C10   A    
C50   H60   S    
C45   H6    S    
