data_mof_unit_61968.cif
_audit_creation_date              2013-03-05T16:37:39-0500
_audit_creation_method            fapswitch 2.2
_symmetry_space_group_name_H-M    P1
_symmetry_Int_Tables_number       1
_space_group_crystal_system       triclinic
_cell_length_a                    15.990149
_cell_length_b                    14.76723
_cell_length_c                    15.060982
_cell_angle_alpha                 90.34066
_cell_angle_beta                  90.217503
_cell_angle_gamma                 90.047229
_cell_volume                      3556.26305354

loop_
_atom_site_label
_atom_site_type_symbol
_atom_site_description
_atom_site_fract_x
_atom_site_fract_y
_atom_site_fract_z
_atom_type_partial_charge
O1    O     O_R   0.380310 0.575320 0.500020 -0.541267
O2    O     O_R   0.619690 0.424680 0.499980 -0.541267
O3    O     O_R   0.619690 0.575320 0.499980 -0.584689
O4    O     O_R   0.380310 0.424680 0.500020 -0.584689
C1    C     C_R   0.340850 0.499971 0.500633 0.860095
C2    C     C_R   0.659150 0.500029 0.499366 0.860094
O5    O     O_R   0.499980 0.575350 0.370250 -0.573064
O6    O     O_R   0.500020 0.424650 0.629750 -0.573064
O7    O     O_R   0.500020 0.575350 0.629750 -0.539528
O8    O     O_R   0.499980 0.424650 0.370250 -0.539528
C3    C     C_R   0.501582 0.499680 0.328558 0.881653
C4    C     C_R   0.498418 0.500320 0.671442 0.881653
Cu1   Cu    Cu3+1 0.500000 0.589220 0.500000 1.067135
Cu2   Cu    Cu3+1 0.500000 0.410780 0.500000 1.067135
C5    C     C_R   0.565480 0.461226 0.813341 0.104997
C6    C     C_R   0.434520 0.538774 0.186659 0.104997
C7    C     C_R   0.498549 0.501154 0.767868 -0.225729
C8    C     C_R   0.501451 0.498846 0.232132 -0.225729
C9    C     C_R   0.431773 0.540921 0.814205 0.293910
C10   C     C_R   0.568226 0.459079 0.185795 0.293910
C11   C     C_R   0.437372 0.550007 0.907351 -0.100157
C12   C     C_R   0.562628 0.449993 0.092649 -0.100157
C13   C     C_R   0.499412 0.499948 0.953265 -0.043609
C14   C     C_R   0.500588 0.500052 0.046735 -0.043609
C15   C     C_R   0.559733 0.449056 0.905629 -0.010893
C16   C     C_R   0.440267 0.550944 0.094371 -0.010893
C17   C     C_R   0.384979 0.609973 0.955344 0.297678
C18   C     C_R   0.615020 0.390027 0.044656 0.297678
C19   C     C_R   0.389249 0.613119 0.048372 0.115546
C20   C     C_R   0.610751 0.386881 0.951628 0.115546
H1    H     H_    0.077012 0.516141 0.642796 0.181659
H2    H     H_    0.922988 0.483859 0.357204 0.181659
H3    H     H_    0.922896 0.516111 0.642102 0.171408
H4    H     H_    0.077104 0.483889 0.357898 0.171408
C21   C     C_R   0.956338 0.509078 0.579986 -0.142544
C22   C     C_R   0.043662 0.490922 0.420014 -0.142544
C23   C     C_R   0.043615 0.509088 0.580381 -0.125584
C24   C     C_R   0.956385 0.490912 0.419619 -0.125584
C25   C     C_R   0.912776 0.500002 0.499605 0.122202
C26   C     C_R   0.087224 0.499998 0.500395 0.122202
C27   C     C_1   0.823318 0.500038 0.499242 -0.006113
C28   C     C_1   0.176682 0.499962 0.500758 -0.006113
C29   C     C_1   0.251735 0.499932 0.500852 -0.078020
C30   C     C_1   0.748265 0.500068 0.499148 -0.078021
H5    H     H_    0.529553 0.084447 0.639583 0.157366
H6    H     H_    0.470447 0.915553 0.360417 0.157366
H7    H     H_    0.470517 0.082701 0.360406 0.160137
H8    H     H_    0.529483 0.917299 0.639594 0.160137
C31   C     C_R   0.516524 0.952593 0.578230 -0.113822
C32   C     C_R   0.483476 0.047407 0.421770 -0.113822
C33   C     C_R   0.483438 0.951614 0.421776 -0.125826
C34   C     C_R   0.516562 0.048385 0.578224 -0.125826
C35   C     C_R   0.499967 0.902863 0.500006 0.024626
C36   C     C_R   0.500032 0.097137 0.499994 0.024626
C37   C     C_1   0.499978 0.802716 0.500004 0.186691
C38   C     C_1   0.500022 0.197284 0.499996 0.186691
N1    N     N_1   0.500000 0.276710 0.500000 -0.136745
N2    N     N_1   0.500000 0.723290 0.500000 -0.136745
I1    I     I_    0.682931 0.450241 0.745229 -0.285736
I2    I     I_    0.317069 0.549759 0.254771 -0.285736
N3    N     N_R   0.356009 0.564061 0.767835 0.129116
O9    O     O_R   0.286008 0.525188 0.789480 -0.318230
O10   O     O_R   0.355839 0.625596 0.706396 -0.299468
N4    N     N_R   0.643991 0.435939 0.232165 0.129116
O11   O     O_R   0.644160 0.374404 0.293604 -0.299468
O12   O     O_R   0.713992 0.474812 0.210520 -0.318230
N5    N     N_R   0.335289 0.676167 0.910065 0.175228
O13   O     O_R   0.371479 0.739119 0.863869 -0.288959
O14   O     O_R   0.254850 0.679299 0.922443 -0.252800
N6    N     N_R   0.664711 0.323833 0.089935 0.175228
O15   O     O_R   0.745150 0.320701 0.077557 -0.252800
O16   O     O_R   0.628521 0.260881 0.136131 -0.288959
I3    I     I_    0.344328 0.734386 0.111580 -0.136662
I4    I     I_    0.655672 0.265614 0.888420 -0.136662

loop_
_geom_bond_atom_site_label_1
_geom_bond_atom_site_label_2
_geom_bond_distance
_ccdc_geom_bond_type
C3    C8    1.452240 S    
C17   C19   1.402988 A    
O3    C2    1.278855 A    
C25   C27   1.430431 S    
O5    C3    1.278844 A    
C32   C36   1.408691 A    
O1    C1    1.278789 A    
C21   C23   1.395554 A    
C14   C16   1.417710 A    
C23   C26   1.400041 A    
C24   C25   1.400042 A    
C20   I4    2.148526 S    
C5    C15   1.405920 A    
C19   I3    2.148526 S    
C38   N1    1.172905 T    
C6    I2    2.149170 S    
N3    O10   1.300754 A    
O7    Cu1   1.966077 S    
C7    C9    1.404919 A    
C4    C7    1.452240 S    
C13   C14   1.407804 A    
N6    O15   1.301190 A    
H2    C24   1.083800 S    
H4    C22   1.083835 S    
O3    Cu1   1.925005 S    
C26   C28   1.430432 S    
C11   C17   1.416578 A    
C2    C30   1.424988 S    
Cu1   Cu2   2.635063 S    
O2    C2    1.278789 A    
C34   C36   1.408682 A    
H7    C32   1.083138 S    
C35   C37   1.478895 S    
C6    C16   1.405920 A    
C36   C38   1.478895 S    
N5    O13   1.301160 A    
C22   C26   1.400094 A    
O8    Cu2   1.966078 S    
Cu1   N2    1.979844 S    
H5    C34   1.083167 S    
H6    C33   1.083167 S    
H1    C23   1.083800 S    
N5    O14   1.301190 A    
N4    O12   1.301018 A    
C10   N4    1.438500 S    
C21   C25   1.400094 A    
O6    C4    1.278844 A    
C31   C34   1.414587 A    
C32   C33   1.414587 A    
H8    C31   1.083138 S    
C10   C12   1.410980 A    
C11   C13   1.418042 A    
C27   C30   1.200106 T    
C12   C14   1.418042 A    
O1    Cu1   1.924672 S    
C28   C29   1.200106 T    
C15   C20   1.411723 A    
C5    C7    1.400851 A    
Cu2   N1    1.979844 S    
O6    Cu2   1.963654 S    
C9    C11   1.410980 A    
C5    I1    2.149170 S    
C18   N6    1.434223 S    
O4    C1    1.278854 A    
N6    O16   1.301160 A    
N4    O11   1.300754 A    
C22   C24   1.395553 A    
C9    N3    1.438500 S    
C31   C35   1.408691 A    
C18   C20   1.402988 A    
H3    C21   1.083835 S    
C8    C10   1.404919 A    
C13   C15   1.417710 A    
O4    Cu2   1.925008 S    
N3    O9    1.301018 A    
O2    Cu2   1.924668 S    
O7    C4    1.277076 A    
C17   N5    1.434223 S    
O8    C3    1.277076 A    
O5    Cu1   1.963656 S    
C16   C19   1.411723 A    
C6    C8    1.400851 A    
C37   N2    1.172905 T    
C1    C29   1.424988 S    
C12   C18   1.416578 A    
C33   C35   1.408682 A    
