data_mof_unit_26036.cif
_audit_creation_date              2012-12-10T18:07:48-0500
_audit_creation_method            fapswitch 2.2
_symmetry_space_group_name_H-M    P1
_symmetry_Int_Tables_number       1
_space_group_crystal_system       triclinic
_cell_length_a                    10.654095
_cell_length_b                    12.761845
_cell_length_c                    13.876944
_cell_angle_alpha                 97.805549
_cell_angle_beta                  90.553824
_cell_angle_gamma                 92.493211
_cell_volume                      1867.308894

loop_
_atom_site_label
_atom_site_type_symbol
_atom_type_description
_atom_site_fract_x
_atom_site_fract_y
_atom_site_fract_z
_atom_type_partial_charge
C1    C     C_R   0.496974 0.483767 0.315907 0.814119
C2    C     C_R   0.502213 0.516282 0.684143 0.815230
C3    C     C_2   0.465598 0.027754 0.470403 0.116423
C4    C     C_2   0.534439 0.972241 0.529573 0.116454
C5    C     C_1   0.525114 0.854420 0.520016 0.171130
C6    C     C_1   0.474918 0.145579 0.479991 0.173424
C7    C     C_R   0.259460 0.500635 0.497415 0.856583
C8    C     C_R   0.740605 0.499301 0.501776 0.857811
C9    C     C_3   0.035367 0.417148 0.436851 0.127970
C10   C     C_3   0.964897 0.582718 0.561445 0.126304
C11   C     C_3   0.955610 0.506155 0.409534 0.101360
C12   C     C_3   0.044560 0.493664 0.588753 0.101948
C13   C     C_3   0.876353 0.498196 0.501347 -0.284901
C14   C     C_3   0.123772 0.501671 0.497027 -0.283785
C15   C     C_3   0.957964 0.408681 0.528834 0.421972
C16   C     C_3   0.042256 0.591115 0.469428 0.422598
C17   C     C_1   0.508584 0.525048 0.787438 -0.175243
C18   C     C_1   0.485296 0.475575 0.212943 -0.174342
C19   C     C_2   0.523274 0.540084 0.979497 0.376399
C20   C     C_2   0.458515 0.466393 0.022103 0.377296
C21   C     C_1   0.472995 0.470084 0.126407 -0.058170
C22   C     C_1   0.515325 0.532518 0.874454 -0.065226
Cu1   Cu    Cu3+1 0.491940 0.395330 0.493960 0.985550
Cu2   Cu    Cu3+1 0.508060 0.604670 0.506040 0.983756
N1    N     N_1   0.479830 0.238040 0.484880 -0.163530
N2    N     N_1   0.520170 0.761960 0.515120 -0.164295
O1    O     O_R   0.492210 0.399110 0.356330 -0.584196
O2    O     O_R   0.507790 0.600890 0.643670 -0.585548
O3    O     O_R   0.505820 0.575890 0.366540 -0.561680
O4    O     O_R   0.494180 0.424110 0.633460 -0.560766
O5    O     O_R   0.310050 0.411620 0.494870 -0.577275
O6    O     O_R   0.689950 0.588380 0.505130 -0.577339
O7    O     O_R   0.323660 0.588400 0.505080 -0.546294
O8    O     O_R   0.676340 0.411600 0.494920 -0.545646
N3    N     N_2   0.900664 0.512525 0.314650 -0.422082
H1    H     H_    0.826103 0.459153 0.296198 0.254603
C23   C     C_3   0.988200 0.519687 0.236423 -0.698480
H2    H     H_    0.938042 0.544574 0.173413 0.227061
H3    H     H_    0.028325 0.441846 0.212809 0.218629
H4    H     H_    0.065934 0.578879 0.259073 0.252301
N4    N     N_2   0.099820 0.487132 0.683495 -0.423160
H5    H     H_    0.174522 0.540385 0.701844 0.254083
C24   C     C_3   0.012526 0.480137 0.761848 -0.701073
H6    H     H_    0.062878 0.455644 0.824949 0.226004
H7    H     H_    0.934868 0.420788 0.739440 0.252887
H8    H     H_    0.972433 0.557987 0.785121 0.226767
N5    N     N_2   0.080718 0.329872 0.370405 -0.419381
H9    H     H_    0.148243 0.352804 0.323906 0.251759
C25   C     C_3   0.985781 0.255310 0.323028 -0.698621
H10   H     H_    0.031932 0.185520 0.284768 0.218677
H11   H     H_    0.931329 0.291802 0.268901 0.229043
H12   H     H_    0.920331 0.227379 0.376756 0.263445
N6    N     N_2   0.920480 0.670434 0.627859 -0.418634
H13   H     H_    0.853777 0.648093 0.675294 0.260914
C26   C     C_3   0.016329 0.745086 0.673774 -0.696903
H14   H     H_    0.970937 0.814962 0.712595 0.219503
H15   H     H_    0.080324 0.773014 0.619141 0.264069
H16   H     H_    0.072365 0.708580 0.726994 0.227024
O9    O     O_3   0.903248 0.316140 0.559274 -0.601460
C27   C     C_3   0.997757 0.248361 0.581056 0.053029
H17   H     H_    0.056238 0.285168 0.644329 0.185553
H18   H     H_    0.059991 0.228198 0.518101 0.184225
C28   C     C_3   0.935124 0.146125 0.606526 -0.328538
H19   H     H_    0.874722 0.164939 0.670829 0.228418
H20   H     H_    0.874658 0.109002 0.544410 0.244054
C29   C     C_3   0.032221 0.068195 0.629351 -0.936504
H21   H     H_    0.096634 0.051345 0.567309 0.268490
H22   H     H_    0.983703 0.992860 0.642629 0.260395
H23   H     H_    0.088005 0.101293 0.695380 0.259796
O10   O     O_3   0.097105 0.683538 0.438845 -0.602219
C30   C     C_3   0.002731 0.751248 0.416619 0.051688
H24   H     H_    0.939598 0.770994 0.479096 0.183834
H25   H     H_    0.945098 0.714578 0.352837 0.186064
C31   C     C_3   0.065582 0.853758 0.391949 -0.327514
H26   H     H_    0.125452 0.890626 0.454507 0.243580
H27   H     H_    0.126622 0.835335 0.327962 0.228671
C32   C     C_3   0.968715 0.931783 0.368915 -0.935823
H28   H     H_    0.913324 0.898850 0.302639 0.259481
H29   H     H_    0.017403 0.007170 0.355961 0.260924
H30   H     H_    0.903932 0.948505 0.430738 0.267986
O11   O     O_3   0.386896 0.386681 0.964133 -0.630180
C33   C     C_3   0.291510 0.338139 0.015669 0.062272
H31   H     H_    0.211164 0.315502 0.964328 0.161729
H32   H     H_    0.253139 0.392731 0.076820 0.124557
C34   C     C_3   0.337668 0.237020 0.049929 -0.330602
H33   H     H_    0.362794 0.180485 0.985600 0.223394
H34   H     H_    0.422973 0.255447 0.096786 0.221576
C35   C     C_3   0.236874 0.184785 0.107201 -0.941861
H35   H     H_    0.214404 0.238565 0.173932 0.260031
H36   H     H_    0.271723 0.110513 0.128831 0.258204
H37   H     H_    0.150180 0.165265 0.062067 0.255656
O12   O     O_3   0.597144 0.617787 0.038227 -0.634077
C36   C     C_3   0.648230 0.699524 0.988955 0.075448
H38   H     H_    0.661894 0.771330 0.043655 0.166562
H39   H     H_    0.583569 0.722296 0.932564 0.132587
C37   C     C_3   0.776888 0.670672 0.947407 -0.349851
H40   H     H_    0.839362 0.652438 0.006996 0.225324
H41   H     H_    0.767054 0.599285 0.891935 0.211392
C38   C     C_3   0.837567 0.761533 0.900867 -0.948469
H42   H     H_    0.780371 0.777000 0.837350 0.262627
H43   H     H_    0.932912 0.740298 0.875978 0.258158
H44   H     H_    0.846622 0.834611 0.954419 0.258395
N7    N     N_2   0.618995 0.028649 0.601868 -0.442228
H45   H     H_    0.596039 0.104365 0.629600 0.259824
C39   C     C_3   0.674640 0.970500 0.672968 -0.692844
H46   H     H_    0.737353 0.024595 0.723357 0.220688
H47   H     H_    0.732122 0.906693 0.636214 0.243252
H48   H     H_    0.600075 0.936129 0.716243 0.228770
N8    N     N_2   0.381034 0.971406 0.398073 -0.442622
H49   H     H_    0.403043 0.895214 0.371149 0.259516
C40   C     C_3   0.327410 0.029271 0.325908 -0.695220
H50   H     H_    0.264782 0.975273 0.275362 0.219451
H51   H     H_    0.403174 0.062540 0.282994 0.231561
H52   H     H_    0.270247 0.093888 0.361595 0.246326

loop_
_geom_bond_atom_site_label_1
_geom_bond_atom_site_label_2
_ccdc_geom_bond_type
C29   H22   S    
C26   H14   S    
C28   H20   S    
C8    C13   S    
C18   C21   T    
C7    O7    A    
N4    H5    S    
N3    H1    S    
C9    C14   S    
C3    C6    S    
C37   C38   S    
O11   C33   S    
N5    C25   S    
N6    H13   S    
C39   H47   S    
C1    C18   S    
C36   H38   S    
C31   H27   S    
C27   C28   S    
N3    C23   S    
Cu2   N2    S    
C23   H4    S    
N8    C40   S    
C34   H33   S    
C34   C35   S    
C29   H23   S    
C4    N7    S    
C27   H18   S    
C10   N6    S    
Cu2   O3    S    
C19   O12   S    
C7    C14   S    
C19   C20   D    
C25   H11   S    
C31   C32   S    
C37   H41   S    
Cu1   Cu2   S    
C35   H37   S    
O10   C30   S    
Cu1   O1    S    
C25   H12   S    
C32   H29   S    
C29   H21   S    
C28   C29   S    
O9    C27   S    
C36   H39   S    
C20   O11   S    
C2    C17   S    
N4    C24   S    
N6    C26   S    
C39   H48   S    
C7    O5    A    
C31   H26   S    
C34   H34   S    
C8    O6    A    
Cu1   O4    S    
C19   C22   S    
C16   O10   S    
C40   H51   S    
C30   H25   S    
C32   H28   S    
C33   H31   S    
C28   H19   S    
C27   H17   S    
Cu1   O5    S    
C24   H6    S    
Cu2   O6    S    
C23   H2    S    
Cu2   O7    S    
C9    C11   S    
C11   C16   S    
N5    H9    S    
C12   C15   S    
Cu1   O8    S    
C37   H40   S    
C1    O3    A    
N7    C39   S    
C8    O8    A    
C20   C21   S    
C24   H7    S    
C10   C12   S    
C38   H43   S    
C12   C14   S    
C9    N5    S    
C36   C37   S    
C33   H32   S    
C26   H15   S    
C14   C16   S    
C3    C4    D    
C12   N4    S    
C32   H30   S    
C40   H50   S    
C15   O9    S    
Cu2   O2    S    
C35   H36   S    
C4    C5    S    
C10   C13   S    
C30   C31   S    
C33   C34   S    
C39   H46   S    
C17   C22   T    
C38   H42   S    
C2    O4    A    
C13   C15   S    
C9    C15   S    
C30   H24   S    
C23   H3    S    
C10   C16   S    
N8    H49   S    
C11   C13   S    
C3    N8    S    
C11   N3    S    
O12   C36   S    
C40   H52   S    
Cu1   N1    S    
C24   H8    S    
C5    N2    T    
C6    N1    T    
C38   H44   S    
C35   H35   S    
C25   H10   S    
C26   H16   S    
N7    H45   S    
C1    O1    A    
C2    O2    A    
