data_mof_unit_47976.cif
_audit_creation_date              2012-12-10T17:05:23-0500
_audit_creation_method            fapswitch 2.2
_symmetry_space_group_name_H-M    P1
_symmetry_Int_Tables_number       1
_space_group_crystal_system       triclinic
_cell_length_a                    10.092337
_cell_length_b                    10.728868
_cell_length_c                    15.577114
_cell_angle_alpha                 90.657089
_cell_angle_beta                  67.760398
_cell_angle_gamma                 89.739788
_cell_volume                      1561.03180073

loop_
_atom_site_label
_atom_site_type_symbol
_atom_type_description
_atom_site_fract_x
_atom_site_fract_y
_atom_site_fract_z
_atom_type_partial_charge
C1    C     C_R   0.498033 0.737181 0.503100 0.964171
C2    C     C_R   0.714382 0.440787 0.033390 0.136103
C3    C     C_R   0.576963 0.491445 0.088584 0.074608
C4    C     C_R   0.409896 0.503559 0.675312 0.871269
C5    C     C_R   0.814705 0.419508 0.075389 -0.076273
C6    C     C_R   0.777996 0.441691 0.170002 -0.168289
C7    C     C_R   0.554282 0.531311 0.179051 -0.153238
C8    C     C_2   0.597963 0.067387 0.519113 -0.131931
C9    C     C_2   0.505176 0.130849 0.493574 -0.324498
C10   C     C_2   0.603743 0.933185 0.513192 -0.117933
C11   C     C_2   0.489687 0.868780 0.515488 -0.278897
C12   C     C_R   0.402979 0.504788 0.914767 0.119957
C13   C     C_2   0.105526 0.423115 0.450933 -0.164843
C14   C     C_2   0.952164 0.414131 0.460026 -0.106745
C15   C     C_R   0.500904 0.262851 0.499055 0.930590
C16   C     C_R   0.590002 0.501075 0.324137 0.872661
C17   C     C_R   0.351919 0.520235 0.775985 -0.213236
C18   C     C_R   0.645273 0.494877 0.222596 -0.067774
C19   C     C_R   0.195572 0.627572 0.917030 -0.078477
C20   C     C_R   0.239351 0.606540 0.820763 -0.102021
C21   C     C_R   0.419181 0.456996 0.826854 -0.083534
C22   C     C_2   0.918340 0.299964 0.419233 1.007217
C23   C     C_R   0.279588 0.577628 0.963754 0.013358
C24   C     C_2   0.889469 0.622065 0.515719 0.546062
C25   C     C_2   0.890199 0.371924 0.872118 0.447594
C26   C     C_2   0.072681 0.712894 0.965335 0.940020
C27   C     C_2   0.165757 0.673755 0.768336 0.983397
C28   C     C_2   0.484062 0.330908 0.794186 0.420671
C29   C     C_2   0.248266 0.521689 0.203170 0.898346
C30   C     C_R   0.506799 0.484729 0.954701 0.106967
C31   C     C_R   0.469184 0.506780 0.050776 -0.008549
C32   C     C_R   0.325340 0.545939 0.103737 -0.038473
C33   C     C_R   0.241338 0.595211 0.058895 -0.234176
C34   C     C_R   0.649022 0.450756 0.899191 -0.194243
C35   C     C_R   0.749644 0.420768 0.937344 -0.015883
H1    H     H_    0.139141 0.637167 0.100412 0.215234
H2    H     H_    0.853094 0.417234 0.201649 0.203443
H3    H     H_    0.683079 0.445785 0.824457 0.143086
H4    H     H_    0.845438 0.223314 0.326997 0.335056
H5    H     H_    0.988115 0.664759 0.470635 0.025383
H6    H     H_    0.932887 0.403935 0.801018 0.092493
H7    H     H_    0.988846 0.886007 0.975845 0.366452
H8    H     H_    0.980269 0.711278 0.752630 0.359003
H9    H     H_    0.515002 0.301634 0.722342 0.072038
H10   H     H_    0.096113 0.580288 0.323480 0.331941
H11   H     H_    0.921798 0.385484 0.036859 0.199283
H12   H     H_    0.673773 0.114176 0.542497 0.204954
H13   H     H_    0.432711 0.087123 0.466032 0.162867
H14   H     H_    0.703742 0.887741 0.506304 0.211338
H15   H     H_    0.386053 0.911779 0.529296 0.178136
H16   H     H_    0.184182 0.361142 0.402291 0.234817
H17   H     H_    0.072714 0.534130 0.559247 0.176760
H18   H     H_    0.464878 0.590557 0.218163 0.152582
N1    N     N_2   0.148330 0.498670 0.499030 -0.210992
N2    N     N_2   0.852680 0.498640 0.499000 -0.177092
O1    O     O_R   0.386950 0.680940 0.500010 -0.593198
O2    O     O_R   0.861556 0.308113 0.350580 -0.781960
O3    O     O_2   0.808402 0.682325 0.581710 -0.554187
O4    O     O_2   0.954824 0.290040 0.894296 -0.555660
O5    O     O_2   0.965453 0.673783 0.026834 -0.634412
O6    O     O_R   0.079219 0.837407 0.938700 -0.747518
O7    O     O_2   0.233887 0.741676 0.704611 -0.605155
O8    O     O_R   0.018118 0.661031 0.793330 -0.821372
O9    O     O_2   0.495987 0.255030 0.848746 -0.522489
O10   O     O_2   0.268065 0.423802 0.236023 -0.628347
O11   O     O_R   0.147790 0.608976 0.257976 -0.804945
O12   O     O_R   0.613110 0.680900 0.499990 -0.590844
O13   O     O_R   0.322330 0.500030 0.632270 -0.603263
O14   O     O_R   0.548480 0.499990 0.632240 -0.594519
O15   O     O_R   0.386890 0.319100 0.500010 -0.600975
O16   O     O_R   0.613050 0.319060 0.499990 -0.615019
O17   O     O_R   0.451520 0.500010 0.367760 -0.596221
O18   O     O_R   0.677670 0.499970 0.367730 -0.575936
O19   O     O_2   0.948348 0.198148 0.441805 -0.642223
Zn1   Zn    Zn3+2 0.349000 0.500030 0.500020 0.998457
Zn2   Zn    Zn3+2 0.651000 0.499970 0.499980 1.019030

loop_
_geom_bond_atom_site_label_1
_geom_bond_atom_site_label_2
_ccdc_geom_bond_type
C2    C35   A    
C8    C9    D    
C23   C33   A    
C19   C23   A    
C25   O4    D    
C1    O12   A    
C27   O7    D    
C15   O16   A    
C5    H11   S    
O14   Zn2   S    
C19   C20   A    
C16   O17   A    
C34   C35   A    
C7    C18   A    
C32   C33   A    
C14   C22   S    
C22   O2    S    
C2    C3    A    
C9    C15   S    
C8    H12   S    
H8    O8    S    
O1    Zn1   S    
C34   H3    S    
C13   C14   S    
O13   Zn1   S    
C3    C31   A    
H7    O6    S    
C5    C6    A    
C26   O5    D    
C27   O8    S    
C25   C35   S    
O17   Zn1   S    
C29   O10   D    
C4    C17   S    
C28   O9    D    
C8    C10   S    
C4    O14   A    
C20   C27   S    
C26   O6    S    
H17   N1    S    
C14   N2    D    
C29   C32   S    
C3    C7    A    
N2    Zn2   S    
C30   C31   A    
C6    C18   A    
O18   Zn2   S    
C1    O1    A    
C6    H2    S    
C2    C5    A    
C10   C11   D    
C30   C34   A    
C29   O11   S    
H4    O2    S    
O16   Zn2   S    
H10   O11   S    
C33   H1    S    
C9    H13   S    
C19   C26   S    
C28   H9    S    
C24   O3    D    
C13   N1    D    
C25   H6    S    
O15   Zn1   S    
C11   H15   S    
C15   O15   A    
C22   O19   D    
C12   C21   A    
C24   H5    S    
C12   C23   A    
O12   Zn2   S    
C7    H18   S    
C12   C30   A    
C13   H16   S    
C10   H14   S    
C4    O13   A    
C17   C20   A    
C21   C28   S    
C16   C18   S    
C17   C21   A    
C31   C32   A    
N1    Zn1   S    
C24   N2    S    
C16   O18   A    
C1    C11   S    
