data_mof_unit_39991.cif
_audit_creation_date              2012-10-26T20:37:55-0400
_audit_creation_method            fapswitch 2.2
_symmetry_space_group_name_H-M    P1
_symmetry_Int_Tables_number       1
_space_group_crystal_system       triclinic
_cell_length_a                    10.1439
_cell_length_b                    10.831928
_cell_length_c                    12.970663
_cell_angle_alpha                 88.128778
_cell_angle_beta                  72.913132
_cell_angle_gamma                 109.243013
_cell_volume                      1272.86246174

loop_
_atom_site_label
_atom_site_type_symbol
_atom_type_description
_atom_site_fract_x
_atom_site_fract_y
_atom_site_fract_z
_atom_type_partial_charge
C1    C     C_R   0.441058 0.253321 0.510995 0.558389
C2    C     C_R   0.664081 0.653486 0.000860 -0.023850
C3    C     C_R   0.344200 0.373245 0.891788 -0.055594
C4    C     C_R   0.653256 0.637938 0.111219 -0.053519
C5    C     C_R   0.543359 0.587322 0.857921 -0.024653
C6    C     C_R   0.464903 0.419925 0.138693 -0.019822
C7    C     C_R   0.554578 0.563995 0.963441 0.007106
C8    C     C_R   0.451334 0.446309 0.034997 0.008051
C9    C     C_2   0.413734 0.110306 0.519287 0.016743
C10   C     C_2   0.570638 0.884187 0.515727 -0.017762
C11   C     C_2   0.460093 0.050757 0.588848 0.009170
C12   C     C_R   0.555328 0.745418 0.499850 0.559772
C13   C     C_2   0.454760 0.912799 0.583377 -0.004940
C14   C     C_3   0.401778 0.281568 0.201618 -0.368582
C15   C     C_3   0.619979 0.722089 0.787847 -0.357705
C16   C     C_1   0.743557 0.743618 0.154267 0.205471
C17   C     C_1   0.246259 0.268407 0.853278 0.194344
C18   C     C_1   0.205265 0.262198 0.077994 0.201226
C19   C     C_1   0.794338 0.756735 0.928184 0.194422
C20   C     C_3   0.314410 0.808555 0.658651 -0.354991
C21   C     C_3   0.493815 0.109504 0.686324 -0.380174
C22   C     C_3   0.714330 0.993195 0.453787 -0.389500
C23   C     C_2   0.082909 0.514458 0.491480 0.151981
C24   C     C_3   0.339930 0.033224 0.444051 -0.406061
C25   C     C_3   0.808988 0.375925 0.593574 -0.314368
C26   C     C_3   0.195553 0.626705 0.404476 -0.307940
C27   C     C_3   0.951162 0.650807 0.355207 -0.195486
C28   C     C_3   0.049604 0.355763 0.648572 -0.195746
C29   C     C_2   0.919699 0.489106 0.508995 0.155530
C30   C     C_R   0.469678 0.492835 0.702877 0.528197
C31   C     C_R   0.530716 0.508667 0.297140 0.545677
C32   C     C_R   0.553208 0.521581 0.179840 -0.007670
C33   C     C_R   0.448897 0.485509 0.819989 -0.010367
C34   C     C_R   0.337224 0.359440 0.001067 -0.025069
Cu1   Cu    Cu3+1 0.647370 0.522180 0.481340 0.908416
Cu2   Cu    Cu3+1 0.352630 0.477820 0.518660 0.897008
H1    H     H_    0.474556 0.267856 0.246909 0.126692
H2    H     H_    0.417702 0.042207 0.762173 0.146915
H3    H     H_    0.607516 0.119477 0.682186 0.114110
H4    H     H_    0.478165 0.205480 0.694717 0.130576
H5    H     H_    0.794579 0.953347 0.401726 0.168080
H6    H     H_    0.694788 0.062524 0.400125 0.151335
H7    H     H_    0.764092 0.047982 0.511962 0.127225
H8    H     H_    0.305243 0.095816 0.396140 0.131486
H9    H     H_    0.416694 0.994499 0.386560 0.129564
H10   H     H_    0.239395 0.949679 0.492503 0.136571
H11   H     H_    0.820040 0.282535 0.567724 0.089225
H12   H     H_    0.290853 0.263728 0.260788 0.167214
H13   H     H_    0.812384 0.392935 0.676249 0.089632
H14   H     H_    0.696778 0.360166 0.605236 0.206167
H15   H     H_    0.189308 0.606923 0.322921 0.096701
H16   H     H_    0.186486 0.721661 0.427417 0.074156
H17   H     H_    0.310056 0.645588 0.390186 0.205910
H18   H     H_    0.873893 0.683160 0.327184 0.202142
H19   H     H_    0.023654 0.744318 0.370773 0.092032
H20   H     H_    0.001133 0.604602 0.286793 0.103586
H21   H     H_    0.126191 0.321807 0.675878 0.207624
H22   H     H_    0.005215 0.408249 0.714421 0.100679
H23   H     H_    0.397346 0.205786 0.145893 0.134891
H24   H     H_    0.971881 0.261530 0.638770 0.093978
H25   H     H_    0.565493 0.734976 0.727881 0.123906
H26   H     H_    0.613775 0.801743 0.838712 0.133516
H27   H     H_    0.735913 0.735534 0.741579 0.169567
H28   H     H_    0.247884 0.853830 0.718494 0.144498
H29   H     H_    0.243062 0.755839 0.611719 0.159494
H30   H     H_    0.340530 0.737602 0.705593 0.144318
N1    N     N_2   0.131210 0.444490 0.546730 -0.252152
N2    N     N_2   0.868790 0.555510 0.453270 -0.248765
N3    N     N_1   0.815192 0.828597 0.188021 -0.301324
N4    N     N_1   0.168372 0.183670 0.823561 -0.295328
N5    N     N_1   0.099512 0.184812 0.138638 -0.285872
N6    N     N_1   0.899050 0.839115 0.871253 -0.291237
O1    O     O_R   0.578710 0.332530 0.490040 -0.514161
O2    O     O_R   0.421290 0.667470 0.509960 -0.526590
O3    O     O_R   0.329810 0.295070 0.521560 -0.487208
O4    O     O_R   0.670190 0.704930 0.478440 -0.493128
O5    O     O_R   0.604230 0.515670 0.637800 -0.515596
O6    O     O_R   0.395770 0.484330 0.362200 -0.509643
O7    O     O_R   0.355330 0.478200 0.669330 -0.511267
O8    O     O_R   0.644670 0.521800 0.330670 -0.497226

loop_
_geom_bond_atom_site_label_1
_geom_bond_atom_site_label_2
_ccdc_geom_bond_type
C6    C32   A    
C4    C16   S    
C12   O2    A    
Cu1   Cu2   S    
C27   H18   S    
C7    C8    A    
C28   H21   S    
C10   C22   S    
C14   H23   S    
C24   H9    S    
C23   C29   S    
C20   H30   S    
C27   H19   S    
C22   H5    S    
C3    C33   A    
Cu1   O8    S    
C23   C26   S    
C23   N1    D    
C25   H14   S    
C27   N2    S    
C30   O5    A    
Cu1   O1    S    
C21   H2    S    
C2    C7    A    
C5    C33   A    
C10   C13   D    
C25   H11   S    
C30   C33   S    
C17   N4    T    
C19   N6    T    
C28   H24   S    
C25   C29   S    
Cu1   O4    S    
Cu2   N1    S    
C1    O3    A    
C20   H29   S    
C31   O8    A    
C28   N1    S    
C1    C9    S    
C5    C7    A    
C27   H20   S    
C6    C8    A    
C3    C34   A    
Cu1   O5    S    
C20   H28   S    
C2    C4    A    
Cu2   O3    S    
C26   H16   S    
C6    C14   S    
C29   N2    D    
C9    C11   D    
C31   C32   S    
C21   H3    S    
C15   H25   S    
C8    C34   A    
C18   C34   S    
C4    C32   A    
C10   C12   S    
C30   O7    A    
C12   O4    A    
C24   H8    S    
C26   H17   S    
C31   O6    A    
C18   N5    T    
Cu2   O2    S    
C13   C20   S    
C2    C19   S    
C16   N3    T    
Cu2   O7    S    
C14   H12   S    
C9    C24   S    
C28   H22   S    
C24   H10   S    
C1    O1    A    
Cu2   O6    S    
C26   H15   S    
C14   H1    S    
C11   C13   S    
C22   H6    S    
C21   H4    S    
Cu1   N2    S    
C15   H26   S    
C11   C21   S    
C3    C17   S    
C25   H13   S    
C5    C15   S    
C15   H27   S    
C22   H7    S    
