data_mof_unit_54428.cif
_audit_creation_date              2013-03-05T15:53:17-0500
_audit_creation_method            fapswitch 2.2
_symmetry_space_group_name_H-M    P1
_symmetry_Int_Tables_number       1
_space_group_crystal_system       triclinic
_cell_length_a                    11.548403
_cell_length_b                    10.730606
_cell_length_c                    9.895261
_cell_angle_alpha                 89.679525
_cell_angle_beta                  90.022988
_cell_angle_gamma                 91.654766
_cell_volume                      1225.7036398

loop_
_atom_site_label
_atom_site_type_symbol
_atom_site_description
_atom_site_fract_x
_atom_site_fract_y
_atom_site_fract_z
_atom_type_partial_charge
O1    O     O_R   0.500000 0.316780 0.614690 -0.653292
O2    O     O_R   0.499990 0.316750 0.385360 -0.635305
C1    C     C_R   0.507757 0.260046 0.501393 0.897171
O3    O     O_R   0.334450 0.500030 0.614670 -0.629016
O4    O     O_R   0.334440 0.500000 0.385330 -0.626092
C2    C     C_R   0.281954 0.499339 0.499992 0.912177
Zn1   Zn    Zn3+2 0.500010 0.500020 0.653130 0.945274
Zn2   Zn    Zn3+2 0.499990 0.499980 0.346870 0.960988
O5    O     O_R   0.500010 0.683250 0.614640 -0.634076
O6    O     O_R   0.500000 0.683220 0.385310 -0.617829
O7    O     O_R   0.665560 0.500000 0.614670 -0.608991
O8    O     O_R   0.665550 0.499970 0.385330 -0.605273
C3    C     C_R   0.488595 0.739075 0.500375 0.876192
C4    C     C_R   0.718050 0.500205 0.500023 0.910180
C5    C     C_1   0.161497 0.498733 0.499990 -0.121934
C6    C     C_1   0.059331 0.498535 0.500035 0.058752
C7    C     C_1   0.940672 0.498858 0.500079 0.042510
C8    C     C_1   0.838514 0.499462 0.500077 -0.161253
H1    H     H_    0.509837 0.112349 0.286682 0.170965
C9    C     C_R   0.539560 0.111133 0.757999 -0.147457
H2    H     H_    0.590871 0.196360 0.767276 0.175780
C10   C     C_R   0.508812 0.050039 0.878003 -0.152732
H3    H     H_    0.530419 0.091880 0.974434 0.141440
C11   C     C_R   0.447296 0.937056 0.873429 -0.086460
H4    H     H_    0.418250 0.892099 0.966102 0.151669
C12   C     C_R   0.426545 0.879932 0.749314 -0.095667
H5    H     H_    0.376983 0.792883 0.749848 0.166501
C13   C     C_R   0.467886 0.935790 0.627613 0.101665
C14   C     C_R   0.507899 0.059786 0.630739 0.105811
C15   C     C_R   0.513276 0.126256 0.506018 -0.114967
C16   C     C_R   0.504329 0.063641 0.382821 -0.149302
H6    H     H_    0.491105 0.889641 0.284963 0.167095
C17   C     C_R   0.489400 0.936764 0.381500 -0.164097
C18   C     C_R   0.474619 0.871806 0.503073 -0.126825
H7    H     H_    0.627319 0.642987 0.124637 0.149331
C19   C     C_R   0.350405 0.334309 0.140632 -0.305507
H8    H     H_    0.344427 0.332454 0.247640 0.253259
C20   C     C_R   0.275296 0.251894 0.072085 0.200586
C21   C     C_R   0.276102 0.251004 0.930188 0.218954
C22   C     C_R   0.349504 0.335398 0.860939 -0.291354
H9    H     H_    0.346070 0.331488 0.753908 0.254799
C23   C     C_R   0.425967 0.418537 0.928271 0.113211
C24   C     C_R   0.426459 0.418036 0.072535 0.128608
N1    N     N_R   0.498930 0.498800 0.142780 -0.104169
C25   C     C_R   0.570133 0.578691 0.071113 -0.096558
H10   H     H_    0.627402 0.642795 0.873543 0.155884
C26   C     C_R   0.570194 0.578568 0.927862 -0.102284
N2    N     N_R   0.498900 0.498720 0.857170 -0.110333
N3    N     N_R   0.206585 0.162276 0.854666 0.244112
O9    O     O_R   0.192332 0.048163 0.898057 -0.335437
O10   O     O_R   0.170505 0.190113 0.733876 -0.372638
N4    N     N_R   0.195070 0.174447 0.148385 0.241087
O11   O     O_R   0.224241 0.131850 0.266690 -0.380889
O12   O     O_R   0.087677 0.161745 0.109610 -0.314265

loop_
_geom_bond_atom_site_label_1
_geom_bond_atom_site_label_2
_geom_bond_distance
_ccdc_geom_bond_type
C1    C15   1.439371 S    
C24   N1    1.378056 A    
C16   C17   1.367521 A    
C11   H4    1.082645 S    
C14   C15   1.422453 A    
O4    Zn2   1.949506 S    
C4    C8    1.391423 S    
C12   C13   1.418913 A    
C26   N2    1.366322 A    
Zn2   O8    1.949314 S    
H1    C16   1.083881 S    
Zn1   N2    2.019043 S    
C9    H2    1.079602 S    
C19   C20   1.398738 A    
C7    C8    1.179961 T    
C13   C18   1.417312 A    
C3    C18   1.438422 S    
C23   N2    1.377153 A    
N1    C25   1.366362 A    
Zn1   O7    1.949504 S    
C11   C12   1.393272 A    
C13   C14   1.396344 A    
C12   H5    1.081309 S    
O4    C2    1.286470 A    
O3    Zn1   1.949316 S    
C22   C23   1.407212 A    
C22   H9    1.060837 S    
C21   N3    1.439732 S    
O8    C4    1.286476 A    
N4    O12   1.301681 A    
C17   C18   1.395032 A    
O2    C1    1.300710 A    
C9    C14   1.420845 A    
C25   C26   1.417514 A    
C15   C16   1.397606 A    
O7    C4    1.286432 A    
C10   C11   1.388323 A    
C20   N4    1.438097 S    
C23   C24   1.427527 A    
C5    C6    1.179794 T    
H7    C25   1.081738 S    
C20   C21   1.404225 A    
N4    O11   1.302095 A    
O3    C2    1.286301 A    
N3    O9    1.301294 A    
C21   C22   1.399067 A    
Zn1   O5    2.000626 S    
O5    C3    1.285119 A    
H10   C26   1.081763 S    
C19   H8    1.061188 S    
C19   C24   1.407409 A    
O1    C1    1.283117 A    
C2    C5    1.390910 S    
O1    Zn1   2.004814 S    
Zn2   O6    2.004814 S    
O2    Zn2   2.000626 S    
C10   H3    1.082812 S    
Zn2   N1    2.019664 S    
H6    C17   1.083794 S    
C9    C10   1.394327 A    
C6    C7    1.370430 S    
N3    O10   1.301644 A    
O6    C3    1.298185 A    
