data_mof_unit_5563.cif
_audit_creation_date              2012-12-10T17:43:41-0500
_audit_creation_method            fapswitch 2.2
_symmetry_space_group_name_H-M    P1
_symmetry_Int_Tables_number       1
_space_group_crystal_system       triclinic
_cell_length_a                    14.85869
_cell_length_b                    10.671409
_cell_length_c                    9.97367
_cell_angle_alpha                 86.766495
_cell_angle_beta                  89.819888
_cell_angle_gamma                 94.478351
_cell_volume                      1574.07295342

loop_
_atom_site_label
_atom_site_type_symbol
_atom_type_description
_atom_site_fract_x
_atom_site_fract_y
_atom_site_fract_z
_atom_type_partial_charge
C1    C     C_R   0.509330 0.261133 0.504439 0.924064
C2    C     C_R   0.178936 0.384858 0.509403 -0.165013
C3    C     C_R   0.231690 0.497963 0.495083 -0.041488
C4    C     C_R   0.327144 0.497536 0.499672 0.867766
C5    C     C_R   0.195291 0.609724 0.456161 -0.153345
C6    C     C_R   0.500167 0.091406 0.763672 -0.176743
C7    C     C_R   0.456033 0.018497 0.869048 0.176472
C8    C     C_R   0.406258 0.905873 0.842317 0.175783
C9    C     C_R   0.408427 0.862534 0.713387 -0.168936
C10   C     C_R   0.462035 0.928990 0.611225 0.066570
C11   C     C_R   0.495552 0.052047 0.630735 0.002376
C12   C     C_R   0.915444 0.619950 0.445452 -0.059452
C13   C     C_R   0.524845 0.128412 0.515831 -0.237356
C14   C     C_R   0.554646 0.072876 0.401526 0.542128
C15   C     C_R   0.535438 0.944797 0.390805 -0.294256
C16   C     C_R   0.492385 0.739004 0.497014 0.838241
C17   C     C_R   0.488828 0.873230 0.494054 -0.153228
C18   C     C_R   0.354713 0.382441 0.149002 -0.174510
C19   C     C_R   0.268741 0.378556 0.092940 0.465766
C20   C     C_R   0.261010 0.410886 0.956370 0.109334
C21   C     C_R   0.338827 0.413382 0.875700 0.159892
C22   C     C_R   0.424134 0.450079 0.932830 -0.036262
C23   C     C_R   0.936859 0.276849 0.522585 -0.200382
C24   C     C_R   0.428075 0.442527 0.076522 -0.008757
C25   C     C_R   0.568556 0.559405 0.067812 0.459386
C26   C     C_R   0.572190 0.549543 0.924601 0.429463
C27   C     C_R   0.673141 0.505675 0.499528 0.865326
C28   C     C_R   0.823874 0.626193 0.476922 0.497351
C29   C     C_R   0.769474 0.511172 0.496893 -0.153098
C30   C     C_R   0.806592 0.395691 0.503483 -0.305863
C31   C     C_R   0.898959 0.391320 0.496682 0.106832
C32   C     C_R   0.953853 0.503356 0.467194 -0.043689
C33   C     C_3   0.716899 0.775908 0.480637 -0.250395
C34   C     C_R   0.029921 0.272814 0.527584 0.161657
C35   C     C_3   0.628786 0.758162 0.096930 -0.260574
C36   C     C_3   0.183549 0.220956 0.206495 -0.184686
C37   C     C_3   0.719940 0.527085 0.878524 -0.179987
C38   C     C_3   0.691081 0.118342 0.297471 -0.275560
C39   C     C_R   0.085738 0.384352 0.500603 0.103098
C40   C     C_R   0.047349 0.499670 0.467036 0.042746
C41   C     C_R   0.102726 0.611961 0.438167 0.044569
C42   C     C_R   0.064640 0.723093 0.392192 0.136029
C43   C     C_R   0.970359 0.727809 0.396739 0.205092
H1    H     H_    0.538056 0.177657 0.787801 0.190118
H2    H     H_    0.698087 0.740734 0.381061 0.168754
H3    H     H_    0.721112 0.880131 0.470333 0.180344
H4    H     H_    0.558776 0.786161 0.110240 0.170830
H5    H     H_    0.652170 0.782901 0.992346 0.211623
H6    H     H_    0.673872 0.814912 0.162308 0.170781
H7    H     H_    0.236254 0.194101 0.279174 0.161433
H8    H     H_    0.185363 0.164308 0.116136 0.205888
H9    H     H_    0.117004 0.197492 0.256186 0.218504
H10   H     H_    0.775369 0.558784 0.806719 0.206584
H11   H     H_    0.746629 0.539760 0.981140 0.189384
H12   H     H_    0.370543 0.774421 0.694870 0.175595
H13   H     H_    0.701755 0.425434 0.864119 0.139292
H14   H     H_    0.698473 0.025999 0.254323 0.164507
H15   H     H_    0.721842 0.120326 0.399119 0.137166
H16   H     H_    0.729499 0.191377 0.232003 0.212964
H17   H     H_    0.559238 0.901185 0.303821 0.175411
H18   H     H_    0.362680 0.342873 0.248995 0.207644
H19   H     H_    0.763295 0.309498 0.520899 0.145192
H20   H     H_    0.894026 0.191259 0.545317 0.175513
H21   H     H_    0.211285 0.298423 0.526595 0.170961
H22   H     H_    0.240564 0.693805 0.441330 0.160639
H23   H     H_    0.664951 0.747228 0.557949 0.203472
I1    I     I_    0.458689 0.089954 0.061974 -0.340748
I2    I     I_    0.332240 0.791741 0.992187 -0.287713
I3    I     I_    0.130643 0.421567 0.871138 -0.231527
I4    I     I_    0.321526 0.251746 0.762193 -0.307363
I5    I     I_    0.078731 0.097131 0.590656 -0.266224
I6    I     I_    0.149639 0.879653 0.306531 -0.279915
I7    I     I_    0.912034 0.891072 0.308935 -0.308189
N1    N     N_R   0.499150 0.498800 0.142780 -0.139409
N2    N     N_R   0.499120 0.498720 0.857170 -0.150955
O1    O     O_R   0.500000 0.316780 0.614690 -0.622715
O2    O     O_3   0.635528 0.629282 0.132769 -0.594861
O3    O     O_3   0.192361 0.351214 0.171879 -0.591373
O4    O     O_3   0.646514 0.600815 0.851376 -0.587108
O5    O     O_3   0.599753 0.145699 0.299255 -0.568488
O6    O     O_R   0.499990 0.316750 0.385360 -0.570924
O7    O     O_R   0.367850 0.499980 0.614680 -0.602330
O8    O     O_R   0.367840 0.499960 0.385350 -0.625020
O9    O     O_R   0.500010 0.683250 0.614640 -0.607702
O10   O     O_R   0.500000 0.683220 0.385310 -0.597898
O11   O     O_R   0.632160 0.500040 0.614650 -0.578997
O12   O     O_R   0.632150 0.500020 0.385320 -0.566012
O13   O     O_3   0.800248 0.738351 0.527297 -0.587388
Zn1   Zn    Zn3+2 0.500010 0.500020 0.653130 0.994424
Zn2   Zn    Zn3+2 0.499990 0.499980 0.346870 1.019480

loop_
_geom_bond_atom_site_label_1
_geom_bond_atom_site_label_2
_ccdc_geom_bond_type
C43   I7    S    
C27   C29   S    
C33   H2    S    
C41   C42   A    
C19   C20   A    
C35   H4    S    
C7    C8    A    
C37   O4    S    
O7    Zn1   S    
C12   C28   A    
C25   O2    S    
C28   C29   A    
C33   O13   S    
C25   N1    A    
C12   C43   A    
C30   C31   A    
C10   C17   A    
C1    O6    A    
C16   O9    A    
C18   C19   A    
C15   H17   S    
C38   H15   S    
C37   H13   S    
C2    C39   A    
C8    C9    A    
C28   O13   S    
C9    H12   S    
C14   O5    S    
C9    C10   A    
C36   H9    S    
O1    Zn1   S    
C37   H10   S    
C23   H20   S    
C6    H1    S    
C13   C14   A    
C12   C32   A    
C33   H3    S    
C22   N2    A    
C35   H5    S    
C2    H21   S    
C33   H23   S    
C34   C39   A    
C18   C24   A    
C5    H22   S    
C6    C11   A    
C16   C17   S    
C25   C26   A    
C35   O2    S    
C23   C31   A    
C27   O11   A    
C35   H6    S    
C29   C30   A    
C38   H14   S    
C31   C32   A    
C23   C34   A    
C42   I6    S    
C26   N2    A    
C27   O12   A    
C36   H8    S    
C37   H11   S    
C40   C41   A    
C8    I2    S    
C30   H19   S    
C16   O10   A    
C22   C24   A    
C20   I3    S    
C1    C13   S    
C42   C43   A    
O6    Zn2   S    
C3    C4    S    
C39   C40   A    
C36   H7    S    
C15   C17   A    
O8    Zn2   S    
C5    C41   A    
C1    O1    A    
C3    C5    A    
O11   Zn1   S    
O10   Zn2   S    
C18   H18   S    
C6    C7    A    
C26   O4    S    
C21   I4    S    
C19   O3    S    
N1    Zn2   S    
C2    C3    A    
C36   O3    S    
C11   C13   A    
C24   N1    A    
C4    O8    A    
C38   O5    S    
C32   C40   A    
C10   C11   A    
N2    Zn1   S    
C7    I1    S    
C38   H16   S    
C4    O7    A    
C20   C21   A    
O9    Zn1   S    
O12   Zn2   S    
C14   C15   A    
C21   C22   A    
C34   I5    S    
