data_mof_unit_33659.cif
_audit_creation_date              2013-03-05T15:54:01-0500
_audit_creation_method            fapswitch 2.2
_symmetry_space_group_name_H-M    P1
_symmetry_Int_Tables_number       1
_space_group_crystal_system       triclinic
_cell_length_a                    15.742516
_cell_length_b                    10.698141
_cell_length_c                    9.897435
_cell_angle_alpha                 90.96402
_cell_angle_beta                  89.632325
_cell_angle_gamma                 91.800026
_cell_volume                      1665.7957399

loop_
_atom_site_label
_atom_site_type_symbol
_atom_site_description
_atom_site_fract_x
_atom_site_fract_y
_atom_site_fract_z
_atom_type_partial_charge
O1    O     O_R   0.500000 0.316780 0.614690 -0.649205
O2    O     O_R   0.499990 0.316750 0.385360 -0.627828
C1    C     C_R   0.505906 0.260268 0.499365 0.871406
O3    O     O_R   0.377150 0.500020 0.614720 -0.644292
O4    O     O_R   0.377140 0.499990 0.385380 -0.629018
C2    C     C_R   0.338412 0.499571 0.500382 0.880577
Zn1   Zn    Zn3+2 0.500010 0.500020 0.653130 0.954230
Zn2   Zn    Zn3+2 0.499990 0.499980 0.346870 1.037051
O5    O     O_R   0.500010 0.683250 0.614640 -0.634904
O6    O     O_R   0.500000 0.683220 0.385310 -0.581997
O7    O     O_R   0.622860 0.500010 0.614620 -0.615062
O8    O     O_R   0.622850 0.499980 0.385280 -0.548927
C3    C     C_R   0.490274 0.739029 0.502198 0.894957
C4    C     C_R   0.661620 0.500228 0.499523 0.917621
C5    C     C_3   0.046286 0.405208 0.596900 -0.369607
C6    C     C_3   0.049778 0.474005 0.349484 0.074922
C7    C     C_3   0.950890 0.464116 0.351314 0.077913
H1    H     H_    0.923091 0.309273 0.568483 0.208065
H2    H     H_    0.068916 0.310092 0.573073 0.240457
H3    H     H_    0.070469 0.553939 0.285313 0.161052
H4    H     H_    0.930244 0.364702 0.332896 0.167536
C8    C     C_1   0.750470 0.500362 0.498257 -0.082254
C9    C     C_3   0.082919 0.503032 0.495995 0.103465
C10   C     C_3   0.948286 0.404626 0.596205 -0.439274
C11   C     C_3   0.917272 0.501801 0.494716 0.118996
C12   C     C_3   0.952831 0.632819 0.540143 -0.372763
C13   C     C_3   0.051337 0.633775 0.543687 -0.233554
C14   C     C_1   0.825760 0.500777 0.496635 0.002766
C15   C     C_1   0.174474 0.501514 0.499250 -0.022111
C16   C     C_1   0.249672 0.500386 0.500715 -0.105391
H5    H     H_    0.072036 0.651623 0.649856 0.174092
H6    H     H_    0.928632 0.655437 0.643412 0.190659
H7    H     H_    0.069061 0.428653 0.700856 0.199166
H8    H     H_    0.924387 0.426791 0.699745 0.224951
H9    H     H_    0.928690 0.706665 0.474120 0.234365
H10   H     H_    0.458213 0.112580 0.296337 0.186985
C17   C     C_R   0.567644 0.120524 0.732462 -0.221375
H11   H     H_    0.604290 0.206897 0.720848 0.200519
C18   C     C_R   0.562389 0.067662 0.861041 0.352307
C19   C     C_R   0.516897 0.954380 0.875663 -0.206715
H12   H     H_    0.507471 0.913957 0.974250 0.211100
C20   C     C_R   0.483978 0.890912 0.762565 -0.201611
H13   H     H_    0.446529 0.806493 0.780954 0.189966
C21   C     C_R   0.494962 0.940070 0.631194 0.101782
C22   C     C_R   0.525251 0.063237 0.620385 0.033435
C23   C     C_R   0.508315 0.126455 0.499611 -0.110727
C24   C     C_R   0.474643 0.062951 0.386732 -0.123881
C25   C     C_R   0.459378 0.936018 0.390035 -0.008745
C26   C     C_R   0.476375 0.872205 0.509574 -0.184148
C27   C     C_R   0.390548 0.332993 0.138472 -0.205196
H14   H     H_    0.387596 0.330141 0.245456 0.226562
C28   C     C_R   0.337046 0.247889 0.068113 0.330805
C29   C     C_R   0.337200 0.249611 0.927406 -0.255734
H15   H     H_    0.295966 0.185959 0.869943 0.201314
C30   C     C_R   0.389768 0.333967 0.858386 -0.195183
H16   H     H_    0.384380 0.330417 0.751340 0.223752
C31   C     C_R   0.445689 0.418106 0.926914 0.181232
C32   C     C_R   0.445800 0.417966 0.071380 0.077701
N1    N     N_R   0.499210 0.498800 0.142780 -0.165317
C33   C     C_R   0.552840 0.577661 0.071888 0.360430
H17   H     H_    0.594908 0.640828 0.874685 0.179314
C34   C     C_R   0.552209 0.577769 0.928665 -0.150208
N2    N     N_R   0.499180 0.498720 0.857170 -0.135591
N3    N     N_R   0.599673 0.131364 0.976613 0.212795
O9    O     O_R   0.636730 0.241146 0.964680 -0.372303
O10   O     O_R   0.595590 0.081150 0.095439 -0.358592
C35   C     C_1   0.420904 0.875621 0.272515 0.312503
N4    N     N_1   0.389898 0.827494 0.178683 -0.174401
N5    N     N_R   0.612046 0.658565 0.141730 0.222207
O11   O     O_R   0.689499 0.622755 0.157305 -0.292213
O12   O     O_R   0.596399 0.776777 0.154575 -0.381334
N6    N     N_R   0.282426 0.160499 0.139617 0.237581
O13   O     O_R   0.279317 0.162025 0.271100 -0.380546
O14   O     O_R   0.235164 0.078454 0.073811 -0.335316
N7    N     N_R   0.086441 0.361125 0.289059 0.225985
O15   O     O_R   0.067084 0.250321 0.334467 -0.345379
O16   O     O_R   0.136340 0.371146 0.184227 -0.336912
N8    N     N_R   0.914536 0.538124 0.243282 0.220308
O17   O     O_R   0.933169 0.656882 0.232081 -0.359078
O18   O     O_R   0.865962 0.483106 0.152975 -0.297063
C36   C     C_1   0.087901 0.737963 0.463438 0.222325
N9    N     N_1   0.116575 0.819434 0.400659 -0.091398

loop_
_geom_bond_atom_site_label_1
_geom_bond_atom_site_label_2
_geom_bond_distance
_ccdc_geom_bond_type
C21   C26   1.422487 A    
C30   H16   1.063364 S    
C12   H6    1.113929 S    
C6    N7    1.471109 S    
C36   N9    1.157328 T    
C22   C23   1.414199 A    
C21   C22   1.392711 A    
C11   C14   1.440340 S    
C5    H2    1.109770 S    
C18   N3    1.440353 S    
C12   C13   1.551067 S    
C15   C16   1.184434 T    
H1    C10   1.113456 S    
C9    C15   1.442475 S    
Zn2   N1    2.019908 S    
O4    C2    1.287782 A    
O7    C4    1.288840 A    
N8    O18   1.301098 A    
H10   C24   1.084816 S    
C33   C34   1.417653 A    
N5    O12   1.299971 A    
O5    C3    1.283895 A    
C6    C7    1.557034 S    
C27   C28   1.400459 A    
C9    C13   1.563594 S    
Zn2   O8    1.973525 S    
C19   C20   1.393682 A    
N1    C33   1.372750 A    
C8    C14   1.185131 T    
H17   C34   1.082321 S    
C20   C21   1.418271 A    
O3    Zn1   1.973526 S    
C31   N2    1.377061 A    
C29   C30   1.390146 A    
C13   H5    1.113797 S    
C35   N4    1.157490 T    
C27   C32   1.409651 A    
C13   C36   1.479244 S    
C10   C11   1.549648 S    
N6    O14   1.301583 A    
C18   C19   1.397356 A    
N8    O17   1.301304 A    
C11   C12   1.553333 S    
C29   H15   1.082801 S    
C7    H4    1.114685 S    
O1    C1    1.286836 A    
N3    O10   1.301530 A    
Zn1   O7    1.968771 S    
N7    O15   1.301343 A    
C17   H11   1.081241 S    
C28   N6    1.441603 S    
C24   C25   1.372496 A    
C6    H3    1.113052 S    
C34   N2    1.362315 A    
C27   H14   1.060494 S    
N7    O16   1.301186 A    
Zn1   N2    2.019711 S    
C3    C26   1.448772 S    
O3    C2    1.288817 A    
C25   C26   1.407184 A    
C2    C16   1.397268 S    
O8    C4    1.288287 A    
C6    C9    1.567079 S    
C30   C31   1.408046 A    
C20   H13   1.080286 S    
C17   C22   1.418598 A    
C28   C29   1.393056 A    
Zn1   O5    2.003175 S    
C23   C24   1.396473 A    
C5    C10   1.542643 S    
O1    Zn1   1.990607 S    
O2    Zn2   2.003177 S    
N6    O13   1.301799 A    
O6    C3    1.303279 A    
O4    Zn2   1.968771 S    
C1    C23   1.433285 S    
C7    C11   1.562558 S    
N3    O9    1.301681 A    
C4    C8    1.398649 S    
O2    C1    1.294144 A    
C32   N1    1.376795 A    
C17   C18   1.402179 A    
C31   C32   1.429881 A    
C33   N5    1.425890 S    
C5    C9    1.554059 S    
C7    N8    1.470524 S    
C25   C35   1.447892 S    
N5    O11   1.300384 A    
C10   H8    1.113747 S    
C12   H9    1.111306 S    
Zn2   O6    1.990607 S    
C19   H12   1.081410 S    
C5    H7    1.113772 S    
