data_mof_unit_5736.cif
_audit_creation_date              2012-12-10T20:40:56-0500
_audit_creation_method            fapswitch 2.2
_symmetry_space_group_name_H-M    P1
_symmetry_Int_Tables_number       1
_space_group_crystal_system       triclinic
_cell_length_a                    27.046152
_cell_length_b                    10.677377
_cell_length_c                    9.857788
_cell_angle_alpha                 90.145273
_cell_angle_beta                  89.005391
_cell_angle_gamma                 90.939742
_cell_volume                      2845.93238861

loop_
_atom_site_label
_atom_site_type_symbol
_atom_type_description
_atom_site_fract_x
_atom_site_fract_y
_atom_site_fract_z
_atom_type_partial_charge
C1    C     C_R   0.501251 0.260169 0.499439 0.868464
C2    C     C_R   0.971427 0.279815 0.369429 0.046656
C3    C     C_R   0.969074 0.281221 0.620276 0.046337
C4    C     C_R   0.405697 0.497569 0.501127 0.874610
C5    C     C_R   0.944369 0.280068 0.494311 0.069500
C6    C     C_R   0.944768 0.279517 0.246998 -0.214088
C7    C     C_R   0.893564 0.286548 0.247545 -0.140626
C8    C     C_R   0.866964 0.293025 0.369833 -0.024083
C9    C     C_R   0.892011 0.284837 0.493443 -0.052128
C10   C     C_R   0.864720 0.287019 0.616427 -0.024253
C11   C     C_R   0.813733 0.307469 0.613764 0.504942
C12   C     C_R   0.284001 0.326378 0.527076 -0.132210
C13   C     C_R   0.815960 0.313924 0.371883 0.504883
C14   C     C_R   0.701837 0.285854 0.500747 -0.100909
C15   C     C_R   0.653961 0.330720 0.502582 -0.239650
C16   C     C_R   0.501609 0.740106 0.499719 0.872397
C17   C     C_R   0.685643 0.546119 0.487806 0.065149
C18   C     C_R   0.733744 0.499282 0.487959 -0.137133
C19   C     C_R   0.741669 0.370074 0.493357 0.296853
C20   C     C_R   0.023874 0.286733 0.370922 0.046339
C21   C     C_R   0.048134 0.303501 0.496563 0.068476
C22   C     C_R   0.021147 0.298808 0.621495 0.046820
C23   C     C_R   0.251441 0.422047 0.497168 0.227242
C24   C     C_R   0.053077 0.283151 0.250430 -0.217255
C25   C     C_R   0.097361 0.346155 0.742287 -0.141637
C26   C     C_R   0.940334 0.270212 0.741178 -0.215950
C27   C     C_R   0.889092 0.274008 0.739071 -0.138010
C28   C     C_R   0.594317 0.497991 0.498903 0.842126
C29   C     C_R   0.047018 0.319183 0.743426 -0.216135
C30   C     C_R   0.527600 0.066227 0.603998 0.001413
C31   C     C_R   0.507857 0.129202 0.494780 -0.109516
C32   C     C_R   0.497545 0.064187 0.374550 -0.211854
C33   C     C_R   0.497454 0.935263 0.375078 -0.230907
C34   C     C_R   0.099774 0.328994 0.496974 -0.051872
C35   C     C_R   0.508325 0.872011 0.495268 -0.118195
C36   C     C_R   0.528445 0.938389 0.603595 0.055329
C37   C     C_3   0.521298 0.930563 0.754586 -0.130771
C38   C     C_3   0.517946 0.074372 0.753907 0.006762
C39   C     C_R   0.457168 0.479275 0.073128 0.169224
C40   C     C_R   0.177668 0.364371 0.376415 0.491063
C41   C     C_R   0.541159 0.535452 0.069157 0.242077
C42   C     C_R   0.541415 0.530966 0.925366 -0.233148
C43   C     C_R   0.457009 0.480815 0.930777 0.209812
C44   C     C_3   0.423534 0.368566 0.925581 -0.497883
C45   C     C_R   0.127175 0.333098 0.374189 -0.020346
C46   C     C_3   0.424288 0.366074 0.079853 -0.492950
C47   C     C_R   0.174331 0.385497 0.617353 0.498240
C48   C     C_R   0.269036 0.545115 0.470890 0.163270
C49   C     C_R   0.320416 0.567978 0.472909 -0.266417
C50   C     C_R   0.334667 0.349647 0.531145 0.183912
C51   C     C_3   0.373140 0.158190 0.455804 -0.800285
C52   C     C_3   0.232058 0.647535 0.442887 -0.391735
C53   C     C_3   0.254141 0.780288 0.425481 -0.379207
C54   C     C_3   0.213738 0.876037 0.403787 -0.835064
C55   C     C_3   0.678487 0.686377 0.483471 -0.450430
C56   C     C_R   0.103699 0.306401 0.252296 -0.141433
C57   C     C_3   0.698895 0.743677 0.350921 -0.323591
C58   C     C_3   0.688135 0.883490 0.343928 -0.881765
C59   C     C_3   0.565551 0.871673 0.828019 -0.321546
C60   C     C_3   0.616950 0.896141 0.761986 -0.299666
C61   C     C_3   0.657768 0.838132 0.844853 -0.905570
C62   C     C_3   0.547145 0.168317 0.965439 -0.777806
C63   C     C_3   0.581912 0.715425 0.168294 -0.731913
C64   C     C_R   0.123949 0.353096 0.619933 -0.021786
C65   C     C_R   0.352825 0.471766 0.503840 -0.128554
C66   C     C_R   0.645580 0.459921 0.496281 -0.037532
H1    H     H_    0.115221 0.363655 0.838212 0.188138
H2    H     H_    0.480438 0.110178 0.778482 0.132168
H3    H     H_    0.574897 0.554786 0.869060 0.164230
H4    H     H_    0.386705 0.391575 0.884895 0.219858
H5    H     H_    0.441248 0.286516 0.876973 0.202429
H6    H     H_    0.387793 0.386546 0.127783 0.223876
H7    H     H_    0.443126 0.283135 0.121517 0.198821
H8    H     H_    0.124242 0.305514 0.156950 0.189786
H9    H     H_    0.623193 0.264451 0.508942 0.136497
H10   H     H_    0.708032 0.186028 0.505516 0.135406
H11   H     H_    0.875024 0.290893 0.151127 0.186433
H12   H     H_    0.956265 0.260048 0.839831 0.134112
H13   H     H_    0.962281 0.279749 0.148130 0.133017
H14   H     H_    0.038039 0.263165 0.152188 0.135280
H15   H     H_    0.335932 0.659938 0.451463 0.137088
H16   H     H_    0.399008 0.274039 0.609587 0.235417
H17   H     H_    0.395620 0.079745 0.493128 0.241527
H18   H     H_    0.392617 0.202363 0.367509 0.242436
H19   H     H_    0.336904 0.118987 0.423456 0.250711
H20   H     H_    0.192700 0.852718 0.311036 0.267591
H21   H     H_    0.187919 0.877758 0.492629 0.263316
H22   H     H_    0.230790 0.970752 0.391366 0.251345
H23   H     H_    0.868744 0.270612 0.834703 0.188574
H24   H     H_    0.274866 0.807491 0.517720 0.230741
H25   H     H_    0.279719 0.782810 0.335984 0.230205
H26   H     H_    0.211751 0.622283 0.349402 0.225676
H27   H     H_    0.204829 0.649384 0.528684 0.211732
H28   H     H_    0.647675 0.899483 0.349778 0.257712
H29   H     H_    0.706228 0.933958 0.428869 0.262825
H30   H     H_    0.702779 0.922208 0.246539 0.262715
H31   H     H_    0.739568 0.731493 0.343583 0.228268
H32   H     H_    0.681945 0.695387 0.262857 0.239064
H33   H     H_    0.638792 0.709488 0.493819 0.180455
H34   H     H_    0.765350 0.562910 0.484555 0.129845
H35   H     H_    0.697762 0.729818 0.570844 0.214566
H36   H     H_    0.659657 0.883578 0.946101 0.268772
H37   H     H_    0.650938 0.735871 0.857288 0.259795
H38   H     H_    0.693952 0.852784 0.791881 0.257019
H39   H     H_    0.618041 0.854581 0.658924 0.206936
H40   H     H_    0.625021 0.997790 0.751944 0.247910
H41   H     H_    0.565530 0.903360 0.935202 0.208346
H42   H     H_    0.558876 0.769150 0.829717 0.200946
H43   H     H_    0.572333 0.215890 0.772273 0.252247
H44   H     H_    0.582170 0.194187 0.016265 0.251608
H45   H     H_    0.029221 0.320102 0.841941 0.134875
H46   H     H_    0.530164 0.086318 0.018632 0.231335
H47   H     H_    0.521718 0.248385 0.973589 0.237462
H48   H     H_    0.616722 0.556857 0.091855 0.208747
H49   H     H_    0.610873 0.767446 0.109588 0.210172
H50   H     H_    0.589112 0.728748 0.277672 0.258567
H51   H     H_    0.545492 0.756812 0.145610 0.224097
H52   H     H_    0.485504 0.111548 0.284110 0.163030
H53   H     H_    0.485123 0.886256 0.285119 0.165316
H54   H     H_    0.485346 0.885321 0.783958 0.135216
H55   H     H_    0.269508 0.233124 0.548399 0.150566
N1    N     N_R   0.199746 0.392202 0.496593 -0.353838
N2    N     N_R   0.791056 0.325324 0.492843 -0.353690
N3    N     N_R   0.499670 0.499140 0.142800 -0.119923
N4    N     N_R   0.499670 0.499180 0.857150 -0.116428
N5    N     N_2   0.366478 0.249183 0.563218 -0.312540
N6    N     N_2   0.557434 0.140047 0.824253 -0.277754
N7    N     N_2   0.583521 0.583062 0.135607 -0.258878
O1    O     O_R   0.500010 0.316790 0.614690 -0.630632
O2    O     O_R   0.571250 0.500000 0.614690 -0.622699
O3    O     O_R   0.571240 0.499960 0.385340 -0.573402
O4    O     O_2   0.204523 0.367476 0.259736 -0.558145
O5    O     O_2   0.791639 0.326526 0.254410 -0.551524
O6    O     O_2   0.197803 0.410726 0.734286 -0.553016
O7    O     O_2   0.787285 0.313868 0.730891 -0.551010
O8    O     O_R   0.500000 0.316760 0.385350 -0.617195
O9    O     O_R   0.428760 0.500040 0.614660 -0.615788
O10   O     O_R   0.428750 0.500000 0.385310 -0.603129
O11   O     O_R   0.500000 0.683240 0.614650 -0.619038
O12   O     O_R   0.499990 0.683210 0.385310 -0.617185
Zn1   Zn    Zn3+2 0.500000 0.500020 0.653130 0.928882
Zn2   Zn    Zn3+2 0.500000 0.499980 0.346870 0.956022

loop_
_geom_bond_atom_site_label_1
_geom_bond_atom_site_label_2
_ccdc_geom_bond_type
C10   C27   A    
C15   H9    S    
C8    C13   A    
C22   C29   A    
C41   C42   A    
C35   C36   A    
C25   H1    S    
C43   C44   S    
C43   N4    A    
C38   N6    S    
C6    H13   S    
C7    C8    A    
C16   O12   A    
C53   C54   S    
C12   C23   A    
C19   N2    S    
C26   C27   A    
C26   H12   S    
C49   C65   A    
C41   N3    A    
C36   C37   S    
C61   H37   S    
O12   Zn2   S    
C1    O1    A    
C16   C35   S    
C54   H21   S    
C63   H51   S    
O1    Zn1   S    
C1    C31   S    
C30   C38   S    
C44   H5    S    
C18   C19   A    
C49   H15   S    
O2    Zn1   S    
C58   H30   S    
C4    C65   S    
H16   N5    S    
O8    Zn2   S    
C42   N4    A    
C4    O9    A    
C24   H14   S    
C12   H55   S    
C20   C24   A    
C45   C56   A    
N4    Zn1   S    
C8    C9    A    
C53   H25   S    
C44   H4    S    
C50   N5    S    
C1    O8    A    
C9    C10   A    
C17   C55   S    
C46   H6    S    
C63   N7    S    
C7    H11   S    
C63   H49   S    
C40   O4    S    
C59   C60   S    
C21   C22   A    
C41   N7    S    
N3    Zn2   S    
C2    C6    A    
C18   H34   S    
C44   C46   S    
C23   N1    S    
C25   C29   A    
C40   C45   A    
C56   H8    S    
C2    C20   A    
C61   H38   S    
C62   H47   S    
O10   Zn2   S    
C47   C64   A    
C54   H20   S    
C47   N1    A    
C39   C43   A    
C21   C34   A    
C15   C66   A    
C42   H3    S    
C59   H41   S    
C39   N3    A    
C60   C61   S    
C25   C64   A    
C14   H10   S    
C28   C66   S    
C58   H29   S    
C5    C9    A    
C37   C38   S    
C11   O7    S    
H48   N7    S    
C31   C32   A    
C62   H44   S    
C57   H31   S    
C34   C64   A    
C17   C18   A    
C17   C66   A    
C52   H27   S    
C34   C45   A    
C37   C59   S    
O3    Zn2   S    
C39   C46   S    
C63   H50   S    
C48   C49   A    
C38   H2    S    
C33   H53   S    
C55   C57   S    
C47   O6    S    
C52   H26   S    
C2    C5    A    
C51   H17   S    
C60   H40   S    
C52   C53   S    
O9    Zn1   S    
C23   C48   A    
C51   N5    S    
C13   O5    S    
C14   C19   A    
C29   H45   S    
C3    C26   A    
C11   N2    A    
C32   H52   S    
C3    C5    A    
C12   C50   A    
C6    C7    A    
C24   C56   A    
C40   N1    A    
C55   H35   S    
C59   H42   S    
C30   C36   A    
C28   O3    A    
C32   C33   A    
C61   H36   S    
C58   H28   S    
C54   H22   S    
O11   Zn1   S    
C57   C58   S    
C30   C31   A    
C37   H54   S    
C13   N2    A    
C57   H32   S    
C33   C35   A    
H43   N6    S    
C27   H23   S    
C28   O2    A    
C50   C65   A    
C10   C11   A    
C4    O10   A    
C16   O11   A    
C62   N6    S    
C48   C52   S    
C62   H46   S    
C20   C21   A    
C55   H33   S    
C53   H24   S    
C14   C15   A    
C3    C22   A    
C51   H19   S    
C51   H18   S    
C46   H7    S    
C60   H39   S    
