data_mof_unit_18384.cif
_audit_creation_date              2012-12-11T15:23:35-0500
_audit_creation_method            fapswitch 2.2
_symmetry_space_group_name_H-M    P1
_symmetry_Int_Tables_number       1
_space_group_crystal_system       triclinic
_cell_length_a                    6.931573
_cell_length_b                    17.507477
_cell_length_c                    19.285316
_cell_angle_alpha                 109.477885
_cell_angle_beta                  90.272071
_cell_angle_gamma                 90.537333
_cell_volume                      2206.24504409

loop_
_atom_site_label
_atom_site_type_symbol
_atom_type_description
_atom_site_fract_x
_atom_site_fract_y
_atom_site_fract_z
_atom_type_partial_charge
O1    O     O_R   0.505810 0.439670 0.562310 -0.540200
O2    O     O_R   0.169070 0.404920 0.411210 -0.541688
O3    O     O_R   0.005550 0.560330 0.437690 -0.540139
C1    C     C_R   0.338563 0.381458 0.382944 0.675340
O4    O     O_R   0.175650 0.430000 0.560110 -0.543882
O5    O     O_R   0.012170 0.585580 0.587650 -0.537854
C2    C     C_R   0.344689 0.414970 0.581897 0.708100
O6    O     O_R   0.499180 0.414420 0.412350 -0.541091
O7    O     O_3   0.341430 0.551020 0.508860 -0.365151
V1    V     V_3+5 0.063930 0.490540 0.498360 1.402659
O8    O     O_R   0.682850 0.595080 0.588790 -0.540671
C3    C     C_R   0.853057 0.618401 0.616860 0.703095
O9    O     O_R   0.676280 0.570000 0.439890 -0.541319
C4    C     C_R   0.845142 0.585276 0.418330 0.712125
V2    V     V_3+5 0.564760 0.509460 0.501640 1.409591
O10   O     O_3   0.837130 0.448980 0.491140 -0.371311
C5    C     C_R   0.068937 0.865628 0.178873 -0.223299
C6    C     C_R   0.914808 0.865124 0.130886 -0.081667
C7    C     C_R   0.748977 0.818025 0.130895 -0.223319
C8    C     C_R   0.737229 0.771272 0.177507 0.090183
C9    C     C_R   0.891237 0.773059 0.226185 0.053574
C10   C     C_R   0.057143 0.820803 0.227147 0.088940
C11   C     C_R   0.574172 0.722678 0.176319 -0.192096
C12   C     C_R   0.562485 0.677040 0.223571 -0.186466
C13   C     C_R   0.713330 0.679335 0.273071 0.092105
C14   C     C_R   0.879220 0.727093 0.274042 0.052852
C15   C     C_R   0.033236 0.728876 0.322715 0.086438
C16   C     C_R   0.196273 0.777485 0.323917 -0.180217
C17   C     C_R   0.207967 0.823116 0.276660 -0.181828
C18   C     C_R   0.701598 0.634463 0.321309 -0.222862
C19   C     C_R   0.855774 0.634938 0.369266 -0.083820
C20   C     C_R   0.021540 0.682087 0.369295 -0.210850
H1    H     H_    0.454850 0.720348 0.139130 0.132677
H2    H     H_    0.434560 0.640338 0.221739 0.132712
H3    H     H_    0.573971 0.597870 0.320498 0.121868
H4    H     H_    0.140648 0.683141 0.406269 0.133645
H5    H     H_    0.315593 0.779816 0.361108 0.139977
H6    H     H_    0.335896 0.859815 0.278490 0.135951
C21   C     C_3   0.709696 0.778980 0.772221 -0.137363
C22   C     C_3   0.802609 0.775512 0.698229 -0.139641
H7    H     H_    0.734672 0.796272 0.655498 0.146312
H8    H     H_    0.564101 0.802826 0.790866 0.152984
C23   C     C_3   0.869136 0.688664 0.687399 -0.058321
C24   C     C_3   0.776159 0.691291 0.760486 -0.145373
C25   C     C_3   0.968532 0.724664 0.801335 -0.194123
C26   C     C_3   0.061835 0.721107 0.727404 -0.132242
C27   C     C_3   0.993971 0.808218 0.739285 0.293105
C28   C     C_3   0.902140 0.811579 0.812407 -0.061041
H9    H     H_    0.685331 0.642499 0.768709 0.108997
H10   H     H_    0.036998 0.704113 0.844097 0.116265
H11   H     H_    0.207625 0.697557 0.708716 0.131418
C29   C     C_3   0.556544 0.282139 0.277527 -0.102980
C30   C     C_3   0.493457 0.193137 0.263569 -0.145920
H12   H     H_    0.699086 0.308527 0.300200 0.113444
C31   C     C_3   0.413576 0.189101 0.187876 -0.007101
C32   C     C_3   0.476084 0.277367 0.201122 -0.149556
C33   C     C_3   0.277633 0.306984 0.236347 -0.148349
C34   C     C_3   0.214547 0.217981 0.222388 -0.103513
C35   C     C_3   0.295009 0.222752 0.298791 -0.147035
C36   C     C_3   0.357515 0.311018 0.312039 -0.009051
H13   H     H_    0.552160 0.299671 0.160964 0.100880
H14   H     H_    0.187161 0.353735 0.225358 0.100438
H15   H     H_    0.072005 0.191594 0.199716 0.113129
H16   H     H_    0.218933 0.200448 0.338950 0.104406
C37   C     C_R   0.250662 0.128862 0.823945 -0.168488
C38   C     C_R   0.415909 0.133845 0.868175 -0.086027
C39   C     C_R   0.569494 0.185465 0.864353 -0.226180
C40   C     C_R   0.557692 0.232419 0.817900 0.095528
C41   C     C_R   0.392140 0.226409 0.773342 0.051023
C42   C     C_R   0.238653 0.174060 0.776117 0.080533
C43   C     C_R   0.708288 0.285530 0.815327 -0.186383
C44   C     C_R   0.696341 0.331483 0.768392 -0.194512
C45   C     C_R   0.533360 0.325306 0.723266 0.090995
C46   C     C_R   0.379954 0.272893 0.725979 0.055820
C47   C     C_R   0.214381 0.266903 0.681436 0.088414
C48   C     C_R   0.063892 0.213709 0.683944 -0.180442
C49   C     C_R   0.075807 0.167778 0.730907 -0.161569
C50   C     C_R   0.521060 0.370748 0.675648 -0.219363
C51   C     C_R   0.355746 0.365832 0.631466 -0.085281
C52   C     C_R   0.202401 0.314012 0.635112 -0.223439
H17   H     H_    0.131941 0.088933 0.826015 0.155764
H18   H     H_    0.697075 0.190018 0.898304 0.125193
H19   H     H_    0.836111 0.291194 0.849326 0.131248
H20   H     H_    0.815335 0.371564 0.767096 0.130690
H21   H     H_    0.639542 0.410869 0.673751 0.123002
H22   H     H_    0.074807 0.309483 0.601174 0.128277
H23   H     H_    0.936100 0.208018 0.649925 0.138857
H24   H     H_    0.956848 0.127676 0.732197 0.150957
O11   O     O_R   0.271890 0.085690 0.087580 -0.543042
O12   O     O_R   0.595690 0.070020 0.939870 -0.541993
O13   O     O_R   0.758900 0.914390 0.912370 -0.539087
C53   C     C_R   0.426732 0.084958 0.917950 0.740794
O14   O     O_R   0.602020 0.095100 0.088770 -0.543328
O15   O     O_R   0.765280 0.939660 0.062330 -0.542119
C54   C     C_R   0.432519 0.118633 0.116992 0.667241
O16   O     O_R   0.265520 0.060430 0.937620 -0.535472
O17   O     O_3   0.429560 0.949050 0.991100 -0.368642
V3    V     V_3+5 0.707160 0.009450 0.001650 1.413913
O18   O     O_R   0.094540 0.929890 0.060190 -0.545568
C55   C     C_R   0.925603 0.914701 0.081750 0.698136
O19   O     O_R   0.088200 0.904800 0.911290 -0.529822
C56   C     C_R   0.918040 0.881644 0.883116 0.734879
V4    V     V_3+5 0.206300 0.990390 0.998440 1.428618
O20   O     O_3   0.934030 0.050940 0.008900 -0.372716
H25   H     H_    0.196599 0.902196 0.179666 0.122736
Br1   Br    Br    0.153631 0.892398 0.723831 -0.610326
H26   H     H_    0.583929 0.146386 0.274559 0.102739
H27   H     H_    0.629888 0.816964 0.093912 0.126571

loop_
_geom_bond_atom_site_label_1
_geom_bond_atom_site_label_2
_ccdc_geom_bond_type
C24   H9    S    
C22   C27   S    
O18   V4    S    
C31   C32   S    
O19   C56   A    
C10   C17   A    
C45   C46   A    
C7    C8    A    
C4    C19   S    
C1    O6    A    
O17   V3    S    
C30   C35   S    
C33   H14   S    
C25   C26   S    
C24   C25   S    
C14   C15   A    
C18   H3    S    
C20   H4    S    
C16   C17   A    
C3    C23   S    
O5    C3    A    
C18   C19   A    
O15   V3    S    
C37   C42   A    
C53   O16   A    
C32   C33   S    
C6    C7    A    
C52   H22   S    
C29   C36   S    
C37   H17   S    
C22   C23   S    
C27   C28   S    
C49   H24   S    
C16   H5    S    
C40   C41   A    
C11   H1    S    
C17   H6    S    
C11   C12   A    
O1    V2    S    
C47   C52   A    
C7    H27   S    
C38   C39   A    
C35   C36   S    
O19   V4    S    
O9    C4    A    
O11   V4    S    
C42   C49   A    
C6    C55   S    
C9    C14   A    
C29   H12   S    
C21   H8    S    
C43   H19   S    
C30   C31   S    
C46   C47   A    
C39   C40   A    
C12   C13   A    
C31   C54   S    
C21   C22   S    
O4    C2    A    
C50   C51   A    
C33   C36   S    
C38   C53   S    
C34   C35   S    
C26   H11   S    
C12   H2    S    
O11   C54   A    
O2    C1    A    
C47   C48   A    
C5    H25   S    
C30   H26   S    
O12   C53   A    
C19   C20   A    
C8    C11   A    
O15   C55   A    
C45   C50   A    
C27   Br1   S    
C28   C56   S    
C1    C36   S    
C5    C6    A    
C35   H16   S    
C41   C46   A    
C44   H20   S    
C48   C49   A    
C48   H23   S    
O17   V4    S    
O3    C4    A    
C50   H21   S    
C22   H7    S    
O6    V2    S    
O8    V2    S    
O9    V2    S    
C23   C24   S    
C31   C34   S    
O13   C56   A    
O2    V1    S    
V4    O20   S    
C29   C30   S    
C2    C51   S    
O7    V1    S    
C25   C28   S    
C13   C18   A    
C26   C27   S    
C15   C20   A    
O1    C2    A    
C34   H15   S    
C44   C45   A    
O5    V1    S    
O8    C3    A    
C21   C24   S    
C5    C10   A    
O18   C55   A    
C13   C14   A    
O4    V1    S    
O3    V1    S    
V1    O10   S    
C33   C34   S    
C25   H10   S    
C40   C43   A    
V3    O20   S    
V2    O10   S    
O13   V3    S    
O7    V2    S    
C41   C42   A    
C23   C26   S    
C51   C52   A    
C43   C44   A    
C8    C9    A    
C39   H18   S    
O14   C54   A    
C37   C38   A    
O16   V4    S    
C15   C16   A    
C32   H13   S    
C9    C10   A    
O14   V3    S    
O12   V3    S    
C29   C32   S    
C21   C28   S    
