data_mof_unit_35225.cif
_audit_creation_date              2012-12-10T20:52:13-0500
_audit_creation_method            fapswitch 2.2
_symmetry_space_group_name_H-M    P1
_symmetry_Int_Tables_number       1
_space_group_crystal_system       triclinic
_cell_length_a                    10.791411
_cell_length_b                    8.986247
_cell_length_c                    8.204509
_cell_angle_alpha                 92.384989
_cell_angle_beta                  91.834005
_cell_angle_gamma                 89.105277
_cell_volume                      794.448704545

loop_
_atom_site_label
_atom_site_type_symbol
_atom_type_description
_atom_site_fract_x
_atom_site_fract_y
_atom_site_fract_z
_atom_type_partial_charge
C1    C     C_R   0.500061 0.218217 0.497840 0.946264
C2    C     C_R   0.499939 0.781783 0.502160 0.946263
C3    C     C_R   0.873128 0.497002 0.507194 -0.056817
C4    C     C_R   0.126872 0.502999 0.492805 -0.056817
C5    C     C_R   0.942418 0.569457 0.634798 0.040463
C6    C     C_R   0.057582 0.430545 0.365201 0.040465
C7    C     C_1   0.500018 0.065020 0.496965 -0.194551
C8    C     C_1   0.499982 0.934979 0.503035 -0.194553
C9    C     C_R   0.259625 0.500571 0.497328 0.884934
C10   C     C_R   0.740375 0.499429 0.502672 0.884937
C11   C     C_R   0.215101 0.466286 0.969950 -0.195251
C12   C     C_R   0.784899 0.533710 0.030048 -0.195249
C13   C     C_R   0.148831 0.502512 0.108067 0.210811
C14   C     C_R   0.851171 0.497487 0.891933 0.210810
C15   C     C_R   0.110305 0.388877 0.206420 0.062249
C16   C     C_R   0.889695 0.611123 0.793580 0.062252
C17   C     C_R   0.125369 0.239056 0.153889 -0.250613
C18   C     C_R   0.874622 0.760944 0.846108 -0.250607
C19   C     C_R   0.186425 0.203594 0.008051 0.276248
C20   C     C_R   0.813561 0.796404 0.991941 0.276225
C21   C     C_R   0.233503 0.317783 0.918964 -0.111757
C22   C     C_R   0.766488 0.682213 0.081030 -0.111755
C23   C     C_R   0.931266 0.423876 0.377062 -0.197399
C24   C     C_R   0.068734 0.576126 0.622938 -0.197399
H1    H     H_    0.282878 0.290137 0.809165 0.184794
H2    H     H_    0.717105 0.709859 0.190822 0.184801
H3    H     H_    0.254586 0.555280 0.906136 0.179969
H4    H     H_    0.745414 0.444715 0.093861 0.179967
H5    H     H_    0.091602 0.151136 0.226482 0.167689
H6    H     H_    0.908384 0.848866 0.773512 0.167691
H7    H     H_    0.878235 0.363484 0.282667 0.158098
H8    H     H_    0.121765 0.636517 0.717333 0.158095
N1    N     N_1   0.500020 0.500030 0.073640 -0.053922
N2    N     N_1   0.499980 0.499970 0.926360 -0.053918
O1    O     O_R   0.499990 0.285340 0.636850 -0.621849
O2    O     O_R   0.500010 0.714660 0.363150 -0.621844
O3    O     O_R   0.500010 0.285350 0.363100 -0.618573
O4    O     O_R   0.499990 0.714650 0.636900 -0.618579
O5    O     O_R   0.316750 0.500000 0.636870 -0.664205
O6    O     O_R   0.683250 0.500000 0.363130 -0.664204
O7    O     O_R   0.316770 0.500020 0.363120 -0.596378
O8    O     O_R   0.683230 0.499980 0.636880 -0.596378
Zn1   Zn    Zn3+2 0.499990 0.499990 0.682780 0.965458
Zn2   Zn    Zn3+2 0.500010 0.500010 0.317220 0.965462
I1    I     I_    0.121639 0.731313 0.173605 -0.479218
I2    I     I_    0.878365 0.268687 0.826391 -0.479220
N3    N     N_2   0.196159 0.054435 0.945818 -0.307111
H9    H     H_    0.126838 0.986708 0.980982 0.255046
C25   C     C_3   0.319235 0.988727 0.957841 -0.731883
H10   H     H_    0.318302 0.874599 0.900415 0.251332
H11   H     H_    0.349780 0.981848 0.088041 0.254669
H12   H     H_    0.386417 0.055471 0.892886 0.241495
N4    N     N_2   0.803801 0.945565 0.054161 -0.307117
H13   H     H_    0.873126 0.013296 0.019016 0.255042
C26   C     C_3   0.680721 0.011257 0.042067 -0.731851
H14   H     H_    0.681628 0.125392 0.099477 0.251334
H15   H     H_    0.613523 0.944513 0.106998 0.241491
H16   H     H_    0.650210 0.018114 0.911850 0.254666

loop_
_geom_bond_atom_site_label_1
_geom_bond_atom_site_label_2
_ccdc_geom_bond_type
C26   H14   S    
C24   H8    S    
C18   H6    S    
C11   H3    S    
C10   O8    A    
C17   H5    S    
C2    O4    A    
C3    C23   A    
N3    H9    S    
C13   C15   A    
C1    O3    A    
C3    C5    A    
C25   H12   S    
O3    Zn2   S    
C26   H15   S    
N1    N2    T    
C6    C15   S    
O4    Zn1   S    
N3    C25   S    
C3    C10   S    
N4    H13   S    
C13   I1    S    
C11   C13   A    
C5    C24   A    
C12   H4    S    
C6    C23   A    
C16   C18   A    
C19   C21   A    
C12   C14   A    
C14   C16   A    
N4    C26   S    
C4    C24   A    
O7    Zn2   S    
C19   N3    S    
O2    Zn2   S    
C4    C6    A    
C7    C8    T    
O8    Zn1   S    
C12   C22   A    
O6    Zn2   S    
O1    Zn1   S    
C1    O1    A    
C18   C20   A    
C14   I2    S    
C25   H10   S    
C22   H2    S    
C26   H16   S    
C2    O2    A    
C15   C17   A    
C21   H1    S    
C10   O6    A    
O5    Zn1   S    
C17   C19   A    
C4    C9    S    
C1    C7    S    
N1    Zn2   S    
C9    O7    A    
C11   C21   A    
C9    O5    A    
C2    C8    S    
N2    Zn1   S    
C25   H11   S    
C20   C22   A    
C20   N4    S    
C5    C16   S    
C23   H7    S    
