data_mof_unit_25558.cif
_audit_creation_date              2012-12-10T16:58:26-0500
_audit_creation_method            fapswitch 2.2
_symmetry_space_group_name_H-M    P1
_symmetry_Int_Tables_number       1
_space_group_crystal_system       triclinic
_cell_length_a                    15.829753
_cell_length_b                    10.998086
_cell_length_c                    9.892299
_cell_angle_alpha                 89.466031
_cell_angle_beta                  87.729164
_cell_angle_gamma                 91.891469
_cell_volume                      1719.83194555

loop_
_atom_site_label
_atom_site_type_symbol
_atom_type_description
_atom_site_fract_x
_atom_site_fract_y
_atom_site_fract_z
_atom_type_partial_charge
C1    C     C_R   0.504368 0.266836 0.500531 0.904362
C2    C     C_3   0.083254 0.504312 0.499863 0.139292
C3    C     C_3   0.972206 0.608309 0.547609 -0.201447
C4    C     C_3   0.917219 0.501961 0.495309 0.118219
C5    C     C_3   0.032974 0.597390 0.421529 -0.162983
C6    C     C_3   0.976978 0.490903 0.370958 0.114676
C7    C     C_1   0.174857 0.503575 0.504052 -0.054179
C8    C     C_1   0.825348 0.501330 0.493196 -0.086051
C9    C     C_2   0.490136 0.939466 0.393836 0.041062
C10   C     C_2   0.480003 0.862968 0.500916 -0.418382
C11   C     C_2   0.471414 0.067311 0.418695 0.552652
C12   C     C_R   0.340287 0.500195 0.502091 0.837369
C13   C     C_2   0.518799 0.136778 0.500328 -0.210604
C14   C     C_2   0.450418 0.428172 0.927152 -0.004726
C15   C     C_2   0.444038 0.441203 0.081089 0.680266
C16   C     C_R   0.496815 0.733659 0.499400 0.848134
C17   C     C_R   0.659740 0.500493 0.497814 0.780172
C18   C     C_3   0.968702 0.410201 0.572317 0.126241
C19   C     C_3   0.028857 0.397629 0.447072 -0.186458
C20   C     C_1   0.250447 0.502023 0.505579 -0.147214
C21   C     C_1   0.749656 0.500878 0.493504 -0.186253
C22   C     C_3   0.024323 0.515713 0.626052 -0.176534
Cu1   Cu    Cu3+1 0.500020 0.500020 0.638630 0.913538
Cu2   Cu    Cu3+1 0.499980 0.499980 0.361370 0.996693
H1    H     H_    0.053308 0.311650 0.405452 0.129725
H2    H     H_    0.499096 0.588614 0.871770 0.195348
H3    H     H_    0.060687 0.674033 0.358803 0.134450
H4    H     H_    0.947759 0.694385 0.588987 0.143370
H5    H     H_    0.046732 0.529233 0.729427 0.136533
H6    H     H_    0.455958 0.897783 0.597079 0.140120
N1    N     N_2   0.499090 0.498660 0.846910 -0.341649
N2    N     N_2   0.499070 0.498630 0.153040 -0.208765
O1    O     O_R   0.500010 0.321960 0.617040 -0.608513
O2    O     O_R   0.499990 0.321920 0.382900 -0.508124
O3    O     O_R   0.379090 0.500010 0.617050 -0.608507
O4    O     O_R   0.379060 0.499970 0.382910 -0.496850
O5    O     O_R   0.500010 0.678080 0.617100 -0.583262
O6    O     O_R   0.499990 0.678040 0.382960 -0.596083
O7    O     O_R   0.620940 0.500030 0.617090 -0.563420
O8    O     O_R   0.620910 0.499990 0.382950 -0.612952
C23   C     C_3   0.590062 0.084106 0.580990 -0.503201
C24   C     C_3   0.655632 0.177539 0.631648 -0.307544
C25   C     C_3   0.727893 0.114088 0.697925 -0.888415
H7    H     H_    0.703028 0.048728 0.777162 0.263156
H8    H     H_    0.765952 0.064596 0.620841 0.253669
H9    H     H_    0.769243 0.182763 0.746574 0.248333
H10   H     H_    0.682003 0.234448 0.545615 0.206505
H11   H     H_    0.626181 0.237306 0.708449 0.243949
H12   H     H_    0.561585 0.032849 0.669687 0.219655
H13   H     H_    0.625300 0.019575 0.515796 0.221114
C26   C     C_3   0.396598 0.325257 0.871859 -0.260026
C27   C     C_3   0.436876 0.203185 0.896075 -0.347647
C28   C     C_3   0.385555 0.098197 0.836575 -0.850242
H14   H     H_    0.320684 0.093055 0.883810 0.265549
H15   H     H_    0.381626 0.110565 0.725461 0.257790
H16   H     H_    0.416743 0.011198 0.856388 0.244401
H17   H     H_    0.501979 0.204633 0.850319 0.226683
H18   H     H_    0.440540 0.188888 0.006409 0.253143
H19   H     H_    0.332716 0.324696 0.922812 0.199660
H20   H     H_    0.384433 0.336743 0.764517 0.244274
F1    F     F_    0.380882 0.376576 0.149098 -0.635325
C29   C     C_3   0.569095 0.570011 0.081436 -0.307294
C30   C     C_3   0.649650 0.608847 0.152396 -0.270195
C31   C     C_3   0.711215 0.680588 0.055860 -0.968979
H21   H     H_    0.736179 0.620474 0.974982 0.264660
H22   H     H_    0.679686 0.756948 0.007526 0.270028
H23   H     H_    0.765359 0.717429 0.112638 0.251531
H24   H     H_    0.634881 0.668610 0.238935 0.248485
H25   H     H_    0.684860 0.526990 0.179547 0.239239
H26   H     H_    0.598248 0.512744 0.002010 0.188492
H27   H     H_    0.543222 0.657153 0.046917 0.157962
C32   C     C_3   0.930199 0.302658 0.654711 -0.425357
C33   C     C_3   0.998123 0.215501 0.697480 -0.336548
C34   C     C_3   0.959804 0.111267 0.785114 -0.850099
H28   H     H_    0.926517 0.146969 0.876577 0.250850
H29   H     H_    0.914474 0.055714 0.726681 0.255155
H30   H     H_    0.010802 0.051924 0.817664 0.245573
H31   H     H_    0.029742 0.176435 0.606281 0.219093
H32   H     H_    0.046936 0.265335 0.754737 0.223038
H33   H     H_    0.895506 0.338000 0.745100 0.203474
H34   H     H_    0.884539 0.252955 0.591093 0.203803
C35   C     C_3   0.947985 0.474897 0.227058 -0.421187
C36   C     C_3   0.023797 0.457544 0.129372 -0.325508
C37   C     C_3   0.995154 0.430271 0.987747 -0.863629
H35   H     H_    0.953195 0.347344 0.988833 0.257774
H36   H     H_    0.960874 0.508204 0.946897 0.253277
H37   H     H_    0.051831 0.414005 0.921961 0.238802
H38   H     H_    0.065234 0.541222 0.126059 0.221427
H39   H     H_    0.061352 0.380346 0.163973 0.228525
H40   H     H_    0.904203 0.393855 0.225131 0.199265
H41   H     H_    0.913218 0.556362 0.196877 0.200834
C38   C     C_3   0.527857 0.902670 0.256515 -0.364208
C39   C     C_3   0.535047 0.006769 0.151932 -0.317907
C40   C     C_3   0.583275 0.970536 0.023040 -0.926843
H42   H     H_    0.650472 0.956416 0.044872 0.261251
H43   H     H_    0.554363 0.886707 0.980253 0.256947
H44   H     H_    0.581478 0.044782 0.946804 0.250605
H45   H     H_    0.470069 0.030060 0.126309 0.266101
H46   H     H_    0.568151 0.087933 0.193822 0.227201
H47   H     H_    0.591990 0.868226 0.271736 0.190147
H48   H     H_    0.487207 0.829860 0.213215 0.228804
F2    F     F_    0.407871 0.116282 0.349199 -0.649332

loop_
_geom_bond_atom_site_label_1
_geom_bond_atom_site_label_2
_ccdc_geom_bond_type
C39   C40   S    
C6    C35   S    
C22   H5    S    
C23   C24   S    
C2    C7    S    
C37   H37   S    
C14   N1    D    
C4    C8    S    
C13   C23   S    
C1    O1    A    
C15   N2    D    
C28   H14   S    
C6    C19   S    
Cu2   O4    S    
C34   H29   S    
C36   C37   S    
C3    H4    S    
C37   H36   S    
C17   O7    A    
C5    C6    S    
C29   H26   S    
C18   C19   S    
C33   C34   S    
C5    H3    S    
C30   H25   S    
Cu1   O1    S    
C34   H30   S    
C2    C22   S    
Cu2   O6    S    
C33   H31   S    
C12   O4    A    
C9    C10   D    
C39   H46   S    
C32   H34   S    
C16   O5    A    
C4    C18   S    
C36   H38   S    
H2    N1    S    
C9    C38   S    
C23   H12   S    
C1    O2    A    
C28   H15   S    
C18   C32   S    
C36   H39   S    
C34   H28   S    
C26   C27   S    
C31   H23   S    
C37   H35   S    
C4    C6    S    
C40   H44   S    
Cu1   N1    S    
Cu1   O5    S    
C17   C21   S    
C35   H41   S    
C17   O8    A    
C31   H22   S    
C25   H7    S    
Cu2   N2    S    
C29   C30   S    
C9    C11   S    
C10   H6    S    
C14   C26   S    
Cu1   Cu2   S    
C12   C20   S    
C8    C21   T    
C15   F1    S    
C24   H11   S    
C12   O3    A    
C40   H43   S    
C25   H8    S    
C27   H18   S    
C38   H48   S    
C35   C36   S    
Cu1   O3    S    
C2    C5    S    
C1    C13   S    
C24   C25   S    
C3    C4    S    
C23   H13   S    
C27   C28   S    
C38   H47   S    
C28   H16   S    
C30   H24   S    
C2    C19   S    
C18   C22   S    
C32   C33   S    
C3    C5    S    
C33   H32   S    
C35   H40   S    
C31   H21   S    
N2    C29   S    
C32   H33   S    
C10   C16   S    
C11   C13   D    
Cu1   O7    S    
C38   C39   S    
Cu2   O8    S    
C29   H27   S    
C11   F2    S    
C24   H10   S    
C40   H42   S    
C19   H1    S    
C25   H9    S    
Cu2   O2    S    
C27   H17   S    
C30   C31   S    
C26   H19   S    
C7    C20   T    
C14   C15   S    
C3    C22   S    
C26   H20   S    
C39   H45   S    
C16   O6    A    
