data_mof_unit_56162.cif
_audit_creation_date              2013-03-05T16:04:21-0500
_audit_creation_method            fapswitch 2.2
_symmetry_space_group_name_H-M    P1
_symmetry_Int_Tables_number       1
_space_group_crystal_system       triclinic
_cell_length_a                    9.538089
_cell_length_b                    10.824994
_cell_length_c                    13.481737
_cell_angle_alpha                 90.392713
_cell_angle_beta                  72.905753
_cell_angle_gamma                 89.782284
_cell_volume                      1330.43576994

loop_
_atom_site_label
_atom_site_type_symbol
_atom_site_description
_atom_site_fract_x
_atom_site_fract_y
_atom_site_fract_z
_atom_type_partial_charge
O1    O     O_R   0.381250 0.680340 0.500010 -0.583957
O2    O     O_R   0.618820 0.680370 0.500010 -0.586364
C1    C     C_R   0.499644 0.737848 0.500473 0.793489
O3    O     O_R   0.323240 0.499950 0.650980 -0.582034
O4    O     O_R   0.560810 0.499980 0.650980 -0.602325
C2    C     C_R   0.423577 0.485562 0.698947 0.784465
Cu1   Cu    Cu3+1 0.359340 0.499980 0.500000 0.946945
Cu2   Cu    Cu3+1 0.640660 0.500020 0.500000 0.990515
O5    O     O_R   0.381180 0.319630 0.499990 -0.596027
O6    O     O_R   0.618750 0.319660 0.499990 -0.551433
O7    O     O_R   0.439190 0.500020 0.349020 -0.594935
O8    O     O_R   0.676760 0.500050 0.349020 -0.539557
C3    C     C_R   0.499931 0.262137 0.500386 0.799171
C4    C     C_R   0.577908 0.500998 0.300232 0.823087
C5    C     C_R   0.806229 0.507567 0.020722 -0.209735
H1    H     H_    0.849096 0.544340 0.164963 0.187781
H2    H     H_    0.862088 0.447955 0.822086 0.141987
H3    H     H_    0.918019 0.526050 0.975695 0.131385
C6    C     C_R   0.621640 0.497509 0.186787 -0.048322
C7    C     C_R   0.235419 0.437167 0.865288 -0.210755
C8    C     C_R   0.193291 0.415668 0.971482 -0.132276
C9    C     C_R   0.295059 0.422854 0.026759 -0.157965
C10   C     C_R   0.445387 0.441749 0.975197 0.068551
C11   C     C_R   0.491359 0.441410 0.865058 0.091210
C12   C     C_R   0.552169 0.461053 0.028682 0.077040
C13   C     C_R   0.701878 0.474154 0.971291 0.175226
C14   C     C_R   0.746598 0.450398 0.865388 -0.254281
C15   C     C_R   0.643293 0.427561 0.814114 -0.201714
C16   C     C_R   0.514969 0.472241 0.136959 -0.249132
C17   C     C_R   0.766662 0.518838 0.128107 -0.136976
C18   C     C_R   0.383746 0.453697 0.810701 -0.101682
H4    H     H_    0.403424 0.461837 0.184441 0.154716
H5    H     H_    0.151775 0.439212 0.825659 0.150372
H6    H     H_    0.252608 0.410239 0.109341 0.159482
H7    H     H_    0.080253 0.396036 0.012441 0.171149
H8    H     H_    0.686635 0.395250 0.735270 0.187077
C19   C     C_R   0.614426 0.935797 0.522564 -0.177056
H9    H     H_    0.704160 0.887347 0.539567 0.151657
C20   C     C_R   0.614216 0.063635 0.523046 -0.125589
H10   H     H_    0.703173 0.111604 0.541135 0.176055
C21   C     C_R   0.499359 0.128267 0.501350 -0.021488
C22   C     C_R   0.383397 0.064172 0.480863 -0.176306
H11   H     H_    0.293604 0.112588 0.463905 0.161408
C23   C     C_R   0.383096 0.936334 0.481045 -0.176800
H12   H     H_    0.293086 0.888310 0.464329 0.158784
C24   C     C_R   0.499021 0.871716 0.501332 -0.028454
C25   C     C_R   0.897221 0.573413 0.567573 -0.115796
H13   H     H_    0.818620 0.632305 0.621756 0.151642
C26   C     C_R   0.045853 0.573173 0.567689 -0.043646
H14   H     H_    0.078970 0.631878 0.621968 0.136033
N1    N     N_R   0.147940 0.499970 0.499970 -0.181468
C27   C     C_R   0.103590 0.426808 0.432554 -0.079552
H15   H     H_    0.183024 0.368043 0.378760 0.146142
C28   C     C_R   0.955270 0.426161 0.432285 0.447752
N2    N     N_R   0.852060 0.500060 0.499990 -0.222672
N3    N     N_R   0.915570 0.346775 0.360215 0.131028
O9    O     O_R   0.954275 0.377280 0.262855 -0.417513
O10   O     O_R   0.890853 0.231001 0.383697 -0.388337

loop_
_geom_bond_atom_site_label_1
_geom_bond_atom_site_label_2
_geom_bond_distance
_ccdc_geom_bond_type
C5    H3    1.080838 S    
C10   C11   1.419235 A    
C19   H9    1.083398 S    
C8    H7    1.079762 S    
N3    O10   1.300097 A    
O4    Cu2   1.952394 S    
C21   C22   1.401380 A    
C1    C24   1.449059 S    
C25   H13   1.081710 S    
Cu2   O8    1.962062 S    
C3    C21   1.449301 S    
O2    C1    1.292160 A    
C19   C24   1.401098 A    
C11   C18   1.432047 A    
Cu1   N1    2.016472 S    
Cu1   Cu2   2.683258 S    
C20   C21   1.400198 A    
C25   C26   1.418122 A    
C8    C9    1.388754 A    
N3    O9    1.300086 A    
Cu1   O7    1.952396 S    
C13   C14   1.386603 A    
C22   C23   1.383873 A    
C27   H15   1.082429 S    
O3    Cu1   1.962061 S    
C7    H5    1.083069 S    
Cu2   N2    2.016314 S    
Cu2   O6    1.964341 S    
C27   C28   1.415802 A    
C2    C18   1.484892 S    
C16   H4    1.075130 S    
C10   C12   1.425575 A    
C12   C16   1.401509 A    
O4    C2    1.288868 A    
C9    H6    1.076860 S    
O7    C4    1.293034 A    
C28   N3    1.425923 S    
O3    C2    1.312419 A    
C22   H11   1.083420 S    
H1    C17   1.082016 S    
N1    C27   1.360492 A    
H2    C14   1.084639 S    
C20   H10   1.082727 S    
C7    C8    1.390111 A    
C15   H8    1.076377 S    
C5    C17   1.388975 A    
C19   C20   1.383808 A    
C26   H14   1.081726 S    
C14   C15   1.381943 A    
Cu1   O5    1.962576 S    
C25   N2    1.367345 A    
O5    C3    1.291717 A    
C28   N2    1.377656 A    
C5    C13   1.398201 A    
C23   C24   1.400429 A    
C26   N1    1.367909 A    
C12   C13   1.418198 A    
O1    Cu1   1.964341 S    
C6    C17   1.397892 A    
C4    C6    1.462400 S    
O6    C3    1.293829 A    
C9    C10   1.413925 A    
O2    Cu2   1.962579 S    
C23   H12   1.083343 S    
C11   C15   1.416355 A    
O8    C4    1.298584 A    
O1    C1    1.293147 A    
C7    C18   1.402424 A    
C6    C16   1.400962 A    
