data_mof_unit_6618.cif
_audit_creation_date              2012-12-11T14:52:28-0500
_audit_creation_method            fapswitch 2.2
_symmetry_space_group_name_H-M    P1
_symmetry_Int_Tables_number       1
_space_group_crystal_system       triclinic
_cell_length_a                    8.231747
_cell_length_b                    15.132452
_cell_length_c                    26.993039
_cell_angle_alpha                 97.10339
_cell_angle_beta                  93.147195
_cell_angle_gamma                 80.375066
_cell_volume                      3287.63900182

loop_
_atom_site_label
_atom_site_type_symbol
_atom_type_description
_atom_site_fract_x
_atom_site_fract_y
_atom_site_fract_z
_atom_type_partial_charge
Ba1   Ba    Ba6+2 0.860900 0.457020 0.523210 1.638701
Ba2   Ba    Ba6+2 0.328940 0.542910 0.476780 1.647821
C1    C     C_3   0.704746 0.135352 0.651018 -0.120203
C2    C     C_3   0.681864 0.229489 0.633933 0.328104
C3    C     C_3   0.466091 0.683008 0.628823 0.274137
C4    C     C_3   0.466751 0.708006 0.685292 -0.433644
C5    C     C_3   0.027430 0.732435 0.342127 0.335298
C6    C     C_3   0.034235 0.755688 0.289179 -0.315400
C7    C     C_3   0.486246 0.782608 0.362479 0.347566
C8    C     C_3   0.424763 0.874757 0.345345 -0.365399
C9    C     C_R   0.056988 0.441374 0.180527 0.563380
C10   C     C_R   0.903599 0.589685 0.178112 0.610024
C11   C     C_2   0.749012 0.549562 0.270019 0.118754
C12   C     C_3   0.167735 0.257460 0.657253 0.296514
C13   C     C_3   0.723416 0.581836 0.325078 -0.061201
C14   C     C_1   0.985081 0.486538 0.342991 0.045707
C15   C     C_2   0.030243 0.485792 0.296005 -0.151617
C16   C     C_2   0.905872 0.516662 0.255690 0.222103
C17   C     C_R   0.047391 0.513884 0.103974 -0.091171
C18   C     C_R   0.119581 0.443527 0.132269 -0.044066
C19   C     C_R   0.249937 0.378684 0.110681 0.063141
C20   C     C_R   0.939488 0.587229 0.127461 -0.031115
C21   C     C_2   0.841927 0.530087 0.359584 -0.311259
C22   C     C_2   0.353082 0.478024 0.641589 -0.255693
C23   C     C_3   0.135742 0.231888 0.708345 -0.113056
C24   C     C_R   0.229867 0.436074 0.977353 0.022721
C25   C     C_R   0.050036 0.582869 0.973754 0.019362
C26   C     C_R   0.158382 0.508488 0.950092 0.051873
C27   C     C_R   0.332556 0.362315 0.951381 -0.101657
C28   C     C_R   0.369340 0.361650 0.901537 -0.065936
C29   C     C_R   0.303508 0.433633 0.874656 -0.042447
C30   C     C_R   0.196262 0.506717 0.898650 -0.079054
C31   C     C_R   0.127469 0.578230 0.871253 -0.028676
C32   C     C_R   0.166931 0.576053 0.820615 0.579751
C33   C     C_R   0.341481 0.433204 0.824046 0.597099
C34   C     C_3   0.223603 0.265996 0.414758 0.311154
C35   C     C_2   0.467195 0.484726 0.729410 -0.068897
C36   C     C_3   0.503773 0.486500 0.675074 -0.045569
C37   C     C_1   0.208951 0.519024 0.657746 0.004855
C38   C     C_2   0.173272 0.519974 0.705388 -0.129611
C39   C     C_2   0.309101 0.501853 0.744513 0.231548
C40   C     C_R   0.196425 0.439447 0.029220 0.001275
C41   C     C_R   0.085508 0.512500 0.052572 0.047332
C42   C     C_R   0.012495 0.584546 0.025079 0.024035
C43   C     C_R   0.277804 0.374519 0.059417 -0.093665
C44   C     C_R   0.870828 0.658204 0.100247 -0.062605
C45   C     C_3   0.248120 0.164342 0.400273 -0.382267
C46   C     C_R   0.982796 0.653307 0.944896 -0.101950
C47   C     C_R   0.020819 0.650914 0.895060 -0.063670
C48   C     C_R   0.905120 0.656743 0.050342 -0.101993
C49   C     C_R   0.760860 0.767187 0.484247 -0.254055
C50   C     C_R   0.845688 0.826673 0.465107 0.016605
C51   C     C_R   0.782649 0.919385 0.469653 -0.152323
C52   C     C_R   0.636919 0.954483 0.496302 0.016632
C53   C     C_R   0.558853 0.891622 0.517180 -0.115255
C54   C     C_R   0.618704 0.799371 0.510334 0.033204
C55   C     C_R   0.418493 0.087464 0.528088 -0.129215
C56   C     C_3   0.922725 0.719642 0.661096 0.245735
C57   C     C_R   0.355222 0.179370 0.535076 0.016037
C58   C     C_R   0.583428 0.211788 0.492519 0.067122
C59   C     C_R   0.649283 0.119555 0.485627 -0.125928
C60   C     C_R   0.569169 0.054690 0.503861 0.003738
C61   C     C_R   0.440226 0.241363 0.518631 -0.287165
C62   C     C_3   0.905792 0.821339 0.679690 0.019405
C63   C     C_3   0.697758 0.344486 0.374318 0.313746
C64   C     C_3   0.698697 0.321925 0.317884 -0.383517
H1    H     H_    0.782381 0.228681 0.607871 0.073109
H2    H     H_    0.331824 0.145303 0.368436 0.126288
H3    H     H_    0.302999 0.128667 0.432083 0.066151
H4    H     H_    0.127549 0.142581 0.389315 0.128287
H5    H     H_    0.965374 0.681364 0.693267 0.012906
H6    H     H_    0.798573 0.705383 0.649036 0.064543
H7    H     H_    0.783104 0.840275 0.697033 0.068679
H8    H     H_    0.819408 0.360860 0.387909 0.012458
H9    H     H_    0.600662 0.403779 0.383471 0.074959
H10   H     H_    0.821798 0.122727 0.673329 0.122047
H11   H     H_    0.798433 0.264581 0.307414 0.133255
H12   H     H_    0.719656 0.380991 0.300105 0.059480
H13   H     H_    0.578092 0.303419 0.303787 0.125871
H14   H     H_    0.560433 0.242707 0.614027 -0.040966
H15   H     H_    0.713283 0.084772 0.617317 0.055929
H16   H     H_    0.337457 0.680746 0.615245 0.053921
H17   H     H_    0.542820 0.615762 0.619995 0.032693
H18   H     H_    0.429182 0.781918 0.694543 0.140396
H19   H     H_    0.379354 0.672945 0.702168 0.081967
H20   H     H_    0.591767 0.688074 0.701955 0.095109
H21   H     H_    0.124359 0.673324 0.347026 0.102932
H22   H     H_    0.904568 0.714732 0.347158 -0.056053
H23   H     H_    0.141008 0.790215 0.285536 0.143607
H24   H     H_    0.049239 0.692758 0.262974 0.109470
H25   H     H_    0.919168 0.800569 0.279185 0.125137
H26   H     H_    0.622731 0.769436 0.360114 -0.055388
H27   H     H_    0.452467 0.785127 0.402005 0.071103
H28   H     H_    0.484711 0.926694 0.368798 0.070483
H29   H     H_    0.289320 0.892650 0.349006 0.151967
H30   H     H_    0.086543 0.321709 0.651781 0.103763
H31   H     H_    0.455323 0.874299 0.305741 0.120039
H32   H     H_    0.157345 0.461716 0.286321 0.139788
H33   H     H_    0.569286 0.475712 0.756498 0.100172
H34   H     H_    0.449667 0.303499 0.883917 0.121597
H35   H     H_    0.385311 0.302624 0.968167 0.066744
H36   H     H_    0.373005 0.321678 0.044744 0.063678
H37   H     H_    0.787587 0.715571 0.117432 0.120295
H38   H     H_    0.899822 0.712231 0.959507 0.067933
H39   H     H_    0.298197 0.267263 0.656073 -0.009676
H40   H     H_    0.965539 0.706985 0.875096 0.117544
H41   H     H_    0.045887 0.530858 0.716090 0.118136
H42   H     H_    0.844549 0.714103 0.032840 0.067190
H43   H     H_    0.824147 0.546877 0.399390 0.086587
H44   H     H_    0.362442 0.437559 0.605389 0.065935
H45   H     H_    0.343627 0.043767 0.540428 0.068684
H46   H     H_    0.852445 0.962087 0.453499 0.076864
H47   H     H_    0.760154 0.100560 0.464847 0.083186
H48   H     H_    0.454295 0.911726 0.540391 0.060171
H49   H     H_    0.388917 0.312413 0.523201 0.068509
H50   H     H_    0.007817 0.217601 0.708799 0.118234
H51   H     H_    0.809570 0.695791 0.480832 0.075625
H52   H     H_    0.222354 0.169826 0.715638 0.112915
H53   H     H_    0.344561 0.286849 0.424575 0.003610
H54   H     H_    0.142792 0.283066 0.447321 0.064150
N1    N     N_R   0.954727 0.515309 0.203829 -0.411185
N2    N     N_R   0.272035 0.503614 0.797165 -0.423109
O1    O     O_2   0.905540 0.548000 0.618290 -0.478527
O2    O     O_3   0.666529 0.269307 0.395376 -0.635147
O3    O     O_3   0.132953 0.188212 0.620642 -0.635877
O4    O     O_2   0.284150 0.451970 0.381680 -0.459642
O5    O     O_3   0.052160 0.451990 0.441880 -0.496169
O6    O     O_3   0.501140 0.616030 0.412450 -0.474925
O7    O     O_3   0.152412 0.307878 0.373747 -0.625298
O8    O     O_3   0.615020 0.608480 0.525380 -0.466514
O9    O     O_3   0.085020 0.662210 0.437090 -0.486342
O10   O     O_2   0.186259 0.820672 0.465856 -0.481181
O11   O     O_3   0.054743 0.806945 0.376018 -0.607446
O12   O     O_3   0.137550 0.547930 0.558110 -0.453453
O13   O     O_3   0.574690 0.391440 0.474610 -0.490601
O14   O     O_2   0.341330 0.720570 0.525000 -0.445355
O15   O     O_3   0.529764 0.748492 0.606990 -0.656913
O16   O     O_2   0.395342 0.544019 0.323804 -0.509119
O17   O     O_3   0.413208 0.716375 0.332043 -0.601582
O18   O     O_2   0.085642 0.372198 0.200533 -0.621710
O19   O     O_2   0.435172 0.369347 0.803794 -0.580622
O20   O     O_2   0.826785 0.658785 0.199359 -0.611942
O21   O     O_2   0.109465 0.639572 0.797680 -0.625352
O22   O     O_3   0.688580 0.383890 0.587540 -0.486978
O23   O     O_2   0.845067 0.431330 0.672366 -0.512097
O24   O     O_3   0.027153 0.693372 0.620225 -0.642318
O25   O     O_3   0.690961 0.295648 0.675021 -0.599522
O26   O     O_2   0.848360 0.279400 0.474970 -0.459485
O27   O     O_3   0.104690 0.337720 0.562900 -0.493277
O28   O     O_2   0.019480 0.177565 0.528865 -0.485397
P1    P     P_3+3 0.070480 0.574800 0.610950 0.992134
P2    P     P_3+3 0.668430 0.292880 0.460530 0.984611
P3    P     P_3+3 0.152722 0.220348 0.561484 0.919266
P4    P     P_3+3 0.119230 0.425130 0.389040 0.994777
P5    P     P_3+3 0.044053 0.779785 0.436751 0.962914
P6    P     P_3+3 0.681267 0.400707 0.652714 0.959022
P7    P     P_3+3 0.526994 0.721015 0.542183 0.960770
P8    P     P_3+3 0.508274 0.610750 0.347674 0.926285
C65   C     C_3   0.902540 0.881911 0.637509 -0.100661
C66   C     C_3   0.074185 0.895238 0.623094 -0.200183
C67   C     C_3   0.061630 0.951405 0.579697 -0.383570
H55   H     H_    0.003265 0.916950 0.546646 0.136318
H56   H     H_    0.989661 0.019526 0.589722 0.147450
H57   H     H_    0.186952 0.958601 0.570193 0.126306
H58   H     H_    0.136285 0.930941 0.655276 0.136630
H59   H     H_    0.152277 0.829306 0.612190 0.162587
H60   H     H_    0.834197 0.853937 0.604112 0.084493
H61   H     H_    0.832186 0.949108 0.650513 0.103297
N3    N     N_3   0.030242 0.839887 0.718840 -0.495287
H62   H     H_    0.003388 0.813904 0.751061 0.203934
H63   H     H_    0.145259 0.805119 0.707717 0.182741
N4    N     N_3   0.568208 0.123037 0.680415 -0.493742
H64   H     H_    0.463336 0.122218 0.656836 0.179614
H65   H     H_    0.544311 0.177273 0.708447 0.238662
N5    N     N_3   0.158687 0.304737 0.747365 -0.478145
H66   H     H_    0.061290 0.358027 0.744208 0.193332
H67   H     H_    0.147070 0.281669 0.781751 0.196531
C68   C     C_3   0.376757 0.319356 0.140781 -0.184588
C69   C     C_3   0.549202 0.345520 0.139206 -0.251749
C70   C     C_3   0.674752 0.290778 0.171876 -0.404852
H68   H     H_    0.638396 0.303903 0.211390 0.136774
H69   H     H_    0.683694 0.217555 0.159071 0.136950
H70   H     H_    0.797612 0.310610 0.169448 0.176315
H71   H     H_    0.593410 0.333753 0.100442 0.128576
H72   H     H_    0.543505 0.418405 0.152675 0.144874
H73   H     H_    0.349488 0.324662 0.180627 0.171820
H74   H     H_    0.380177 0.247572 0.125177 0.106765
N6    N     N_3   0.616078 0.563132 0.233628 -0.468956
H75   H     H_    0.533030 0.520208 0.238809 0.172475
H76   H     H_    0.555281 0.629630 0.240347 0.215383

loop_
_geom_bond_atom_site_label_1
_geom_bond_atom_site_label_2
_ccdc_geom_bond_type
C25   C46   A    
C53   C54   A    
C10   C20   A    
N3    H62   S    
C17   C18   A    
C36   P6    S    
C9    O18   D    
C23   H52   S    
O10   P5    D    
C67   H55   S    
C57   P3    S    
O6    P8    S    
C55   C60   A    
N5    H67   S    
C55   H45   S    
C51   C52   A    
C50   C51   A    
C50   P5    S    
C64   H13   S    
Ba2   O12   S    
C12   O3    S    
C11   C16   D    
C34   C45   S    
O8    P7    S    
C35   C36   S    
C5    O11   S    
C28   C29   A    
C3    H17   S    
C56   H5    S    
C55   C57   A    
O26   P2    D    
C8    H28   S    
C31   C47   A    
O13   P2    S    
C46   H38   S    
C28   H34   S    
C22   C37   D    
C65   H61   S    
O5    P4    S    
Ba1   P2    S    
N6    H76   S    
C49   C54   A    
C58   P2    S    
C63   O2    S    
C62   N3    S    
C34   H53   S    
O27   P3    S    
C45   H3    S    
Ba2   O8    S    
O23   P6    D    
C25   C42   A    
C12   H39   S    
C5    H21   S    
C10   N1    Am   
C29   C30   A    
O17   P8    S    
O3    P3    S    
C14   C15   D    
O28   P3    D    
C1    H15   S    
C22   C36   S    
C62   H7    S    
Ba1   O27   S    
C66   H59   S    
C7    C8    S    
C70   H70   S    
C61   H49   S    
Ba2   O5    S    
C13   C21   S    
O2    P2    S    
Ba2   P4    S    
C11   N6    S    
C48   H42   S    
N3    H63   S    
C9    N1    Am   
C21   H43   S    
C7    H26   S    
C12   H30   S    
C67   H56   S    
C17   C41   A    
Ba2   O9    S    
C19   C43   A    
C56   C62   S    
C31   C32   A    
C64   H12   S    
O1    P1    D    
C32   O21   D    
C4    H18   S    
C49   C50   A    
C68   C69   S    
C5    C6    S    
C17   C20   A    
C22   H44   S    
C23   N5    S    
C13   P8    S    
Ba1   O8    S    
C23   H50   S    
C37   C38   D    
N4    H64   S    
C52   C60   S    
C2    O25   S    
C9    C18   A    
Ba2   O14   S    
C63   H8    S    
C69   C70   S    
N6    H75   S    
C40   C43   A    
C39   N2    S    
O22   P6    S    
C8    H31   S    
C41   C42   A    
Ba1   O1    S    
C45   H4    S    
C27   C28   A    
O25   P6    S    
C54   P7    S    
O16   P8    D    
C65   C66   S    
C10   O20   D    
C26   C30   A    
C2    H14   S    
C15   C16   S    
C27   H35   S    
C6    H25   S    
C66   H58   S    
C1    H10   S    
C4    H19   S    
C33   O19   D    
C38   H41   S    
C68   H74   S    
Ba2   O4    S    
C51   H46   S    
C38   C39   S    
C20   C44   A    
C14   C21   D    
C11   C13   S    
C14   P4    S    
C58   C61   A    
C6    H24   S    
C40   C41   A    
O14   P7    D    
Ba1   O12   S    
C7    H27   S    
C45   H2    S    
C35   H33   S    
C67   H57   S    
C70   H68   S    
C24   C40   A    
C69   H71   S    
C15   H32   S    
C42   C48   A    
C64   H11   S    
C52   C53   A    
C19   C68   S    
C70   H69   S    
O11   P5    S    
C24   C26   A    
C33   N2    Am   
Ba1   O5    S    
N4    H65   S    
C4    H20   S    
C5    H22   S    
C2    H1    S    
C56   O24   S    
C3    O15   S    
C47   H40   S    
C69   H72   S    
C53   H48   S    
O15   P7    S    
C44   H37   S    
C44   C48   A    
C57   C61   A    
Ba2   O13   S    
C63   H9    S    
O4    P4    D    
C66   C67   S    
O9    P5    S    
Ba1   O22   S    
C34   O7    S    
C30   C31   A    
C59   H47   S    
C3    H16   S    
C7    O17   S    
C56   H6    S    
C3    C4    S    
C8    H29   S    
C46   C47   A    
O12   P1    S    
Ba1   Ba2   S    
C62   C65   S    
C49   H51   S    
C65   H60   S    
Ba1   P1    S    
N5    H66   S    
C29   C33   A    
C12   C23   S    
C35   C39   D    
C59   C60   A    
C1    N4    S    
C37   P1    S    
C43   H36   S    
C16   N1    S    
O24   P1    S    
C68   H73   S    
C18   C19   A    
C24   C27   A    
C32   N2    Am   
C63   C64   S    
C25   C26   A    
C58   C59   A    
Ba1   O26   S    
C6    H23   S    
Ba1   O13   S    
C34   H54   S    
O7    P4    S    
C1    C2    S    
Ba2   O6    S    
