data_mof_unit_65140.cif
_audit_creation_date              2012-12-10T19:27:03-0500
_audit_creation_method            fapswitch 2.2
_symmetry_space_group_name_H-M    P1
_symmetry_Int_Tables_number       1
_space_group_crystal_system       triclinic
_cell_length_a                    30.603411
_cell_length_b                    30.603469
_cell_length_c                    27.667678
_cell_angle_alpha                 90.000279
_cell_angle_beta                  89.999794
_cell_angle_gamma                 89.992066
_cell_volume                      25912.7318715

loop_
_atom_site_label
_atom_site_type_symbol
_atom_type_description
_atom_site_fract_x
_atom_site_fract_y
_atom_site_fract_z
_atom_type_partial_charge
C1    C     C_R   0.118481 0.381520 0.250000 -0.518836
C2    C     C_R   0.881499 0.381499 0.250000 -0.520375
C3    C     C_1   0.000000 0.500000 0.525496 0.054001
C4    C     C_1   1.000000 0.500000 0.974504 0.054001
C5    C     C_1   0.000000 0.500000 0.025495 0.053193
C6    C     C_1   0.500000 0.000000 0.974504 0.053998
C7    C     C_1   0.500000 1.000000 0.025495 0.053193
C8    C     C_R   0.112254 0.342206 0.275682 0.527256
C9    C     C_R   0.884502 0.654616 0.718493 0.527219
C10   C     C_R   0.345288 0.884596 0.281365 0.530842
C11   C     C_R   0.655018 0.115100 0.719110 0.527586
C12   C     C_R   0.887712 0.657761 0.275757 0.527223
C13   C     C_R   0.381500 0.118500 0.750000 -0.517947
C14   C     C_R   0.115641 0.345527 0.718277 0.527403
C15   C     C_R   0.654777 0.115339 0.281264 0.530767
C16   C     C_R   0.345230 0.884653 0.718724 0.527550
C17   C     C_R   0.115359 0.654757 0.718704 0.527631
C18   C     C_R   0.884660 0.345223 0.281264 0.530796
C19   C     C_R   0.345528 0.115641 0.718276 0.527243
C20   C     C_R   0.657761 0.887712 0.275757 0.527254
C21   C     C_R   0.884900 0.344982 0.719109 0.527494
C22   C     C_R   0.115404 0.654712 0.281365 0.530817
C23   C     C_R   0.654618 0.884503 0.718495 0.527389
C24   C     C_R   0.618481 0.881519 0.250000 -0.518844
C25   C     C_R   0.342210 0.112260 0.275691 0.527242
C26   C     C_R   0.615497 0.845382 0.781505 0.527230
C27   C     C_R   0.387743 0.157788 0.224301 0.527266
C28   C     C_R   0.844981 0.384900 0.780890 0.527585
C29   C     C_R   0.154712 0.615404 0.218635 0.530848
C30   C     C_R   0.384359 0.154473 0.781723 0.527403
C31   C     C_R   0.612288 0.842239 0.224243 0.527223
C32   C     C_R   0.154757 0.615360 0.781296 0.527538
C33   C     C_R   0.845223 0.384660 0.218735 0.530766
C34   C     C_R   0.615339 0.154777 0.218735 0.530794
C35   C     C_R   0.881498 0.381498 0.750000 -0.518486
C36   C     C_R   0.384653 0.845230 0.781276 0.527643
C37   C     C_R   0.842239 0.612288 0.224243 0.527254
C38   C     C_R   0.154472 0.384359 0.781724 0.527234
C39   C     C_R   0.384596 0.845288 0.218635 0.530818
C40   C     C_R   0.615100 0.155018 0.780890 0.527493
C41   C     C_R   0.157795 0.387748 0.224317 0.527229
C42   C     C_R   0.845383 0.615498 0.781506 0.527389
C43   C     C_R   0.144538 0.310027 0.275639 0.529506
C44   C     C_R   0.852239 0.686806 0.718576 0.528026
C45   C     C_R   0.313101 0.852334 0.281283 0.530568
C46   C     C_R   0.118501 0.618501 0.250000 -0.520363
C47   C     C_R   0.687205 0.147362 0.719192 0.529225
C48   C     C_R   0.855428 0.689940 0.275715 0.529471
C49   C     C_R   0.147904 0.313337 0.718360 0.528028
C50   C     C_R   0.686964 0.147601 0.281183 0.530503
C51   C     C_R   0.313043 0.852391 0.718806 0.529256
C52   C     C_R   0.147620 0.686945 0.718787 0.529272
C53   C     C_R   0.852399 0.313036 0.281183 0.530503
C54   C     C_R   0.313338 0.147904 0.718360 0.528036
C55   C     C_R   0.689939 0.855428 0.275715 0.529464
C56   C     C_R   0.852638 0.312795 0.719192 0.529229
C57   C     C_R   0.618501 0.881499 0.750000 -0.518030
C58   C     C_R   0.147666 0.686898 0.281283 0.530569
C59   C     C_R   0.686808 0.852240 0.718578 0.528016
C60   C     C_R   0.310031 0.144544 0.275645 0.529486
C61   C     C_R   0.647760 0.813193 0.781422 0.528023
C62   C     C_R   0.355458 0.189967 0.224340 0.529493
C63   C     C_R   0.812795 0.352638 0.780808 0.529226
C64   C     C_R   0.186899 0.647665 0.218717 0.530567
C65   C     C_R   0.352096 0.186663 0.781640 0.528027
C66   C     C_R   0.644572 0.810060 0.224286 0.529472
C67   C     C_R   0.186945 0.647621 0.781213 0.529277
C68   C     C_R   0.381519 0.118481 0.249998 -0.518843
C69   C     C_R   0.813036 0.352399 0.218817 0.530504
C70   C     C_R   0.647601 0.186964 0.218817 0.530501
C71   C     C_R   0.352392 0.813043 0.781193 0.529250
C72   C     C_R   0.810060 0.644572 0.224285 0.529463
C73   C     C_R   0.186662 0.352096 0.781640 0.528035
C74   C     C_R   0.352334 0.813101 0.218717 0.530566
C75   C     C_R   0.647362 0.187205 0.780808 0.529230
C76   C     C_R   0.189973 0.355463 0.224357 0.529502
C77   C     C_R   0.813192 0.647761 0.781423 0.528017
C78   C     C_R   0.183573 0.316428 0.249998 -0.404879
C79   C     C_R   0.282404 0.217600 0.249992 0.247963
C80   C     C_R   0.816406 0.683593 0.750000 -0.404501
C81   C     C_R   0.316407 0.816407 0.250000 -0.405992
C82   C     C_R   0.683594 0.183593 0.750000 -0.405052
C83   C     C_R   0.816427 0.683573 0.250000 -0.404873
C84   C     C_R   0.183593 0.316406 0.750000 -0.404466
C85   C     C_R   0.683593 0.183593 0.250000 -0.405975
C86   C     C_R   0.316407 0.816406 0.750000 -0.405021
C87   C     C_R   0.183593 0.683593 0.750000 -0.405059
C88   C     C_R   0.816407 0.316407 0.250000 -0.405977
C89   C     C_R   0.316407 0.183593 0.750000 -0.404467
C90   C     C_R   0.717607 0.782393 0.750000 0.248937
C91   C     C_R   0.683573 0.816426 0.250000 -0.404874
C92   C     C_R   0.816406 0.316406 0.750000 -0.405051
C93   C     C_R   0.183593 0.683593 0.250000 -0.405992
C94   C     C_R   0.683594 0.816406 0.750000 -0.404499
C95   C     C_R   0.316428 0.183574 0.249992 -0.404857
C96   C     C_R   0.217607 0.717607 0.250000 0.247199
C97   C     C_R   0.881499 0.618501 0.750000 -0.518026
C98   C     C_R   0.782393 0.282393 0.750000 0.248891
C99   C     C_R   0.717597 0.782402 0.250000 0.248029
C100  C     C_R   0.282394 0.217606 0.750000 0.248880
C101  C     C_R   0.782393 0.282393 0.250000 0.247244
C102  C     C_R   0.217606 0.717606 0.750000 0.248816
C103  C     C_R   0.282393 0.782393 0.750000 0.248766
C104  C     C_R   0.717607 0.217607 0.250000 0.247244
C105  C     C_R   0.217606 0.282394 0.750000 0.248880
C106  C     C_R   0.782402 0.717598 0.250000 0.248029
C107  C     C_R   0.717607 0.217607 0.750000 0.248891
C108  C     C_R   0.381499 0.881499 0.250000 -0.520361
C109  C     C_R   0.282393 0.782393 0.250000 0.247199
C110  C     C_R   0.782393 0.717606 0.750000 0.248942
C111  C     C_R   0.217598 0.282404 0.249996 0.247989
C112  C     C_R   0.234094 0.266305 0.206167 -0.084679
C113  C     C_R   0.738363 0.706157 0.743833 -0.086577
C114  C     C_R   0.293830 0.738374 0.256326 -0.083597
C115  C     C_R   0.706237 0.261560 0.742994 -0.085063
C116  C     C_R   0.765962 0.733752 0.206172 -0.084705
C117  C     C_R   0.261665 0.293870 0.744147 -0.086618
C118  C     C_R   0.706184 0.261613 0.256471 -0.083651
C119  C     C_R   0.618502 0.118502 0.750000 -0.518485
C120  C     C_R   0.293818 0.738384 0.743552 -0.085006
C121  C     C_R   0.261615 0.706181 0.743553 -0.085045
C122  C     C_R   0.738387 0.293816 0.256471 -0.083663
C123  C     C_R   0.293870 0.261665 0.744147 -0.086575
C124  C     C_R   0.733752 0.765961 0.206172 -0.084701
C125  C     C_R   0.738440 0.293763 0.742994 -0.085041
C126  C     C_R   0.261626 0.706171 0.256327 -0.083584
C127  C     C_R   0.706157 0.738363 0.743833 -0.086617
C128  C     C_R   0.266304 0.234096 0.206165 -0.084666
C129  C     C_R   0.761637 0.793842 0.756168 -0.086576
C130  C     C_R   0.881519 0.618481 0.250000 -0.518843
C131  C     C_R   0.265910 0.233699 0.293821 -0.084666
C132  C     C_R   0.793763 0.238440 0.757006 -0.085063
C133  C     C_R   0.206171 0.761626 0.243673 -0.083596
C134  C     C_R   0.238335 0.206130 0.755853 -0.086616
C135  C     C_R   0.734038 0.766248 0.293829 -0.084705
C136  C     C_R   0.206181 0.761614 0.756447 -0.085024
C137  C     C_R   0.793816 0.238387 0.243529 -0.083650
C138  C     C_R   0.761613 0.206184 0.243529 -0.083662
C139  C     C_R   0.238384 0.793817 0.756448 -0.085028
C140  C     C_R   0.766248 0.734039 0.293828 -0.084701
C141  C     C_R   0.118500 0.381499 0.750000 -0.517944
C142  C     C_R   0.206130 0.238335 0.755853 -0.086575
C143  C     C_R   0.238374 0.793829 0.243673 -0.083585
C144  C     C_R   0.761560 0.206237 0.757006 -0.085041
C145  C     C_R   0.233699 0.265908 0.293823 -0.084672
C146  C     C_R   0.793843 0.761637 0.756168 -0.086620
C147  C     C_R   0.500000 1.000000 0.120871 0.805956
C148  C     C_R   0.500000 0.000000 0.879129 0.807195
C149  C     C_R   1.000000 0.500000 0.120871 0.805956
C150  C     C_R   1.000000 0.500000 0.879129 0.807200
C151  C     C_R   1.000000 0.500000 0.620871 0.807198
C152  C     C_R   0.618501 0.118501 0.250000 -0.520375
C153  C     C_R   0.000000 0.500000 0.379129 0.805956
C154  C     C_R   0.500000 0.000000 0.620871 0.807196
C155  C     C_R   0.500000 1.000000 0.379129 0.805957
C156  C     C_R   0.415691 0.915691 0.250000 0.960482
C157  C     C_R   0.584310 0.084309 0.750000 0.957152
C158  C     C_R   0.915699 0.584301 0.250000 0.959432
C159  C     C_R   0.084308 0.415692 0.750000 0.957029
C160  C     C_R   0.584309 0.084309 0.250000 0.960430
C161  C     C_R   0.415691 0.915691 0.750000 0.957210
C162  C     C_R   0.084301 0.415699 0.250000 0.959509
C163  C     C_R   0.381499 0.881498 0.750000 -0.518397
C164  C     C_R   0.915692 0.584308 0.750000 0.956975
C165  C     C_R   0.415692 0.084308 0.750000 0.957033
C166  C     C_R   0.584301 0.915699 0.250000 0.959432
C167  C     C_R   0.915690 0.415691 0.750000 0.957152
C168  C     C_R   0.084309 0.584309 0.250000 0.960486
C169  C     C_R   0.584308 0.915692 0.750000 0.956978
C170  C     C_R   0.415699 0.084301 0.250000 0.959498
C171  C     C_R   0.084309 0.584309 0.750000 0.957214
C172  C     C_R   0.915691 0.415691 0.250000 0.960433
C173  C     C_1   0.500000 1.000000 0.430955 -0.071886
C174  C     C_R   0.118501 0.618502 0.750000 -0.518390
C175  C     C_1   0.500000 1.000000 0.569045 -0.069872
C176  C     C_1   1.000000 0.500000 0.430955 -0.071885
C177  C     C_1   0.000000 0.500000 0.569045 -0.069866
C178  C     C_1   1.000000 0.500000 0.930955 -0.069867
C179  C     C_1   0.000000 0.500000 0.069045 -0.071887
C180  C     C_1   0.500000 0.000000 0.930955 -0.069870
C181  C     C_1   0.500000 1.000000 0.069045 -0.071884
C182  C     C_1   0.500000 1.000000 0.474504 0.053193
C183  C     C_1   0.500000 1.000000 0.525496 0.053998
C184  C     C_1   0.000000 0.500000 0.474504 0.053193
F1    F     F_    0.074745 0.334429 0.300449 -0.529281
F2    F     F_    0.918790 0.340752 0.312234 -0.527418
F3    F     F_    0.341381 0.081829 0.686829 -0.531745
F4    F     F_    0.665505 0.925186 0.300602 -0.529290
F5    F     F_    0.919282 0.340257 0.688529 -0.530829
F6    F     F_    0.081343 0.659114 0.312439 -0.527466
F7    F     F_    0.658920 0.918467 0.687275 -0.531424
F8    F     F_    0.334437 0.074758 0.300471 -0.529336
F9    F     F_    0.581533 0.841082 0.812725 -0.531613
F10   F     F_    0.425247 0.165558 0.199524 -0.529276
F11   F     F_    0.840256 0.419282 0.811470 -0.530707
F12   F     F_    0.918465 0.658916 0.687271 -0.531624
F13   F     F_    0.159114 0.581343 0.187561 -0.527440
F14   F     F_    0.418171 0.158620 0.813170 -0.531557
F15   F     F_    0.574815 0.834495 0.199398 -0.529348
F16   F     F_    0.159207 0.581252 0.812299 -0.530997
F17   F     F_    0.840752 0.418790 0.187766 -0.527445
F18   F     F_    0.581210 0.159248 0.187766 -0.527421
F19   F     F_    0.418775 0.840767 0.812258 -0.530865
F20   F     F_    0.834495 0.574814 0.199398 -0.529291
F21   F     F_    0.158619 0.418170 0.813171 -0.531755
F22   F     F_    0.418657 0.840886 0.187561 -0.527469
F23   F     F_    0.340886 0.918657 0.312439 -0.527446
F24   F     F_    0.580718 0.159743 0.811470 -0.530829
F25   F     F_    0.165573 0.425258 0.199553 -0.529336
F26   F     F_    0.841082 0.581535 0.812728 -0.531425
F27   F     F_    0.137238 0.272095 0.299804 -0.556523
F28   F     F_    0.855525 0.720736 0.687143 -0.558622
F29   F     F_    0.279081 0.855719 0.312584 -0.555134
F30   F     F_    0.721536 0.143667 0.688351 -0.556909
F31   F     F_    0.862696 0.727840 0.299954 -0.556559
F32   F     F_    0.144763 0.279553 0.686717 -0.558613
F33   F     F_    0.721050 0.144151 0.312387 -0.555192
F34   F     F_    0.659744 0.080717 0.688530 -0.530707
F35   F     F_    0.278964 0.855835 0.687591 -0.556944
F36   F     F_    0.144189 0.721012 0.687556 -0.556897
F37   F     F_    0.855849 0.278950 0.312387 -0.555186
F38   F     F_    0.279554 0.144763 0.686717 -0.558657
F39   F     F_    0.727840 0.862697 0.299954 -0.556548
F40   F     F_    0.856332 0.278465 0.688351 -0.556939
F41   F     F_    0.144281 0.720919 0.312584 -0.555137
F42   F     F_    0.720739 0.855527 0.687147 -0.558576
F43   F     F_    0.272102 0.137249 0.299820 -0.556542
F44   F     F_    0.644473 0.779262 0.812854 -0.558621
F45   F     F_    0.925185 0.665505 0.300602 -0.529347
F46   F     F_    0.362756 0.227893 0.200162 -0.556535
F47   F     F_    0.778464 0.356333 0.811649 -0.556910
F48   F     F_    0.220919 0.644280 0.187416 -0.555131
F49   F     F_    0.355237 0.220447 0.813283 -0.558613
F50   F     F_    0.637304 0.772160 0.200047 -0.556559
F51   F     F_    0.221012 0.644190 0.812444 -0.556926
F52   F     F_    0.778950 0.355849 0.187613 -0.555192
F53   F     F_    0.644150 0.221050 0.187613 -0.555187
F54   F     F_    0.355836 0.778964 0.812408 -0.556915
F55   F     F_    0.772160 0.637303 0.200046 -0.556548
F56   F     F_    0.081829 0.341380 0.686830 -0.531559
F57   F     F_    0.220446 0.355236 0.813283 -0.558660
F58   F     F_    0.355719 0.779081 0.187416 -0.555138
F59   F     F_    0.643668 0.221535 0.811650 -0.556939
F60   F     F_    0.227906 0.362765 0.200192 -0.556536
F61   F     F_    0.779263 0.644475 0.812856 -0.558575
F62   F     F_    0.659248 0.081210 0.312234 -0.527445
F63   F     F_    0.340767 0.918774 0.687742 -0.530985
F64   F     F_    0.081252 0.659207 0.687701 -0.530878
H1    H     H_    0.221700 0.278369 0.172007 0.189222
H2    H     H_    0.729063 0.327593 0.262006 0.190281
H3    H     H_    0.327695 0.271031 0.739094 0.188725
H4    H     H_    0.721732 0.778396 0.172012 0.189187
H5    H     H_    0.729161 0.327495 0.737043 0.188667
H6    H     H_    0.270962 0.672382 0.261749 0.190327
H7    H     H_    0.672356 0.729021 0.738536 0.188652
H8    H     H_    0.278366 0.221705 0.172004 0.189244
H9    H     H_    0.770979 0.827644 0.761465 0.188677
H10   H     H_    0.278304 0.221638 0.327981 0.189236
H11   H     H_    0.827495 0.229162 0.762957 0.188653
H12   H     H_    0.729021 0.672356 0.738536 0.188674
H13   H     H_    0.172381 0.770962 0.238251 0.190319
H14   H     H_    0.228970 0.172305 0.760905 0.188700
H15   H     H_    0.721603 0.778268 0.327989 0.189187
H16   H     H_    0.172401 0.770940 0.761962 0.188733
H17   H     H_    0.827593 0.229064 0.237993 0.190289
H18   H     H_    0.770937 0.172407 0.237993 0.190282
H19   H     H_    0.229058 0.827597 0.761965 0.188755
H20   H     H_    0.778268 0.721604 0.327988 0.189187
H21   H     H_    0.172304 0.228969 0.760905 0.188725
H22   H     H_    0.229038 0.827618 0.238251 0.190326
H23   H     H_    0.327619 0.729038 0.261749 0.190319
H24   H     H_    0.770839 0.172505 0.762957 0.188667
H25   H     H_    0.221637 0.278300 0.327984 0.189220
H26   H     H_    0.827644 0.770978 0.761465 0.188647
H27   H     H_    0.672505 0.270838 0.737043 0.188653
H28   H     H_    0.778397 0.721731 0.172012 0.189187
H29   H     H_    0.271030 0.327695 0.739095 0.188698
H30   H     H_    0.672407 0.270936 0.262006 0.190288
H31   H     H_    0.327597 0.729058 0.738035 0.188769
H32   H     H_    0.270940 0.672401 0.738038 0.188719
O1    O     O_3   0.500000 1.000000 0.250000 -0.573439
O2    O     O_R   0.500000 0.036340 0.856210 -0.611289
O3    O     O_R   0.963660 0.500000 0.143790 -0.613613
O4    O     O_R   0.036340 0.500000 0.856210 -0.611013
O5    O     O_R   1.000000 0.536340 0.643790 -0.611154
O6    O     O_R   1.000000 0.463660 0.356210 -0.613642
O7    O     O_R   0.536340 1.000000 0.643790 -0.611432
O8    O     O_R   0.463660 0.000000 0.356210 -0.613541
O9    O     O_R   1.000000 0.463660 0.643790 -0.611292
O10   O     O_R   1.000000 0.536340 0.356210 -0.613517
O11   O     O_R   0.463660 1.000000 0.643790 -0.611023
O12   O     O_3   0.500000 1.000000 0.750000 -0.573626
O13   O     O_R   0.536340 0.000000 0.356210 -0.613614
O14   O     O_R   0.448830 0.912520 0.222210 -0.573882
O15   O     O_R   0.551170 0.087480 0.777790 -0.575961
O16   O     O_R   0.912520 0.551170 0.222210 -0.576865
O17   O     O_R   0.087480 0.448830 0.777790 -0.575905
O18   O     O_R   0.551170 0.087480 0.222210 -0.573870
O19   O     O_R   0.448830 0.912520 0.777790 -0.575855
O20   O     O_R   0.087480 0.448830 0.222210 -0.576928
O21   O     O_R   0.912520 0.551170 0.777790 -0.575708
O22   O     O_R   0.448830 0.087480 0.777790 -0.575717
O23   O     O_3   0.000000 0.500000 0.250000 -0.573439
O24   O     O_R   0.551170 0.912520 0.222210 -0.576907
O25   O     O_R   0.912520 0.448830 0.777790 -0.575858
O26   O     O_R   0.087480 0.551170 0.222210 -0.573858
O27   O     O_R   0.551170 0.912520 0.777790 -0.575888
O28   O     O_R   0.448830 0.087480 0.222210 -0.576879
O29   O     O_R   0.087480 0.551170 0.777790 -0.575960
O30   O     O_R   0.912520 0.448830 0.222210 -0.573894
O31   O     O_R   0.948830 0.412520 0.722210 -0.575961
O32   O     O_R   0.051170 0.587480 0.277790 -0.573883
O33   O     O_R   0.412520 0.051170 0.722210 -0.575897
O34   O     O_3   0.000000 0.500000 0.750000 -0.573626
O35   O     O_R   0.587480 0.948830 0.277790 -0.576865
O36   O     O_R   0.051170 0.587480 0.722210 -0.575856
O37   O     O_R   0.948830 0.412520 0.277790 -0.573868
O38   O     O_R   0.587480 0.948830 0.722210 -0.575710
O39   O     O_R   0.412520 0.051170 0.277790 -0.576923
O40   O     O_R   0.948830 0.587480 0.277790 -0.576907
O41   O     O_R   0.051170 0.412520 0.722210 -0.575716
O42   O     O_R   0.412520 0.948830 0.277790 -0.573863
O43   O     O_R   0.587480 0.051170 0.722210 -0.575857
O44   O     O_R   0.051170 0.412520 0.277790 -0.576884
O45   O     O_R   0.500000 0.036340 0.143790 -0.613635
O46   O     O_R   0.948830 0.587480 0.722210 -0.575896
O47   O     O_R   0.587480 0.051170 0.277790 -0.573893
O48   O     O_R   0.412520 0.948830 0.722210 -0.575960
O49   O     O_R   0.500000 0.963660 0.856210 -0.611165
O50   O     O_R   0.036340 0.500000 0.143790 -0.613546
O51   O     O_R   0.963660 0.500000 0.856210 -0.611433
O52   O     O_R   0.500000 0.963660 0.143790 -0.613519
Zn1   Zn    Zn3+2 0.448040 0.000000 0.289870 1.079461
Zn2   Zn    Zn3+2 0.051960 0.500000 0.210130 1.079462
Zn3   Zn    Zn3+2 0.500000 0.051960 0.789870 1.079044
Zn4   Zn    Zn3+2 0.500000 0.948040 0.210130 1.079454
Zn5   Zn    Zn3+2 0.051960 0.500000 0.789870 1.079097
Zn6   Zn    Zn3+2 0.948040 0.500000 0.210130 1.079403
Zn7   Zn    Zn3+2 0.500000 0.948040 0.789870 1.079077
Zn8   Zn    Zn3+2 0.500000 0.051960 0.210130 1.079412
Zn9   Zn    Zn3+2 0.551960 0.000000 0.710130 1.079023
Zn10  Zn    Zn3+2 0.000000 0.551960 0.289870 1.079457
Zn11  Zn    Zn3+2 0.000000 0.448040 0.710130 1.079042
Zn12  Zn    Zn3+2 0.551960 0.000000 0.289870 1.079403
Zn13  Zn    Zn3+2 0.448040 0.000000 0.710130 1.079096
Zn14  Zn    Zn3+2 1.000000 0.448040 0.289870 1.079409
Zn15  Zn    Zn3+2 1.000000 0.551960 0.710130 1.079078
Zn16  Zn    Zn3+2 0.948040 0.500000 0.789870 1.079023

loop_
_geom_bond_atom_site_label_1
_geom_bond_atom_site_label_2
_ccdc_geom_bond_type
C132  C144  A    
C40   F24   S    
C143  H22   S    
C114  H23   S    
C65   C89   A    
C12   C130  A    
C66   F50   S    
C69   F52   S    
C148  O49   A    
C16   F63   S    
O12   Zn7   S    
C53   F37   S    
O1    Zn4   S    
C149  C179  S    
C28   F11   S    
O29   Zn5   S    
C39   C74   A    
C116  H28   S    
C182  C183  S    
C5    C179  T    
C27   C68   A    
C165  O33   A    
C45   F29   S    
C25   C60   A    
C22   F6    S    
C43   F27   S    
C3    C184  S    
C36   C71   A    
C33   C69   A    
C147  C181  S    
C117  C123  A    
C29   C64   A    
C62   C95   A    
O26   Zn2   S    
C17   C52   A    
C161  C163  S    
O38   Zn9   S    
C52   F36   S    
C13   C30   A    
O18   Zn8   S    
C42   C97   A    
C118  H30   S    
C101  C137  A    
C61   C94   A    
C17   F64   S    
C25   F8    S    
C71   F54   S    
C166  O24   A    
C153  O10   A    
C97   C164  S    
C84   C105  S    
C11   F34   S    
C69   C88   A    
C1    C41   A    
C164  O46   A    
C173  C182  T    
C160  O47   A    
C74   C81   A    
C175  C183  T    
O39   Zn1   S    
C162  O44   A    
C176  C184  T    
C139  H19   S    
C58   C93   A    
C45   C81   A    
O2    Zn3   S    
C4    C5    S    
C146  H26   S    
O12   Zn3   S    
C22   C58   A    
C40   C75   A    
C6    C7    S    
C21   C35   A    
O12   Zn9   S    
C101  C122  A    
O24   Zn4   S    
C41   C76   A    
O48   Zn13  S    
O14   Zn4   S    
C26   C57   A    
C24   C31   A    
C74   F58   S    
C60   C95   A    
C40   C119  A    
C159  O41   A    
C44   F28   S    
C172  O37   A    
C1    C8    A    
C10   C108  A    
C111  C112  A    
C16   C51   A    
O34   Zn11  S    
C112  H1    S    
C23   C59   A    
C127  H7    S    
C49   C84   A    
C144  H24   S    
C76   C78   A    
C129  H9    S    
O22   Zn3   S    
C114  C126  A    
C151  C177  S    
C122  H2    S    
C131  H10   S    
C47   F30   S    
C172  O30   A    
C154  O11   A    
O10   Zn10  S    
C59   F42   S    
O35   Zn12  S    
C90   C129  A    
C21   F5    S    
C141  C159  S    
C98   C125  A    
C28   C35   A    
C170  O28   A    
C62   F46   S    
O1    Zn8   S    
C78   C111  S    
C113  H12   S    
C158  O40   A    
C102  C121  A    
C50   C85   A    
C48   F31   S    
O31   Zn11  S    
C151  O5    A    
C147  O52   A    
C100  C134  A    
O41   Zn11  S    
C39   C108  A    
C147  O45   A    
C7    C181  T    
O23   Zn10  S    
C105  C142  A    
C34   C152  A    
C51   F35   S    
C157  O43   A    
C28   C63   A    
C27   C62   A    
C20   F4    S    
C71   C86   A    
O32   Zn10  S    
C15   F62   S    
C119  C157  S    
C79   C131  A    
C10   C45   A    
C149  O3    A    
C72   F55   S    
C96   C126  A    
C126  H6    S    
C27   F10   S    
O51   Zn16  S    
C32   C67   A    
C109  C114  A    
C19   C54   A    
C59   C94   A    
C38   C141  A    
O5    Zn15  S    
C120  C121  A    
C63   F47   S    
O36   Zn15  S    
C23   C57   A    
O42   Zn1   S    
C6    C180  T    
O4    Zn5   S    
C4    C178  T    
C75   C82   A    
C50   F33   S    
C48   C83   A    
C124  H4    S    
C14   F56   S    
C34   F18   S    
C167  O25   A    
C37   F20   S    
C131  C145  A    
C30   C65   A    
O47   Zn12  S    
C42   C77   A    
C98   C132  A    
C159  O17   A    
C91   C99   S    
C155  O8    A    
C110  C146  A    
C70   C85   A    
O49   Zn7   S    
C70   F53   S    
C2    C172  S    
C99   C124  A    
O12   Zn13  S    
C30   F14   S    
O7    Zn9   S    
C38   F21   S    
C12   F45   S    
C11   C47   A    
C103  C120  A    
C8    C43   A    
C12   C48   A    
C31   F15   S    
C43   C78   A    
C46   C168  S    
C65   F49   S    
C26   C61   A    
C136  H16   S    
C39   F22   S    
O28   Zn8   S    
C55   C91   A    
C18   C53   A    
C19   F3    S    
C165  O22   A    
C68   C170  S    
O44   Zn14  S    
C90   C127  A    
C140  H20   S    
C36   F19   S    
O34   Zn15  S    
C34   C70   A    
C42   F26   S    
C148  C180  S    
C105  C117  A    
C25   C68   A    
C136  C139  A    
C51   C86   A    
C15   C152  A    
C90   C94   S    
C104  C118  A    
C52   C87   A    
C135  C140  A    
C171  C174  S    
O43   Zn9   S    
C61   F44   S    
C13   C19   A    
C89   C100  S    
O16   Zn6   S    
C44   C80   A    
C64   F48   S    
C120  H31   S    
C32   C174  A    
C171  O29   A    
O1    Zn12  S    
C167  O31   A    
C106  C116  A    
C168  O32   A    
C133  H13   S    
C79   C95   S    
C134  C142  A    
C106  C140  A    
C153  C176  S    
C99   C135  A    
C109  C143  A    
C150  O4    A    
C129  C146  A    
C66   C91   A    
C85   C104  S    
O33   Zn13  S    
C169  O38   A    
O11   Zn13  S    
C2    C33   A    
C22   C46   A    
C81   C109  S    
O23   Zn14  S    
O1    Zn1   S    
O34   Zn5   S    
O27   Zn7   S    
C17   C174  A    
C55   F39   S    
C77   C80   A    
C9    C97   A    
C116  C124  A    
C149  O50   A    
C21   C56   A    
C83   C106  S    
C156  O14   A    
C29   C46   A    
C130  C158  S    
C100  C123  A    
C157  O15   A    
C142  H21   S    
C158  O16   A    
C164  O21   A    
C32   F16   S    
C3    C177  T    
C102  C136  A    
C112  C128  A    
C72   C83   A    
C54   F38   S    
C73   F57   S    
C37   C72   A    
C153  O6    A    
O23   Zn2   S    
C107  C144  A    
C26   F9    S    
C31   C66   A    
C79   C128  A    
C152  C160  S    
C135  H15   S    
C2    C18   A    
O19   Zn7   S    
O13   Zn12  S    
C24   C166  S    
O46   Zn15  S    
C121  H32   S    
O6    Zn14  S    
C11   C119  A    
C23   F7    S    
C88   C101  S    
C9    F12   S    
C92   C98   S    
C49   F32   S    
C67   F51   S    
C148  O2    A    
C154  C175  S    
C155  O13   A    
C168  O26   A    
C76   F60   S    
C64   C93   A    
C111  C145  A    
C118  C122  A    
C15   C50   A    
C14   C49   A    
C166  O35   A    
C37   C130  A    
C47   C82   A    
O21   Zn16  S    
C160  O18   A    
C117  H29   S    
C128  H8    S    
O8    Zn1   S    
C13   C165  S    
C170  O39   A    
C20   C24   A    
C108  C156  S    
C63   C92   A    
C35   C167  S    
C73   C84   A    
C150  C178  S    
C41   F25   S    
C155  C173  S    
C14   C141  A    
C134  H14   S    
C137  H17   S    
C20   C55   A    
C86   C103  S    
O40   Zn10  S    
C169  O27   A    
C132  H11   S    
C57   C169  S    
C16   C163  A    
C133  C143  A    
C54   C89   A    
C56   F40   S    
C138  H18   S    
C161  O48   A    
C18   F2    S    
C151  O9    A    
O15   Zn3   S    
C145  H25   S    
C10   F23   S    
C123  H3    S    
C103  C139  A    
C36   C163  A    
C87   C102  S    
O17   Zn5   S    
C154  O7    A    
C82   C107  S    
C125  H5    S    
C58   F41   S    
C110  C113  A    
C107  C115  A    
C150  O51   A    
C93   C96   S    
C29   F13   S    
O23   Zn6   S    
O25   Zn16  S    
C161  O19   A    
O30   Zn6   S    
C162  O20   A    
O37   Zn14  S    
C9    C44   A    
O3    Zn6   S    
O52   Zn4   S    
C1    C162  S    
C156  O42   A    
C96   C133  A    
C113  C127  A    
C8    F1    S    
C137  C138  A    
C67   C87   A    
C115  C125  A    
C60   F43   S    
O20   Zn2   S    
O9    Zn11  S    
O45   Zn8   S    
C171  O36   A    
C33   F17   S    
C104  C138  A    
C53   C88   A    
C77   F61   S    
C75   F59   S    
C115  H27   S    
C56   C92   A    
O50   Zn2   S    
C80   C110  S    
O34   Zn16  S    
C38   C73   A    
