data_mof_unit_62927.cif
_audit_creation_date              2012-12-11T16:01:48-0500
_audit_creation_method            fapswitch 2.2
_symmetry_space_group_name_H-M    P1
_symmetry_Int_Tables_number       1
_space_group_crystal_system       triclinic
_cell_length_a                    6.969541
_cell_length_b                    20.131109
_cell_length_c                    21.721911
_cell_angle_alpha                 92.824138
_cell_angle_beta                  88.713279
_cell_angle_gamma                 90.852501
_cell_volume                      3042.92526924

loop_
_atom_site_label
_atom_site_type_symbol
_atom_type_description
_atom_site_fract_x
_atom_site_fract_y
_atom_site_fract_z
_atom_type_partial_charge
O1    O     O_R   0.616490 0.310280 0.688420 -0.520378
O2    O     O_R   0.383510 0.689720 0.311580 -0.520377
O3    O     O_R   0.286290 0.319340 0.804930 -0.522925
O4    O     O_R   0.713710 0.680660 0.195070 -0.522925
O5    O     O_R   0.115970 0.195830 0.805340 -0.529177
O6    O     O_R   0.884030 0.804170 0.194660 -0.529178
C1    C     C_R   0.454695 0.337117 0.827594 0.719708
C2    C     C_R   0.545305 0.662883 0.172406 0.719708
O7    O     O_R   0.286780 0.317900 0.688830 -0.521052
O8    O     O_R   0.713220 0.682100 0.311170 -0.521052
O9    O     O_R   0.116460 0.194390 0.688410 -0.520634
O10   O     O_R   0.883540 0.805610 0.311590 -0.520634
C3    C     C_R   0.458089 0.335655 0.666365 0.698290
C4    C     C_R   0.541911 0.664345 0.333635 0.698289
O11   O     O_R   0.616000 0.311730 0.805350 -0.519363
O12   O     O_R   0.384000 0.688270 0.194650 -0.519363
O13   O     O_3   0.449750 0.212530 0.746880 -0.352335
O14   O     O_3   0.550250 0.787470 0.253120 -0.352335
V1    V     V_3+5 0.174900 0.260570 0.746880 1.420139
V2    V     V_3+5 0.825100 0.739430 0.253120 1.420137
O15   O     O_R   0.786740 0.186770 0.688820 -0.522347
O16   O     O_R   0.213260 0.813230 0.311180 -0.522346
C5    C     C_R   0.956241 0.168652 0.666638 0.717487
C6    C     C_R   0.043759 0.831348 0.333362 0.717486
O17   O     O_R   0.786260 0.188210 0.804930 -0.530647
O18   O     O_R   0.213740 0.811790 0.195070 -0.530647
C7    C     C_R   0.952271 0.173516 0.824579 0.742275
C8    C     C_R   0.047729 0.826484 0.175421 0.742277
V3    V     V_3+5 0.674900 0.245540 0.746880 1.428084
V4    V     V_3+5 0.325100 0.754460 0.253120 1.428083
O19   O     O_3   0.949920 0.293580 0.746880 -0.358753
O20   O     O_3   0.050080 0.706420 0.253120 -0.358752
C9    C     C_3   0.114835 0.027296 0.042313 0.388125
C10   C     C_3   0.885163 0.972704 0.957688 0.388121
C11   C     C_3   0.919264 0.056605 0.026308 -0.317624
C12   C     C_3   0.080733 0.943396 0.973692 -0.317622
H1    H     H_    0.852613 0.102368 0.047177 0.151382
H2    H     H_    0.147384 0.897633 0.952824 0.151383
C13   C     C_1   0.953862 0.127406 0.870478 -0.185448
C14   C     C_1   0.046137 0.872595 0.129522 -0.185451
C15   C     C_3   0.167043 0.014635 0.974015 0.123834
C16   C     C_3   0.832954 0.985365 0.025986 0.123837
C17   C     C_3   0.973156 0.042864 0.957217 0.047833
C18   C     C_3   0.026842 0.957137 0.042783 0.047832
C19   C     C_1   0.957525 0.088834 0.909738 0.037167
C20   C     C_1   0.042473 0.911166 0.090262 0.037159
C21   C     C_1   0.032039 0.884037 0.384694 -0.207379
C22   C     C_1   0.967961 0.115963 0.615306 -0.207379
C23   C     C_1   0.020626 0.927339 0.427543 0.006032
C24   C     C_1   0.979374 0.072661 0.572457 0.006032
C25   C     C_1   0.006186 0.978460 0.478493 0.004774
C26   C     C_1   0.993814 0.021540 0.521507 0.004774
C27   C     C_1   0.464886 0.388487 0.880483 -0.214447
C28   C     C_1   0.535114 0.611513 0.119517 -0.214447
C29   C     C_1   0.476893 0.430229 0.924811 0.004823
C30   C     C_1   0.523107 0.569771 0.075188 0.004823
C31   C     C_1   0.493015 0.479351 0.977695 0.001360
C32   C     C_1   0.506985 0.520649 0.022305 0.001360
C33   C     C_1   0.472498 0.387100 0.614814 -0.206072
C34   C     C_1   0.527502 0.612900 0.385186 -0.206072
C35   C     C_1   0.483016 0.429020 0.572307 0.014037
C36   C     C_1   0.516984 0.570980 0.427693 0.014037
C37   C     C_1   0.495033 0.479097 0.521308 -0.000642
C38   C     C_1   0.504966 0.520903 0.478692 -0.000642
O21   O     O_3   0.237521 0.054165 0.087341 -0.641875
H3    H     H_    0.273045 0.099130 0.073880 0.294997
O22   O     O_3   0.762476 0.945835 0.912659 -0.641874
H4    H     H_    0.726955 0.900870 0.926120 0.294998
N1    N     N_3   0.651202 0.966843 0.055259 -0.649639
H5    H     H_    0.556449 0.005305 0.048884 0.276027
H6    H     H_    0.672307 0.967202 0.102746 0.244365
N2    N     N_3   0.348795 0.033157 0.944742 -0.649644
H7    H     H_    0.443558 0.994702 0.951125 0.276035
H8    H     H_    0.327695 0.032787 0.897255 0.244370

loop_
_geom_bond_atom_site_label_1
_geom_bond_atom_site_label_2
_ccdc_geom_bond_type
O13   V3    S    
C10   C16   S    
O4    C2    A    
V1    O19   S    
C9    O21   S    
C21   C23   T    
C14   C20   T    
O9    V1    S    
C11   H1    S    
O3    C1    A    
C8    C14   S    
O12   V4    S    
C34   C36   T    
C35   C37   S    
C11   C16   S    
O7    C3    A    
C36   C38   S    
O13   V1    S    
O5    C7    A    
O7    V1    S    
O6    C8    A    
O8    V2    S    
C9    C18   S    
C24   C26   S    
O3    V1    S    
O14   V4    S    
C11   C17   S    
C10   C12   S    
C13   C19   T    
C22   C24   T    
C2    O12   A    
C15   C17   S    
C12   C15   S    
C16   C18   S    
C18   C20   S    
O11   V3    S    
C27   C29   T    
O15   C5    A    
O17   V3    S    
C28   C30   T    
C33   C35   T    
N1    H6    S    
C7    C13   S    
O22   H4    S    
N2    H8    S    
O8    C4    A    
C2    C28   S    
C1    O11   A    
C23   C25   S    
O15   V3    S    
C16   N1    S    
C25   C26   T    
O10   V2    S    
O1    V3    S    
C17   C19   S    
C15   N2    S    
C3    C33   S    
O18   V4    S    
C29   C31   S    
O16   C6    A    
C12   C18   S    
O1    C3    A    
C1    C27   S    
C4    C34   S    
V2    O20   S    
C5    C22   S    
O16   V4    S    
C6    C21   S    
C10   C17   S    
N2    H7    S    
C10   O22   S    
O5    V1    S    
O17   C7    A    
O6    V2    S    
O10   C6    A    
O18   C8    A    
O2    V4    S    
C9    C15   S    
C12   H2    S    
V3    O19   S    
V4    O20   S    
C31   C32   T    
O9    C5    A    
C9    C11   S    
C30   C32   S    
O14   V2    S    
N1    H5    S    
O2    C4    A    
C37   C38   T    
O4    V2    S    
O21   H3    S    
