data_mof_unit_45601.cif
_audit_creation_date              2012-12-10T16:51:33-0500
_audit_creation_method            fapswitch 2.2
_symmetry_space_group_name_H-M    P1
_symmetry_Int_Tables_number       1
_space_group_crystal_system       triclinic
_cell_length_a                    7.848351
_cell_length_b                    8.611402
_cell_length_c                    12.083682
_cell_angle_alpha                 92.900775
_cell_angle_beta                  100.784874
_cell_angle_gamma                 93.440008
_cell_volume                      799.214739238

loop_
_atom_site_label
_atom_site_type_symbol
_atom_type_description
_atom_site_fract_x
_atom_site_fract_y
_atom_site_fract_z
_atom_type_partial_charge
Br1   Br    Br    0.473850 0.302622 0.364742 -0.357644
Br2   Br    Br    0.643129 0.144627 0.761680 -0.571561
Br3   Br    Br    0.865238 0.713263 0.849268 -0.503368
Br4   Br    Br    0.367803 0.640003 0.222683 -0.532809
C1    C     C_R   0.041695 0.794016 0.494807 0.876255
C2    C     C_R   0.163393 0.521999 0.834230 -0.166887
C3    C     C_2   0.065481 0.956810 0.517065 -0.038938
C4    C     C_R   0.106811 0.509245 0.711117 0.879173
C5    C     C_2   0.927343 0.042427 0.484396 -0.005784
C6    C     C_R   0.956085 0.205596 0.502866 0.959848
C7    C     C_R   0.894333 0.492851 0.289777 0.874763
C8    C     C_R   0.818372 0.303436 0.001850 -0.135304
C9    C     C_R   0.838498 0.470153 0.169352 -0.069472
C10   C     C_R   0.078778 0.617577 0.902177 0.220954
C11   C     C_R   0.151677 0.649765 0.014896 -0.185687
C12   C     C_R   0.406493 0.509156 0.992514 0.024994
C13   C     C_R   0.312746 0.598677 0.061432 0.218990
C14   C     C_3   0.618157 0.962150 0.459948 -0.554718
C15   C     C_3   0.180014 0.980575 0.716048 -0.705965
C16   C     C_R   0.319088 0.456123 0.882729 -0.030772
C17   C     C_R   0.580341 0.466879 0.026678 0.097993
C18   C     C_R   0.651515 0.353148 0.961586 0.117425
C19   C     C_R   0.554212 0.290427 0.859046 0.234179
C20   C     C_R   0.389830 0.339424 0.822121 -0.210925
C21   C     C_R   0.689484 0.538247 0.121665 -0.147867
C22   C     C_R   0.908193 0.356888 0.108072 -0.189754
H1    H     H_    0.026961 0.305172 0.144065 0.190209
H2    H     H_    0.630343 0.865327 0.516977 0.238292
H3    H     H_    0.325449 0.977659 0.589924 0.265367
H4    H     H_    0.296741 0.018971 0.780326 0.259949
H5    H     H_    0.155580 0.853274 0.722317 0.244888
H6    H     H_    0.067812 0.042073 0.735839 0.263690
H7    H     H_    0.529990 0.622789 0.585779 0.176501
H8    H     H_    0.875829 0.216379 0.955713 0.196631
H9    H     H_    0.660049 0.644139 0.162620 0.178496
H10   H     H_    0.081869 0.717650 0.067349 0.197402
H11   H     H_    0.317355 0.283295 0.744472 0.210487
H12   H     H_    0.782143 0.896311 0.349927 0.230530
H13   H     H_    0.501086 0.935353 0.392856 0.250618
H14   H     H_    0.598985 0.068528 0.510146 0.273922
N1    N     N_2   0.434800 0.456690 0.470850 0.090733
N2    N     N_2   0.565200 0.543310 0.529150 -0.096025
N3    N     N_2   0.770490 0.983806 0.409025 -0.311526
N4    N     N_2   0.208134 0.014041 0.604012 -0.306825
O1    O     O_R   0.893060 0.738880 0.507150 -0.615100
O2    O     O_R   0.172250 0.711130 0.488470 -0.619852
O3    O     O_R   0.944700 0.520730 0.667600 -0.557393
O4    O     O_R   0.223890 0.492980 0.648920 -0.633669
O5    O     O_R   0.827750 0.288870 0.511530 -0.572148
O6    O     O_R   0.106940 0.261120 0.492850 -0.603129
O7    O     O_R   0.776110 0.507020 0.351080 -0.561771
O8    O     O_R   0.055300 0.479270 0.332400 -0.576179
Zn1   Zn    Zn3+2 0.813580 0.518530 0.512470 1.051452
Zn2   Zn    Zn3+2 0.186420 0.481470 0.487530 1.037334

loop_
_geom_bond_atom_site_label_1
_geom_bond_atom_site_label_2
_ccdc_geom_bond_type
C2    C4    S    
C14   H13   S    
C4    O4    A    
N1    N2    D    
C11   C13   A    
C12   C17   A    
C2    C10   A    
C2    C16   A    
C5    C6    S    
C15   H4    S    
C12   C16   A    
O3    Zn1   S    
C15   H5    S    
O2    Zn2   S    
C20   H11   S    
C4    O3    A    
O1    Zn1   S    
H12   N3    S    
N2    Zn1   S    
C17   C18   A    
O4    Zn2   S    
C7    C9    S    
C9    C21   A    
C22   H1    S    
O6    Zn2   S    
Br3   C10   S    
C21   H9    S    
O5    Zn1   S    
H7    N2    S    
Br1   N1    S    
O8    Zn2   S    
C18   C19   A    
H3    N4    S    
N1    Zn2   S    
C9    C22   A    
C5    N3    S    
C7    O7    A    
C15   H6    S    
C19   C20   A    
C8    H8    S    
C6    O6    A    
C8    C18   A    
C11   H10   S    
C14   H2    S    
C15   N4    S    
C3    C5    D    
C1    O2    A    
Br2   C19   S    
C1    C3    S    
C17   C21   A    
C10   C11   A    
C14   H14   S    
C7    O8    A    
C3    N4    S    
C14   N3    S    
C6    O5    A    
C1    O1    A    
C16   C20   A    
C8    C22   A    
C12   C13   A    
O7    Zn1   S    
Br4   C13   S    
