data_mof_unit_30579.cif
_audit_creation_date              2012-10-26T18:29:02-0400
_audit_creation_method            fapswitch 2.2
_symmetry_space_group_name_H-M    P1
_symmetry_Int_Tables_number       1
_space_group_crystal_system       triclinic
_cell_length_a                    11.821229
_cell_length_b                    12.959966
_cell_length_c                    15.839791
_cell_angle_alpha                 94.975855
_cell_angle_beta                  73.320264
_cell_angle_gamma                 98.323089
_cell_volume                      2297.49436657

loop_
_atom_site_label
_atom_site_type_symbol
_atom_type_description
_atom_site_fract_x
_atom_site_fract_y
_atom_site_fract_z
_atom_type_partial_charge
C1    C     C_R   0.519914 0.699527 0.500373 0.540074
C2    C     C_R   0.460662 0.032742 0.400481 -0.148932
C3    C     C_R   0.547783 0.862118 0.582307 -0.159569
C4    C     C_R   0.453092 0.137993 0.416992 -0.159818
C5    C     C_R   0.502219 0.866924 0.441762 0.003078
C6    C     C_R   0.497930 0.132947 0.557756 0.003421
C7    C     C_R   0.491179 0.974670 0.459735 0.048834
C8    C     C_R   0.509442 0.025318 0.539588 0.048848
C9    C     C_R   0.931965 0.599303 0.583780 -0.181675
C10   C     C_R   0.068015 0.400670 0.416261 -0.181751
C11   C     C_R   0.817106 0.589867 0.574870 0.028745
C12   C     C_R   0.480184 0.300455 0.499416 0.540212
C13   C     C_R   0.182875 0.410109 0.425158 0.028939
C14   C     C_R   0.862492 0.452754 0.464706 0.162446
C15   C     C_R   0.137508 0.547244 0.535307 0.162951
C16   C     C_R   0.427146 0.495927 0.668044 0.533060
C17   C     C_R   0.572935 0.505590 0.332034 0.532500
C18   C     C_R   0.982384 0.462785 0.469821 0.015986
C19   C     C_R   0.017610 0.537211 0.530201 0.016445
C20   C     C_R   0.384969 0.498496 0.765006 -0.007829
C21   C     C_R   0.615708 0.514457 0.235749 -0.008145
C22   C     C_R   0.229297 0.507962 0.902168 -0.135260
C23   C     C_R   0.358361 0.524474 0.090047 -0.143345
C24   C     C_R   0.773863 0.539808 0.100343 -0.136308
C25   C     C_R   0.264834 0.501288 0.810199 -0.143483
C26   C     C_R   0.737181 0.529730 0.191425 -0.143824
C27   C     C_R   0.468758 0.502383 0.812779 -0.141092
C28   C     C_R   0.531720 0.510248 0.188096 -0.140968
C29   C     C_R   0.436252 0.514234 0.905268 0.029187
C30   C     C_R   0.566144 0.524070 0.096867 0.028383
C31   C     C_R   0.313768 0.514194 0.949894 0.051924
C32   C     C_R   0.689553 0.536381 0.052802 0.051534
C33   C     C_R   0.521656 0.524421 0.954429 0.031215
C34   C     C_R   0.645846 0.538196 0.913211 -0.141922
C35   C     C_R   0.481461 0.523519 0.048154 0.030508
C36   C     C_3   0.505267 0.187469 0.646116 -0.282398
C37   C     C_3   0.392097 0.157151 0.719691 -0.443289
C38   C     C_3   0.493969 0.812096 0.353686 -0.282760
C39   C     C_3   0.607280 0.840957 0.279825 -0.442221
C40   C     C_3   0.175821 0.634018 0.596447 -0.231831
C41   C     C_3   0.193313 0.741754 0.557970 -0.428446
C42   C     C_3   0.824172 0.365964 0.403589 -0.231930
C43   C     C_3   0.806646 0.258245 0.442105 -0.428407
C44   C     C_R   0.276684 0.520717 0.041646 -0.136998
C45   C     C_R   0.727748 0.544928 0.961755 -0.136696
C46   C     C_R   0.474234 0.188287 0.493217 0.019277
C47   C     C_R   0.526039 0.811683 0.506325 0.019302
C48   C     C_R   0.540372 0.967372 0.598708 -0.149038
Cu1   Cu    Cu3+1 0.386820 0.492450 0.493500 0.900469
Cu2   Cu    Cu3+1 0.613180 0.507550 0.506500 0.900030
H1    H     H_    0.183407 0.522197 0.076502 0.101037
H2    H     H_    0.198594 0.498499 0.774644 0.121985
H3    H     H_    0.135695 0.509010 0.936096 0.098208
H4    H     H_    0.868339 0.550241 0.066939 0.098076
H5    H     H_    0.322022 0.531588 0.160592 0.101492
H6    H     H_    0.683383 0.547510 0.843412 0.098964
H7    H     H_    0.434033 0.181495 0.368258 0.112835
H8    H     H_    0.567098 0.818715 0.630989 0.113733
H9    H     H_    0.557344 0.001198 0.659243 0.116166
H10   H     H_    0.444149 0.999029 0.339774 0.116038
H11   H     H_    0.400255 0.197541 0.782832 0.142534
H12   H     H_    0.821958 0.555847 0.927464 0.100425
H13   H     H_    0.314185 0.181423 0.704200 0.160648
H14   H     H_    0.376277 0.071761 0.728318 0.151503
H15   H     H_    0.585200 0.170629 0.663185 0.126302
H16   H     H_    0.516081 0.273530 0.644911 0.175932
H17   H     H_    0.684768 0.815882 0.295346 0.160590
H18   H     H_    0.598429 0.800323 0.216924 0.145658
H19   H     H_    0.624244 0.926266 0.270752 0.150900
H20   H     H_    0.481850 0.726056 0.355362 0.177156
H21   H     H_    0.414360 0.829700 0.336593 0.125933
H22   H     H_    0.107511 0.766892 0.558370 0.134062
H23   H     H_    0.245954 0.360874 0.384323 0.125128
H24   H     H_    0.236775 0.800679 0.597792 0.138742
H25   H     H_    0.250345 0.740836 0.488793 0.176735
H26   H     H_    0.110946 0.632768 0.662800 0.085322
H27   H     H_    0.256850 0.624018 0.612143 0.211555
H28   H     H_    0.763186 0.199304 0.402294 0.138720
H29   H     H_    0.892436 0.233100 0.441729 0.134230
H30   H     H_    0.749604 0.259193 0.511279 0.177087
H31   H     H_    0.743161 0.375984 0.387873 0.212060
H32   H     H_    0.889058 0.367181 0.337243 0.087048
H33   H     H_    0.754011 0.639076 0.615729 0.125146
H34   H     H_    0.950713 0.656236 0.633300 0.094388
H35   H     H_    0.049251 0.343706 0.366768 0.095251
H36   H     H_    0.439311 0.493421 0.223425 0.122367
H37   H     H_    0.559185 0.494197 0.776238 0.123069
H38   H     H_    0.803611 0.533403 0.226919 0.124698
N1    N     N_R   0.216750 0.481110 0.483710 -0.226607
N2    N     N_R   0.783250 0.518890 0.516290 -0.226547
O1    O     O_R   0.419950 0.645670 0.495380 -0.526601
O2    O     O_R   0.580050 0.354330 0.504620 -0.526146
O3    O     O_R   0.611110 0.658410 0.506370 -0.496106
O4    O     O_R   0.388890 0.341590 0.493630 -0.495540
O5    O     O_R   0.350820 0.490050 0.621260 -0.518240
O6    O     O_R   0.649180 0.509950 0.378740 -0.519282
O7    O     O_R   0.541970 0.502800 0.632250 -0.512841
O8    O     O_R   0.458030 0.497200 0.367750 -0.513245

loop_
_geom_bond_atom_site_label_1
_geom_bond_atom_site_label_2
_ccdc_geom_bond_type
C21   C26   A    
C38   H20   S    
C10   H35   S    
C34   H6    S    
C27   C29   A    
C32   C45   A    
C14   C18   A    
C2    C7    A    
C42   H32   S    
C8    C48   A    
C7    C8    A    
C4    C46   A    
C43   H28   S    
C15   C19   A    
C5    C47   A    
C30   C35   A    
C36   C37   S    
C24   C26   A    
C38   C39   S    
C36   H16   S    
C16   O7    A    
C15   N1    A    
C20   C25   A    
C24   H4    S    
C29   C33   A    
C3    C48   A    
C18   C19   A    
C39   H18   S    
C14   N2    A    
Cu1   O8    S    
C9    C19   A    
Cu2   O7    S    
C22   C25   A    
C4    H7    S    
Cu1   O4    S    
C17   O8    A    
C14   C42   S    
C41   H24   S    
C1    O1    A    
C5    C38   S    
C12   O4    A    
C42   H31   S    
Cu1   O1    S    
C37   H13   S    
Cu2   N2    S    
C22   H3    S    
C22   C31   A    
C26   H38   S    
C12   C46   S    
C31   C44   A    
C34   C45   A    
C36   H15   S    
C1    C47   S    
C6    C8    A    
C11   H33   S    
C43   H30   S    
C17   C21   S    
C23   C44   A    
C40   H26   S    
C2    C4    A    
C24   C32   A    
C41   H25   S    
C16   C20   S    
C33   C34   A    
C39   H19   S    
C17   O6    A    
C45   H12   S    
Cu1   O5    S    
C27   H37   S    
C9    C11   A    
C41   H22   S    
C44   H1    S    
Cu2   O2    S    
C40   C41   S    
C21   C28   A    
C13   H23   S    
C23   C35   A    
C28   H36   S    
C42   C43   S    
C37   H14   S    
C48   H9    S    
C5    C7    A    
C38   H21   S    
C16   O5    A    
C6    C46   A    
C13   N1    A    
C39   H17   S    
C12   O2    A    
Cu1   N1    S    
C10   C13   A    
C37   H11   S    
Cu2   O3    S    
C23   H5    S    
C20   C27   A    
C28   C30   A    
C25   H2    S    
C29   C31   A    
C30   C32   A    
C11   N2    A    
Cu2   O6    S    
C10   C18   A    
C3    C47   A    
C33   C35   A    
C6    C36   S    
C2    H10   S    
C15   C40   S    
C9    H34   S    
C3    H8    S    
C1    O3    A    
Cu1   Cu2   S    
C40   H27   S    
C43   H29   S    
