data_mof_unit_51462.cif
_audit_creation_date              2012-10-26T21:10:48-0400
_audit_creation_method            fapswitch 2.2
_symmetry_space_group_name_H-M    P1
_symmetry_Int_Tables_number       1
_space_group_crystal_system       triclinic
_cell_length_a                    10.903666
_cell_length_b                    14.763238
_cell_length_c                    14.878109
_cell_angle_alpha                 65.122196
_cell_angle_beta                  105.038918
_cell_angle_gamma                 103.253965
_cell_volume                      2078.51433871

loop_
_atom_site_label
_atom_site_type_symbol
_atom_type_description
_atom_site_fract_x
_atom_site_fract_y
_atom_site_fract_z
_atom_type_partial_charge
C1    C     C_R   0.478637 0.119414 0.311904 0.560588
C2    C     C_R   0.630434 0.779006 0.972981 -0.018758
C3    C     C_R   0.401126 0.151939 0.124940 0.271845
C4    C     C_R   0.598824 0.848088 0.875055 0.271869
C5    C     C_R   0.502128 0.290052 0.178064 -0.131708
C6    C     C_R   0.497811 0.709963 0.821941 -0.131707
C7    C     C_R   0.477623 0.360623 0.078012 0.040371
C8    C     C_R   0.522279 0.639402 0.922001 0.040345
C9    C     C_R   0.405069 0.324326 0.003266 0.022351
C10   C     C_R   0.594822 0.675706 0.996749 0.022519
C11   C     C_R   0.519281 0.466125 0.050579 0.072452
C12   C     C_R   0.521358 0.880589 0.688096 0.560557
C13   C     C_R   0.480605 0.533901 0.949440 0.072470
C14   C     C_R   0.400876 0.493979 0.879439 -0.053685
C15   C     C_R   0.599006 0.506050 0.120584 -0.053637
C16   C     C_R   0.262892 0.998471 0.502842 0.552292
C17   C     C_R   0.737114 0.001518 0.497172 0.552263
C18   C     C_R   0.367106 0.391149 0.905356 -0.058285
C19   C     C_R   0.632775 0.608885 0.094663 -0.057848
C20   C     C_R   0.724198 0.291558 0.661168 -0.041868
C21   C     C_R   0.275775 0.708435 0.338853 -0.041702
C22   C     C_R   0.691961 0.210816 0.631024 0.401813
C23   C     C_R   0.870667 0.002023 0.495315 0.004381
C24   C     C_R   0.308039 0.789190 0.368976 0.401791
C25   C     C_R   0.513946 0.283064 0.513314 0.045232
C26   C     C_R   0.486014 0.716914 0.486714 0.045387
C27   C     C_R   0.551219 0.373241 0.533445 -0.050109
C28   C     C_R   0.448718 0.626731 0.466595 -0.049923
C29   C     C_R   0.651296 0.371219 0.616317 -0.033590
C30   C     C_R   0.348652 0.628759 0.383719 -0.033233
C31   C     C_R   0.488586 0.462033 0.479117 -0.062195
C32   C     C_R   0.511339 0.537934 0.520926 -0.062243
C33   C     C_R   0.593490 0.520693 0.616331 0.242606
C34   C     C_R   0.129346 0.997955 0.504709 0.004375
C35   C     C_R   0.406437 0.479274 0.383713 0.242850
C36   C     C_R   0.671899 0.444641 0.657424 0.291153
C37   C     C_R   0.328040 0.555332 0.342618 0.291648
C38   C     C_R   0.318981 0.057083 0.794561 0.310844
C39   C     C_R   0.680815 0.941631 0.206015 0.310893
C40   C     C_R   0.233111 0.019706 0.726307 -0.090785
C41   C     C_R   0.766535 0.979454 0.274007 -0.090303
C42   C     C_R   0.189435 0.085392 0.628073 -0.000138
C43   C     C_R   0.810582 0.914103 0.372317 -0.000107
C44   C     C_R   0.229055 0.189326 0.599212 -0.134527
C45   C     C_R   0.904649 0.954637 0.441974 -0.020961
C46   C     C_R   0.771496 0.810067 0.401506 -0.134744
C47   C     C_R   0.317121 0.226550 0.666614 -0.142241
C48   C     C_R   0.683565 0.772401 0.334367 -0.142327
C49   C     C_R   0.365164 0.160601 0.763295 0.281351
C50   C     C_R   0.635108 0.838015 0.237622 0.280598
C51   C     C_R   0.966835 0.047682 0.551716 -0.119257
C52   C     C_R   0.033189 0.952290 0.448323 -0.119308
C53   C     C_R   0.095370 0.045264 0.558116 -0.020921
C54   C     C_R   0.461584 0.186453 0.203340 -0.006195
C55   C     C_R   0.538385 0.813559 0.796659 -0.006207
C56   C     C_R   0.369462 0.221029 0.027029 -0.019092
Cl1   Cl    Cl    0.485252 0.209361 0.841967 -0.456132
Cl2   Cl    Cl    0.638160 0.025102 0.080935 -0.331417
Cl3   Cl    Cl    0.636832 0.975510 0.858463 -0.372745
Cl4   Cl    Cl    0.363151 0.024533 0.141509 -0.372666
Cl5   Cl    Cl    0.515107 0.788746 0.159292 -0.457561
Cl6   Cl    Cl    0.787923 0.436551 0.768257 -0.458002
Cl7   Cl    Cl    0.212025 0.563426 0.231779 -0.457523
Cl8   Cl    Cl    0.206000 0.881790 0.310269 -0.516735
Cl9   Cl    Cl    0.794024 0.118232 0.689716 -0.516800
Cl10  Cl    Cl    0.583537 0.577221 0.697787 -0.599094
Cl11  Cl    Cl    0.416388 0.422752 0.302253 -0.598741
Cl12  Cl    Cl    0.361316 0.973163 0.919507 -0.331892
Cu1   Cu    Cu3+1 0.466270 0.918260 0.475690 1.070262
Cu2   Cu    Cu3+1 0.533730 0.081740 0.524310 1.070239
H1    H     H_    0.574700 0.728233 0.535659 0.190259
H2    H     H_    0.638184 0.460080 0.196544 0.139708
H3    H     H_    0.806230 0.290117 0.720864 0.207123
H4    H     H_    0.193746 0.709880 0.279155 0.207096
H5    H     H_    0.193318 0.241115 0.524285 0.148426
H6    H     H_    0.807563 0.758532 0.476487 0.148661
H7    H     H_    0.348866 0.306728 0.643341 0.147004
H8    H     H_    0.652231 0.692140 0.357902 0.147079
H9    H     H_    0.308661 0.363771 0.848433 0.143297
H10   H     H_    0.691226 0.636266 0.151588 0.143688
H11   H     H_    0.449885 0.686060 0.761209 0.170473
H12   H     H_    0.425255 0.271735 0.464378 0.190194
H13   H     H_    0.550064 0.313948 0.238793 0.170467
H14   H     H_    0.198662 0.939740 0.750160 0.149955
H15   H     H_    0.800617 0.059495 0.249878 0.149980
H16   H     H_    0.942532 0.083215 0.593738 0.201159
H17   H     H_    0.057500 0.916722 0.406341 0.201142
H18   H     H_    0.316341 0.193544 0.968908 0.190609
H19   H     H_    0.683521 0.806501 0.031104 0.190902
H20   H     H_    0.361698 0.539949 0.803485 0.139701
N1    N     N_R   0.584450 0.204570 0.560790 -0.239936
N2    N     N_R   0.415550 0.795430 0.439210 -0.239982
O1    O     O_R   0.455540 0.022090 0.338120 -0.419356
O2    O     O_R   0.544460 0.977910 0.661880 -0.419410
O3    O     O_R   0.512510 0.160150 0.379180 -0.514721
O4    O     O_R   0.487490 0.839850 0.620820 -0.514744
O5    O     O_R   0.291160 0.930970 0.479480 -0.469256
O6    O     O_R   0.708840 0.069030 0.520520 -0.469191
O7    O     O_R   0.348130 0.069020 0.520540 -0.514381
O8    O     O_R   0.651870 0.930980 0.479460 -0.514378

loop_
_geom_bond_atom_site_label_1
_geom_bond_atom_site_label_2
_ccdc_geom_bond_type
C8    C13   A    
C23   C45   A    
C27   C29   A    
C40   H14   S    
Cu2   N1    S    
C6    C55   A    
Cu1   O4    S    
C46   H6    S    
C47   C49   A    
C38   C49   A    
C15   C19   A    
C15   H2    S    
C29   C36   A    
C43   C46   A    
C17   C23   S    
C35   C37   A    
Cu1   O1    S    
C42   C53   S    
C5    H13   S    
C3    C54   A    
C16   O5    A    
C56   H18   S    
C26   N2    A    
C33   C36   A    
C49   Cl1   S    
C48   H8    S    
C14   C18   A    
C14   H20   S    
C2    H19   S    
C16   C34   S    
C11   C15   A    
C18   H9    S    
C22   N1    A    
Cu1   N2    S    
C17   O6    A    
C44   C47   A    
C3    Cl4   S    
C40   C42   A    
C24   Cl8   S    
C6    H11   S    
C13   C14   A    
C26   H1    S    
C41   C43   A    
C12   O2    A    
C19   H10   S    
C42   C44   A    
C36   Cl6   S    
C24   N2    A    
C51   H16   S    
C37   Cl7   S    
C33   Cl10  S    
C7    C11   A    
C20   C29   A    
C46   C48   A    
C25   N1    A    
C27   C31   A    
C5    C54   A    
C28   C32   A    
C39   C41   A    
C5    C7    A    
C6    C8    A    
C45   C52   A    
C39   Cl2   S    
C21   H4    S    
C30   C37   A    
C51   C53   A    
C44   H5    S    
C2    C4    A    
C1    C54   S    
C22   Cl9   S    
C3    C56   A    
C23   C51   A    
C31   C32   A    
C35   Cl11  S    
C10   C19   A    
C1    O3    A    
C9    C56   A    
C43   C45   S    
C1    O1    A    
C38   Cl12  S    
C4    C55   A    
C25   H12   S    
C31   C35   A    
C47   H7    S    
C2    C10   A    
Cu2   O7    S    
C7    C9    A    
Cu2   O2    S    
C26   C28   A    
C52   H17   S    
C20   C22   A    
C16   O7    A    
C25   C27   A    
C41   H15   S    
C21   C30   A    
C34   C52   A    
C32   C33   A    
C28   C30   A    
Cu2   O3    S    
C38   C40   A    
C11   C13   A    
C4    Cl3   S    
C48   C50   A    
C20   H3    S    
Cu1   Cu2   S    
C17   O8    A    
C12   C55   S    
Cu1   O8    S    
C9    C18   A    
C39   C50   A    
C34   C53   A    
C8    C10   A    
C21   C24   A    
C50   Cl5   S    
C12   O4    A    
Cu2   O6    S    
Cu1   O5    S    
