data_mof_unit_20601.cif
_audit_creation_date              2013-03-05T16:33:14-0500
_audit_creation_method            fapswitch 2.2
_symmetry_space_group_name_H-M    P1
_symmetry_Int_Tables_number       1
_space_group_crystal_system       triclinic
_cell_length_a                    27.818763
_cell_length_b                    10.820726
_cell_length_c                    9.529395
_cell_angle_alpha                 89.872443
_cell_angle_beta                  90.147714
_cell_angle_gamma                 90.05542
_cell_volume                      2868.51300683

loop_
_atom_site_label
_atom_site_type_symbol
_atom_site_description
_atom_site_fract_x
_atom_site_fract_y
_atom_site_fract_z
_atom_type_partial_charge
O1    O     O_R   0.500000 0.319640 0.618810 -0.586349
O2    O     O_R   0.500010 0.319680 0.381230 -0.583931
C1    C     C_R   0.501062 0.262239 0.500057 0.806326
O3    O     O_R   0.430260 0.500000 0.618780 -0.573595
O4    O     O_R   0.430270 0.500040 0.381190 -0.568766
C2    C     C_R   0.407482 0.500320 0.499940 0.806891
Cu1   Cu    Cu3+1 0.500000 0.499980 0.640670 0.966323
Cu2   Cu    Cu3+1 0.500000 0.500020 0.359330 0.964107
O5    O     O_R   0.499990 0.680320 0.618770 -0.575801
O6    O     O_R   0.500000 0.680360 0.381190 -0.586733
O7    O     O_R   0.569730 0.499960 0.618810 -0.580637
O8    O     O_R   0.569740 0.500000 0.381220 -0.586659
C3    C     C_R   0.500896 0.737715 0.499733 0.808502
C4    C     C_R   0.592513 0.500108 0.499990 0.804982
C5    C     C_R   0.177444 0.404336 0.550051 0.547063
O9    O     O_2   0.202410 0.307271 0.601346 -0.526914
N1    N     N_R   0.201397 0.504720 0.497802 -0.463869
C6    C     C_R   0.177181 0.604851 0.445761 0.563392
C7    C     C_R   0.278412 0.578307 0.596914 -0.031005
C8    C     C_R   0.329063 0.577692 0.597002 -0.109870
C9    C     C_R   0.328025 0.428140 0.404934 -0.065343
C10   C     C_R   0.277917 0.431199 0.404896 -0.133705
C11   C     C_R   0.253037 0.505581 0.499570 0.284303
C12   C     C_R   0.101277 0.504701 0.499192 -0.044486
C13   C     C_R   0.127001 0.402390 0.551758 -0.020495
C14   C     C_R   0.101976 0.300821 0.605337 -0.133202
C15   C     C_R   0.126706 0.607210 0.446820 -0.040855
C16   C     C_R   0.354285 0.502294 0.500293 -0.138925
H1    H     H_    0.257793 0.374238 0.331915 0.156611
H2    H     H_    0.120889 0.220233 0.644357 0.192666
C17   C     C_R   0.645385 0.499928 0.499092 -0.047392
C18   C     C_R   0.974395 0.407339 0.570368 0.043364
C19   C     C_R   0.973972 0.595614 0.424567 0.034308
C20   C     C_R   0.948943 0.500693 0.496870 0.076445
C21   C     C_R   0.947918 0.320496 0.650068 -0.196179
C22   C     C_R   0.897945 0.322085 0.651530 -0.131278
C23   C     C_R   0.872538 0.409425 0.572629 -0.021484
C24   C     C_R   0.897933 0.498299 0.494109 -0.045932
C25   C     C_R   0.872286 0.584333 0.412064 -0.023005
C26   C     C_R   0.821841 0.582337 0.413447 0.547260
N2    N     N_R   0.797895 0.497231 0.493455 -0.470210
C27   C     C_R   0.822093 0.410563 0.570856 0.549917
C28   C     C_R   0.720430 0.457750 0.379245 -0.097258
C29   C     C_R   0.670340 0.458534 0.380268 -0.212160
C30   C     C_R   0.671319 0.542070 0.616105 -0.244761
C31   C     C_R   0.721553 0.542183 0.615245 0.020018
C32   C     C_R   0.746302 0.499000 0.496394 0.307804
O10   O     O_2   0.797360 0.325724 0.645586 -0.529466
C33   C     C_R   0.025253 0.403521 0.561105 0.049861
C34   C     C_R   0.050256 0.504689 0.499848 0.062959
C35   C     C_R   0.024733 0.606253 0.440843 -0.010873
C36   C     C_R   0.052086 0.301255 0.610283 -0.192726
H3    H     H_    0.651149 0.425406 0.288734 0.159340
H4    H     H_    0.739268 0.424655 0.287415 0.154731
H5    H     H_    0.879283 0.253894 0.714579 0.190927
H6    H     H_    0.964913 0.251995 0.715788 0.146589
H7    H     H_    0.035407 0.218270 0.649819 0.150097
O11   O     O_2   0.201930 0.701814 0.393398 -0.523307
C37   C     C_R   0.101502 0.711931 0.402744 -0.169758
H8    H     H_    0.120954 0.794570 0.371890 0.194949
C38   C     C_R   0.947458 0.672340 0.332640 -0.185732
C39   C     C_R   0.897512 0.668443 0.328510 -0.133616
O12   O     O_2   0.796893 0.665467 0.336692 -0.524835
C40   C     C_R   0.051360 0.714436 0.404070 -0.038750
H9    H     H_    0.964761 0.732702 0.258047 0.161712
H10   H     H_    0.652577 0.577037 0.706938 0.148317
H11   H     H_    0.878776 0.731156 0.258532 0.193595
C41   C     C_R   0.513204 0.063107 0.623571 0.099994
C42   C     C_R   0.506288 0.129195 0.498997 -0.113060
C43   C     C_R   0.506825 0.064691 0.370928 -0.178968
H12   H     H_    0.504636 0.112906 0.271377 0.180532
C44   C     C_R   0.506766 0.935931 0.370595 -0.201235
H13   H     H_    0.504679 0.888320 0.270879 0.166638
C45   C     C_R   0.505936 0.870692 0.498331 -0.089666
C46   C     C_R   0.512601 0.935850 0.622981 0.091187
C47   C     C_3   0.486533 0.928478 0.759610 -0.475893
C48   C     C_3   0.487548 0.069258 0.761133 -0.228700
H14   H     H_    0.449678 0.890215 0.747690 0.219746
H15   H     H_    0.508581 0.883274 0.842653 0.192616
H16   H     H_    0.451520 0.113333 0.754518 0.153575
C49   C     C_R   0.520767 0.595075 0.073745 0.249819
N3    N     N_R   0.500300 0.500930 0.147930 -0.191931
C50   C     C_R   0.475187 0.413490 0.074422 -0.039588
H17   H     H_    0.456253 0.341464 0.130187 0.161345
C51   C     C_R   0.474865 0.414070 0.925458 -0.034145
H18   H     H_    0.455210 0.343281 0.869561 0.135477
N4    N     N_R   0.500310 0.500890 0.852020 -0.187131
C52   C     C_R   0.520999 0.594651 0.926238 0.261381
C53   C     C_3   0.572543 0.631977 0.921683 -0.505299
C54   C     C_3   0.572075 0.634250 0.080800 -0.479892
H19   H     H_    0.595842 0.557640 0.879715 0.220008
H20   H     H_    0.577712 0.724657 0.873518 0.196684
H21   H     H_    0.595866 0.563081 0.128337 0.223063
H22   H     H_    0.576141 0.728684 0.124997 0.198603
C55   C     C_1   0.351333 0.343046 0.310428 0.279439
N5    N     N_1   0.369755 0.274303 0.234907 -0.296130
C56   C     C_1   0.252092 0.651973 0.697576 0.298008
N6    N     N_1   0.231025 0.710754 0.777915 -0.240435
C57   C     C_1   0.747236 0.588632 0.735853 0.276336
N7    N     N_1   0.767863 0.625855 0.832575 -0.245587
C58   C     C_1   0.029645 0.835008 0.387452 0.232998
N8    N     N_1   0.012523 0.931869 0.374650 -0.270616
C59   C     C_1   0.518554 0.119565 0.872577 0.289611
N9    N     N_1   0.542989 0.158895 0.960261 -0.297203
C60   C     C_1   0.354774 0.656522 0.694711 0.289163
N10   N     N_1   0.375202 0.719288 0.772934 -0.284240

loop_
_geom_bond_atom_site_label_1
_geom_bond_atom_site_label_2
_geom_bond_distance
_ccdc_geom_bond_type
N4    C52   1.364104 A    
C58   N8    1.157753 T    
C10   H1    1.084529 S    
N2    C27   1.368302 A    
C55   N5    1.157098 T    
C12   C15   1.406309 A    
C4    C17   1.470875 S    
C31   C57   1.442801 S    
C49   N3    1.363631 A    
C7    C56   1.449067 S    
Cu1   Cu2   2.680998 S    
C30   C31   1.397498 A    
C41   C46   1.377127 A    
Cu1   O7    1.951490 S    
C37   C40   1.395266 A    
N1    C11   1.436638 S    
C26   O12   1.349614 S    
C39   H11   1.083392 S    
Cu2   N3    2.014556 S    
C22   C23   1.397652 A    
C1    C42   1.447152 S    
C47   H14   1.110986 S    
C24   C25   1.407876 A    
O7    C4    1.299023 A    
C5    C13   1.403535 A    
C5    O9    1.349752 S    
C56   N6    1.157300 T    
Cu1   O5    1.962074 S    
C23   C27   1.403449 A    
O5    C3    1.292310 A    
C29   H3    1.083039 S    
C6    O11   1.349763 S    
Cu1   N4    2.014081 S    
C50   H17   1.079839 S    
C41   C42   1.397488 A    
C47   H15   1.112667 S    
C43   H12   1.083245 S    
C53   H19   1.109432 S    
C37   H8    1.085177 S    
O1    Cu1   1.962958 S    
C9    C10   1.394375 A    
C38   C39   1.390490 A    
O3    Cu1   1.950731 S    
C54   H22   1.111664 S    
C51   N4    1.368106 A    
C12   C34   1.419382 A    
C40   C58   1.446474 S    
C2    C16   1.480076 S    
C17   C29   1.404152 A    
C6    C15   1.404480 A    
C18   C21   1.414492 A    
C12   C13   1.409198 A    
C44   C45   1.406003 A    
C45   C46   1.394557 A    
C25   C26   1.403547 A    
C8    C16   1.419514 A    
C34   C35   1.422939 A    
C13   C14   1.396823 A    
C51   H18   1.081176 S    
N3    C50   1.368615 A    
O1    C1    1.292522 A    
C21   C22   1.390427 A    
C18   C20   1.417037 A    
C7    C11   1.406007 A    
C46   C47   1.493894 S    
C23   C24   1.407822 A    
C14   C36   1.388796 A    
C28   H4    1.082948 S    
C57   N7    1.157371 T    
Cu2   O8    1.950725 S    
C33   C36   1.413826 A    
N1    C6    1.367848 A    
N2    C32   1.435743 S    
C27   O10   1.349703 S    
C47   C48   1.523678 S    
C53   H20   1.111352 S    
C49   C54   1.489926 S    
O3    C2    1.296268 A    
C26   N2    1.368014 A    
C50   C51   1.419543 A    
C9    C16   1.414896 A    
O8    C4    1.295632 A    
C14   H2    1.083486 S    
C28   C29   1.393521 A    
C48   C59   1.471420 S    
C59   N9    1.157351 T    
C54   H21   1.110932 S    
C8    C60   1.450888 S    
C48   H16   1.111942 S    
C41   C48   1.495837 S    
C5    N1    1.367378 A    
C25   C39   1.397568 A    
C31   C32   1.407867 A    
C21   H6    1.078074 S    
C20   C24   1.419426 A    
O2    Cu2   1.962077 S    
C35   C40   1.428165 A    
C44   H13   1.083314 S    
O6    C3    1.290288 A    
O4    Cu2   1.951492 S    
C19   C35   1.424798 A    
C9    C55   1.444699 S    
C60   N10   1.157240 T    
C7    C8    1.409074 A    
O2    C1    1.290786 A    
C22   H5    1.083447 S    
C15   C37   1.396408 A    
O4    C2    1.298515 A    
C19   C38   1.412558 A    
C19   C20   1.418603 A    
C42   C43   1.407390 A    
C18   C33   1.418407 A    
C49   C52   1.405699 A    
C36   H7    1.078038 S    
C38   H9    1.078277 S    
C52   C53   1.490009 S    
Cu2   O6    1.962957 S    
C33   C34   1.421521 A    
C17   C30   1.403301 A    
C30   H10   1.080933 S    
C10   C11   1.395819 A    
C43   C44   1.393289 A    
C53   C54   1.516636 S    
C28   C32   1.400351 A    
C3    C45   1.445623 S    
