data_mof_unit_66930.cif
_audit_creation_date              2013-03-05T15:57:28-0500
_audit_creation_method            fapswitch 2.2
_symmetry_space_group_name_H-M    P1
_symmetry_Int_Tables_number       1
_space_group_crystal_system       triclinic
_cell_length_a                    17.309553
_cell_length_b                    18.747347
_cell_length_c                    8.560852
_cell_angle_alpha                 89.499002
_cell_angle_beta                  102.19369
_cell_angle_gamma                 90.998809
_cell_volume                      2714.94212675

loop_
_atom_site_label
_atom_site_type_symbol
_atom_site_description
_atom_site_fract_x
_atom_site_fract_y
_atom_site_fract_z
_atom_type_partial_charge
P1    P     P_3+3 0.834140 0.419320 0.003900 0.476109
P2    P     P_3+3 0.834140 0.580680 0.503900 0.499495
P3    P     P_3+3 0.334140 0.919320 0.003900 0.478293
P4    P     P_3+3 0.334140 0.080680 0.503900 0.515790
O1    O     O_2   0.841960 0.394640 0.833410 -0.421295
O2    O     O_2   0.841960 0.605360 0.333410 -0.350489
O3    O     O_2   0.341960 0.894640 0.833410 -0.413096
O4    O     O_2   0.341960 0.105360 0.333410 -0.361496
O5    O     O_3   0.907950 0.463080 0.102990 -0.389952
O6    O     O_3   0.907950 0.536920 0.602990 -0.397554
O7    O     O_3   0.407950 0.963080 0.102990 -0.394196
O8    O     O_3   0.407950 0.036920 0.602990 -0.373543
O9    O     O_3   0.972780 0.329600 0.629720 -0.449336
O10   O     O_3   0.972780 0.670400 0.129720 -0.318563
O11   O     O_3   0.472780 0.829600 0.629720 -0.447889
O12   O     O_3   0.472780 0.170400 0.129720 -0.336399
O13   O     O_2   0.842946 0.273324 0.701253 -0.402288
O14   O     O_2   0.845064 0.730055 0.192871 -0.420486
O15   O     O_2   0.341384 0.775714 0.700232 -0.386853
O16   O     O_2   0.349657 0.235677 0.199850 -0.419242
O17   O     O_3   0.749330 0.472015 0.954028 -0.577598
O18   O     O_3   0.756254 0.519045 0.446674 -0.543317
O19   O     O_3   0.250327 0.973266 0.954682 -0.579634
O20   O     O_3   0.256254 0.019143 0.443745 -0.543915
O21   O     O_3   0.939144 0.183046 0.623277 -0.521966
O22   O     O_3   0.951828 0.817561 0.123543 -0.519996
O23   O     O_3   0.435269 0.682668 0.627393 -0.523973
O24   O     O_3   0.456019 0.319256 0.108696 -0.623841
H1    H     H_    0.041191 0.233303 0.568249 -0.008107
H2    H     H_    0.040495 0.769005 0.026104 0.005498
H3    H     H_    0.540200 0.728671 0.577271 -0.016944
H4    H     H_    0.562952 0.269500 0.195563 0.111955
C1    C     C_3   0.070082 0.138600 0.695648 -0.991338
C2    C     C_3   0.084867 0.862217 0.157250 -0.943846
C3    C     C_3   0.562191 0.630536 0.698250 -0.939072
C4    C     C_3   0.586206 0.374946 0.124188 -1.091264
H5    H     H_    0.567611 0.652724 0.819105 0.291483
H6    H     H_    0.649597 0.360985 0.150828 0.260080
H7    H     H_    0.078115 0.165054 0.812639 0.300595
H8    H     H_    0.102814 0.833333 0.272498 0.277089
H9    H     H_    0.047856 0.083655 0.707592 0.259033
H10   H     H_    0.066935 0.916885 0.179582 0.267161
H11   H     H_    0.537991 0.575279 0.696017 0.292050
H12   H     H_    0.575434 0.405812 0.225661 0.234520
P5    P     P_3+3 0.165830 0.418670 0.685610 0.433675
P6    P     P_3+3 0.165830 0.581330 0.185610 0.485843
P7    P     P_3+3 0.665830 0.918670 0.685610 0.431612
P8    P     P_3+3 0.665830 0.081330 0.185610 0.483217
P9    P     P_3+3 0.097840 0.262704 0.115240 0.435447
P10   P     P_3+3 0.104110 0.734760 0.612086 0.458071
P11   P     P_3+3 0.597042 0.762038 0.115411 0.440631
P12   P     P_3+3 0.603425 0.235750 0.611904 0.482988
O25   O     O_2   0.157990 0.394030 0.856030 -0.366683
O26   O     O_2   0.157990 0.605970 0.356030 -0.397996
O27   O     O_2   0.657990 0.894030 0.856030 -0.372118
O28   O     O_2   0.657990 0.105970 0.356030 -0.405402
O29   O     O_3   0.027110 0.329490 0.059550 -0.401164
O30   O     O_3   0.027110 0.670510 0.559550 -0.383983
O31   O     O_3   0.527110 0.829490 0.059550 -0.398108
O32   O     O_3   0.527110 0.170510 0.559550 -0.369317
O33   O     O_2   0.150794 0.264570 0.990313 -0.397278
O34   O     O_2   0.160429 0.726665 0.495402 -0.377341
O35   O     O_2   0.649007 0.762185 0.988546 -0.392268
O36   O     O_2   0.655450 0.232871 0.485615 -0.405544
O37   O     O_3   0.249881 0.473318 0.754298 -0.574139
O38   O     O_3   0.247651 0.524627 0.224623 -0.602442
O39   O     O_3   0.746406 0.977265 0.749431 -0.583953
O40   O     O_3   0.747997 0.024989 0.228535 -0.601147
O41   O     O_3   0.046097 0.181068 0.083074 -0.566618
O42   O     O_3   0.063695 0.818304 0.565921 -0.559860
O43   O     O_3   0.544004 0.680846 0.087529 -0.566540
O44   O     O_3   0.562205 0.320720 0.586796 -0.533375
C5    C     C_3   0.964444 0.194918 0.047166 0.388891
C6    C     C_3   0.981303 0.809899 0.531844 0.394858
C7    C     C_3   0.462498 0.695369 0.058073 0.388406
C8    C     C_3   0.479680 0.314375 0.538427 0.318076
H13   H     H_    0.948914 0.225878 0.934219 0.154157
H14   H     H_    0.961463 0.777649 0.422185 0.153411
H15   H     H_    0.444883 0.725654 0.944440 0.149035
H16   H     H_    0.464073 0.302330 0.409219 0.113004
H17   H     H_    0.946865 0.224744 0.145592 -0.039407
H18   H     H_    0.959890 0.784445 0.633249 0.001936
H19   H     H_    0.447490 0.726205 0.157665 -0.047667
H20   H     H_    0.454020 0.272008 0.604693 0.037922
C9    C     C_3   0.916728 0.125550 0.023842 0.196356
C10   C     C_3   0.945436 0.882361 0.502337 0.156612
C11   C     C_3   0.414112 0.626257 0.041117 0.192764
C12   C     C_3   0.441086 0.383766 0.570462 0.134805
H21   H     H_    0.350730 0.639552 0.001443 0.043818
H22   H     H_    0.380147 0.383782 0.498032 0.015977
H23   H     H_    0.853596 0.138492 0.977982 0.044138
H24   H     H_    0.880811 0.873629 0.463064 0.027400
C13   C     C_3   0.224131 0.452197 0.217994 0.405878
C14   C     C_3   0.256092 0.530316 0.651464 0.250067
C15   C     C_3   0.726485 0.952153 0.213535 0.376804
C16   C     C_3   0.756430 0.025169 0.629012 0.347282
H25   H     H_    0.223178 0.434021 0.340025 0.067810
H26   H     H_    0.259574 0.580758 0.719643 0.093493
H27   H     H_    0.729253 0.929824 0.333778 0.058513
H28   H     H_    0.754150 0.080304 0.673326 0.083345
H29   H     H_    0.166230 0.440025 0.139836 0.191511
H30   H     H_    0.206956 0.530896 0.548588 0.162782
H31   H     H_    0.667519 0.940006 0.139637 0.193530
H32   H     H_    0.712474 0.017116 0.517713 0.155303
C17   C     C_3   0.283015 0.407903 0.154569 -0.960462
C18   C     C_3   0.331250 0.525535 0.591148 -0.749233
C19   C     C_3   0.785239 0.912640 0.139424 -0.924374
C20   C     C_3   0.837071 0.016907 0.593290 -0.896897
H33   H     H_    0.337823 0.402691 0.243758 0.227666
H34   H     H_    0.381531 0.512093 0.688095 0.297116
H35   H     H_    0.844151 0.914154 0.216109 0.278299
H36   H     H_    0.880247 0.000328 0.700750 0.294906
H37   H     H_    0.258790 0.353262 0.128795 0.270506
H38   H     H_    0.343667 0.576144 0.533240 0.252929
H39   H     H_    0.766377 0.855956 0.122397 0.257908
H40   H     H_    0.856711 0.067323 0.544069 0.269820
H41   H     H_    0.296470 0.432594 0.045236 0.290336
H42   H     H_    0.323288 0.483147 0.502697 0.202615
H43   H     H_    0.790294 0.937737 0.024925 0.292691
H44   H     H_    0.833071 0.975203 0.503628 0.205810
Ba1   Ba    Ba6+2 0.000000 0.447380 0.844850 1.570570
Ba2   Ba    Ba6+2 0.000000 0.552620 0.344850 1.569984
Ba3   Ba    Ba6+2 0.500000 0.947380 0.844850 1.573989
Ba4   Ba    Ba6+2 0.500000 0.052620 0.344850 1.576253
C21   C     C_3   0.763055 0.544580 0.989845 0.432803
C22   C     C_3   0.746482 0.477493 0.578094 0.358408
C23   C     C_3   0.266678 0.045685 0.988829 0.435192
C24   C     C_3   0.243671 0.977980 0.573726 0.408220
H45   H     H_    0.763706 0.574598 0.878615 -0.038954
H46   H     H_    0.768363 0.423345 0.566473 0.135374
H47   H     H_    0.271151 0.074421 0.878129 -0.036220
H48   H     H_    0.264514 0.923270 0.563321 0.129009
H49   H     H_    0.818414 0.556424 0.076141 0.163956
H50   H     H_    0.776857 0.500190 0.692981 0.101460
H51   H     H_    0.320842 0.056139 0.079103 0.157191
H52   H     H_    0.273545 0.999981 0.689450 0.107612
C25   C     C_3   0.693355 0.572041 0.051356 -0.862740
C26   C     C_3   0.659782 0.469307 0.577939 -0.865155
C27   C     C_3   0.197321 0.076761 0.045017 -0.883570
C28   C     C_3   0.156120 0.971945 0.568372 -0.978686
H53   H     H_    0.637697 0.557037 0.967385 0.252063
H54   H     H_    0.631968 0.434160 0.478197 0.274362
H55   H     H_    0.142353 0.064145 0.957228 0.252165
H56   H     H_    0.128128 0.939347 0.463958 0.307908
H57   H     H_    0.697816 0.630869 0.060389 0.247316
H58   H     H_    0.651045 0.444684 0.691342 0.280039
H59   H     H_    0.205123 0.135395 0.055054 0.250176
H60   H     H_    0.144997 0.946051 0.678814 0.263217
H61   H     H_    0.691614 0.548189 0.169111 0.276194
H62   H     H_    0.631943 0.522092 0.562300 0.249232
H63   H     H_    0.192207 0.053414 0.161671 0.273615
H64   H     H_    0.130399 0.025653 0.555664 0.247288
O45   O     O_3   0.092100 0.536880 0.086720 -0.370428
O46   O     O_3   0.092100 0.463120 0.586720 -0.462371
O47   O     O_3   0.592100 0.036880 0.086720 -0.373200
O48   O     O_3   0.592100 0.963120 0.586720 -0.461523
P13   P     P_3+3 0.901267 0.736380 0.074554 0.478293
P14   P     P_3+3 0.895828 0.266487 0.578051 0.414220
P15   P     P_3+3 0.402784 0.237734 0.075119 0.451091
P16   P     P_3+3 0.394875 0.767049 0.578753 0.421012
C29   C     C_3   0.011800 0.180732 0.573352 1.026416
C30   C     C_3   0.017033 0.821969 0.048480 1.010383
C31   C     C_3   0.507838 0.677131 0.578526 1.029015
C32   C     C_3   0.535401 0.306867 0.099135 0.987154
H65   H     H_    0.622211 0.630601 0.671446 0.178278
H66   H     H_    0.575407 0.408505 0.015185 0.256765
H67   H     H_    0.128582 0.137536 0.662112 0.192175
H68   H     H_    0.136664 0.866616 0.100421 0.206740
H69   H     H_    0.419949 0.599521 0.159737 0.103342
H70   H     H_    0.434149 0.384122 0.696245 0.076376
H71   H     H_    0.919717 0.098709 0.141329 0.083964
H72   H     H_    0.958784 0.911355 0.617792 0.103285
C33   C     C_R   0.142631 0.676059 0.922853 0.195177
C34   C     C_R   0.144391 0.325779 0.420230 0.182139
C35   C     C_R   0.647477 0.173260 0.918890 0.273538
C36   C     C_R   0.645371 0.826403 0.418763 0.185274
C37   C     C_R   0.835951 0.337560 0.280944 0.129339
C38   C     C_R   0.857846 0.674650 0.769233 0.174592
C39   C     C_R   0.335411 0.838201 0.281751 0.136100
C40   C     C_R   0.358062 0.174579 0.767769 0.186057
C41   C     C_R   0.791422 0.214812 0.299507 -0.158757
C42   C     C_R   0.790826 0.784936 0.798870 -0.219264
C43   C     C_R   0.289835 0.715852 0.300270 -0.163081
C44   C     C_R   0.288917 0.283309 0.801712 -0.252737
C45   C     C_R   0.835495 0.274006 0.370730 0.080301
C46   C     C_R   0.845392 0.732248 0.862972 0.151603
C47   C     C_R   0.334617 0.774685 0.371373 0.076750
C48   C     C_R   0.344031 0.230817 0.865266 0.129738
C49   C     C_R   0.810917 0.336518 0.114158 0.245264
C50   C     C_R   0.813160 0.665103 0.612245 0.089992
C51   C     C_R   0.309748 0.837270 0.115094 0.238761
C52   C     C_R   0.313416 0.165596 0.611230 0.127935
C53   C     C_R   0.760552 0.278734 0.043770 -0.173397
C54   C     C_R   0.755421 0.718827 0.547616 -0.092004
C55   C     C_R   0.257911 0.780282 0.045657 -0.156552
C56   C     C_R   0.255070 0.218772 0.547945 -0.112184
C57   C     C_R   0.245059 0.719784 0.142364 -0.149114
C58   C     C_R   0.243287 0.279141 0.644321 -0.102894
C59   C     C_R   0.747509 0.218360 0.140768 -0.161560
C60   C     C_R   0.744494 0.779985 0.642552 -0.111026
C61   C     C_R   0.186441 0.666543 0.078682 0.169529
C62   C     C_R   0.186211 0.333260 0.579524 0.163320
C63   C     C_R   0.689080 0.165131 0.076769 0.152812
C64   C     C_R   0.687439 0.834082 0.577803 0.152578
C65   C     C_R   0.159330 0.731189 0.823765 0.090078
C66   C     C_R   0.156540 0.268215 0.325299 0.127894
C67   C     C_R   0.664448 0.228109 0.819179 0.163782
C68   C     C_R   0.656864 0.768286 0.324563 0.125003
C69   C     C_R   0.215043 0.783800 0.886002 -0.229555
C70   C     C_R   0.209495 0.214417 0.390590 -0.281524
C71   C     C_R   0.718652 0.281636 0.883171 -0.167479
C72   C     C_R   0.709365 0.714167 0.390637 -0.277580
H73   H     H_    0.287757 0.668592 0.371727 0.185533
H74   H     H_    0.283148 0.327977 0.875895 0.206637
H75   H     H_    0.789636 0.167384 0.371176 0.186324
H76   H     H_    0.785615 0.830090 0.871860 0.199854
H77   H     H_    0.723084 0.327258 0.808195 0.199937
H78   H     H_    0.713971 0.668577 0.318123 0.198789
H79   H     H_    0.220853 0.828767 0.809959 0.207731
H80   H     H_    0.214936 0.169419 0.316941 0.199283
O49   O     O_3   0.999510 0.148321 0.423396 -0.841524
H81   H     H_    0.050453 0.151254 0.387900 0.292006
O50   O     O_3   0.994409 0.858507 0.903369 -0.831191
H82   H     H_    0.040775 0.858720 0.852129 0.283884
O51   O     O_3   0.494275 0.645935 0.427166 -0.827440
H83   H     H_    0.545242 0.648043 0.391531 0.288994
O52   O     O_3   0.538562 0.278236 0.950502 -0.754199
H84   H     H_    0.508737 0.310710 0.868931 0.302970
O53   O     O_3   0.078155 0.633282 0.869281 -0.595744
C73   C     C_3   0.101317 0.579174 0.778793 0.228482
H85   H     H_    0.138877 0.539654 0.853789 0.096725
H86   H     H_    0.133040 0.598496 0.687802 0.024313
H87   H     H_    0.046501 0.555394 0.711618 0.225174
O54   O     O_3   0.097093 0.380293 0.348936 -0.667632
C74   C     C_3   0.018402 0.364223 0.354417 0.236486
H88   H     H_    0.997822 0.399396 0.436358 0.187916
H89   H     H_    0.003927 0.306768 0.365513 -0.052286
H90   H     H_    0.980892 0.381375 0.245482 0.163857
O55   O     O_3   0.581280 0.132561 0.867226 -0.576908
C75   C     C_3   0.601920 0.077852 0.775900 0.191443
H91   H     H_    0.638450 0.037876 0.851406 0.109438
H92   H     H_    0.633170 0.096130 0.682912 0.026363
H93   H     H_    0.545996 0.055242 0.710849 0.233532
O56   O     O_3   0.597309 0.880566 0.347810 -0.665278
C76   C     C_3   0.518872 0.863789 0.355383 0.241158
H94   H     H_    0.498123 0.899551 0.436043 0.188266
H95   H     H_    0.505729 0.806320 0.371621 -0.052458
H96   H     H_    0.480117 0.879455 0.246159 0.157810
O57   O     O_3   0.856931 0.402958 0.351414 -0.738025
H97   H     H_    0.868065 0.398156 0.468408 0.338221
O58   O     O_3   0.916280 0.627978 0.833710 -0.660404
H98   H     H_    0.889703 0.582461 0.851603 0.305676
O59   O     O_3   0.357252 0.903434 0.352371 -0.738685
H99   H     H_    0.367061 0.898808 0.469405 0.337578
O60   O     O_3   0.418297 0.128409 0.823553 -0.650150
H100  H     H_    0.403371 0.101193 0.912255 0.314492
O61   O     O_3   0.941729 0.083668 0.908158 -0.573683
C77   C     C_3   0.983439 0.024020 0.980353 -0.157424
H101  H     H_    0.943079 0.986197 0.026006 0.185743
H102  H     H_    0.033861 0.040245 0.077176 0.151091
H103  H     H_    0.008352 0.996081 0.889173 0.173347
O62   O     O_3   0.977152 0.916639 0.381803 -0.572664
C78   C     C_3   0.971336 0.991228 0.389710 -0.198425
H104  H     H_    0.911945 0.009071 0.329108 0.178788
H105  H     H_    0.014475 0.015818 0.326377 0.171793
H106  H     H_    0.986518 0.011666 0.513402 0.175598
O63   O     O_3   0.435282 0.584045 0.921752 -0.565835
C79   C     C_3   0.471373 0.520910 0.988182 -0.201167
H107  H     H_    0.427809 0.485366 0.030141 0.154055
H108  H     H_    0.523065 0.532417 0.086805 0.158120
H109  H     H_    0.493044 0.492564 0.893315 0.173116
O64   O     O_3   0.487210 0.444718 0.548338 -0.566442
C80   C     C_3   0.469589 0.468430 0.388157 -0.189009
H110  H     H_    0.414899 0.499764 0.361923 0.180258
H111  H     H_    0.465512 0.423904 0.303150 0.145073
H112  H     H_    0.517272 0.504940 0.367304 0.174299

loop_
_geom_bond_atom_site_label_1
_geom_bond_atom_site_label_2
_geom_bond_distance
_ccdc_geom_bond_type
C43   H73   1.076666 S    
C78   H106  1.105974 S    
C42   H76   1.072797 S    
P1    O17   1.758324 S    
O10   Ba2   2.843937 S    
C13   H25   1.099367 S    
P12   C67   1.869216 S    
Ba2   O46   2.877896 S    
C20   H44   1.091527 S    
P3    O19   1.757990 S    
O55   C75   1.391277 S    
C2    H10   1.105833 S    
C35   C67   1.397265 A    
O44   C8    1.403987 S    
O6    Ba1   2.877929 S    
C25   H61   1.105245 S    
C35   O55   1.360894 S    
C28   H60   1.110070 S    
C73   H86   1.099255 S    
P2    O2    1.559527 D    
C77   H102  1.109445 S    
C9    H23   1.110654 S    
C70   H80   1.074805 S    
C78   H104  1.105234 S    
O43   C7    1.410698 S    
Ba3   O47   2.866581 S    
C33   O53   1.363102 S    
C26   H62   1.102920 S    
P8    C63   1.899765 S    
C27   H59   1.107025 S    
O57   H97   0.982790 S    
C43   C57   1.411096 A    
C7    H15   1.110285 S    
Ba1   O45   2.866581 S    
C18   H38   1.105369 S    
C10   H72   1.110992 S    
O15   P16   1.542787 D    
C52   C56   1.449768 A    
C25   H57   1.106464 S    
C35   C63   1.399156 A    
C3    H5    1.103375 S    
C23   H51   1.097644 S    
C55   C69   1.412360 A    
P3    O3    1.568473 D    
C24   H52   1.096495 S    
O37   C14   1.395684 S    
O59   H99   0.983519 S    
P4    O20   1.754014 S    
C15   H27   1.099765 S    
O18   C22   1.400604 S    
C39   C47   1.412312 A    
P7    O48   1.615001 S    
C14   H26   1.109670 S    
P1    C49   1.890800 S    
C41   C59   1.411647 A    
C11   H69   1.114527 S    
C34   O54   1.376385 S    
C34   C62   1.409298 A    
C80   H112  1.105462 S    
C37   C45   1.413036 A    
O56   C76   1.403019 S    
P4    Ba4   3.477016 S    
O22   P13   1.751504 S    
C33   C61   1.399905 A    
O61   C77   1.407578 S    
C42   C46   1.404635 A    
P7    O39   1.756616 S    
O32   Ba4   2.855465 S    
C36   C64   1.409132 A    
C25   H53   1.107057 S    
C40   C48   1.406117 A    
O23   C31   1.411009 S    
C78   H105  1.103966 S    
C44   H74   1.074025 S    
C12   O64   1.416794 S    
P6    C61   1.899943 S    
C54   C60   1.449020 A    
C38   O58   1.371104 S    
O50   H82   0.992541 S    
O21   C29   1.412631 S    
P5    C62   1.921881 S    
O16   P15   1.549263 D    
C29   O49   1.398648 S    
P2    O18   1.751938 S    
C74   H88   1.084265 S    
O41   C5    1.409754 S    
P16   C47   1.865158 S    
P4    O8    1.609807 S    
P12   O32   1.773395 S    
C8    C12   1.525703 S    
C49   C53   1.432919 A    
P4    O4    1.559527 D    
C36   O56   1.377432 S    
Ba3   Ba4   4.697549 S    
C56   C70   1.412243 A    
C28   H56   1.106126 S    
C16   C20   1.501528 S    
P7    O27   1.558836 D    
P5    O25   1.558836 D    
P9    O41   1.753763 S    
C76   H94   1.084682 S    
C18   H42   1.089242 S    
O12   P15   1.756040 S    
C59   C63   1.434978 A    
C67   C71   1.395381 A    
C74   H89   1.109435 S    
C17   H41   1.106947 S    
C1    H67   1.109865 S    
C23   C27   1.511731 S    
C6    H18   1.114113 S    
P4    C52   1.921454 S    
C2    H68   1.108291 S    
C24   H48   1.103705 S    
C22   H50   1.098142 S    
C5    H17   1.112522 S    
C76   H96   1.071297 S    
C40   O60   1.370499 S    
C15   H31   1.102502 S    
O51   H83   0.992581 S    
C51   C55   1.432554 A    
Ba3   O48   2.995369 S    
P2    Ba2   3.477016 S    
O31   Ba3   2.843224 S    
C71   H77   1.076249 S    
H3    C31   1.109520 S    
C8    H20   1.111858 S    
O30   Ba2   2.855465 S    
O40   C15   1.408832 S    
C12   H70   1.108489 S    
Ba1   O46   2.995369 S    
O10   P13   1.755443 S    
P10   O30   1.769149 S    
P1    O5    1.594596 S    
H1    C29   1.105986 S    
O58   H98   0.988453 S    
C39   O59   1.379967 S    
P11   O35   1.549585 D    
P13   C46   1.866039 S    
C56   C58   1.448677 A    
P12   O36   1.548142 D    
C28   H64   1.103235 S    
C22   H46   1.102223 S    
C41   C45   1.403952 A    
P11   C68   1.873000 S    
O4    Ba4   2.906912 S    
P5    Ba1   3.479548 S    
O23   P16   1.751788 S    
C53   C59   1.440647 A    
C54   C72   1.412872 A    
O22   C30   1.412746 S    
O24   P15   1.764700 S    
C3    C31   1.518012 S    
C20   H36   1.101872 S    
C69   H79   1.076881 S    
P15   C48   1.872505 S    
C1    C29   1.518183 S    
C4    C32   1.527843 S    
O42   C6    1.400386 S    
O49   H81   0.992053 S    
P12   O44   1.749761 S    
P3    C51   1.889993 S    
C60   C64   1.450877 A    
C27   H63   1.106831 S    
O9    Ba1   2.856164 S    
C66   C70   1.405626 A    
P7    Ba3   3.479548 S    
O52   H84   0.987947 S    
C79   H109  1.107198 S    
C65   C69   1.394879 A    
C68   C72   1.407185 A    
C37   O57   1.379807 S    
P6    O26   1.567774 D    
C75   H92   1.102004 S    
C80   H110  1.104056 S    
C42   C60   1.410258 A    
C27   H55   1.104204 S    
C41   H75   1.079586 S    
C36   C68   1.402746 A    
C1    H7    1.102653 S    
P9    C66   1.872059 S    
C57   C61   1.436499 A    
O13   P14   1.543057 D    
C19   H39   1.107988 S    
Ba1   Ba2   4.697549 S    
C15   C19   1.514151 S    
O26   Ba2   2.878198 S    
O38   C13   1.408943 S    
C58   C62   1.451457 A    
C7    C11   1.521638 S    
C73   H87   1.090401 S    
P8    O47   1.599609 S    
C12   H22   1.104919 S    
C44   C58   1.412648 A    
Ba4   O48   2.877896 S    
C21   H45   1.103863 S    
C40   C52   1.408333 A    
O39   C16   1.397611 S    
P10   O34   1.546084 D    
Ba2   O45   3.004638 S    
P1    O1    1.568473 D    
C4    H12   1.097829 S    
C77   H103  1.107629 S    
P11   O31   1.758215 S    
O54   C74   1.400269 S    
O64   C80   1.410121 S    
C13   H29   1.102559 S    
C4    H6    1.108052 S    
P2    O6    1.609807 S    
P14   C45   1.865039 S    
O28   Ba4   2.878198 S    
O9    P14   1.753609 S    
C3    H11   1.109424 S    
O24   C32   1.416922 S    
C16   H32   1.096279 S    
C34   C66   1.401700 A    
C18   H34   1.099387 S    
C17   H37   1.106233 S    
P8    O28   1.567774 D    
P6    O45   1.599609 S    
C17   H33   1.090169 S    
C22   C26   1.505627 S    
O1    Ba1   2.874879 S    
O27   Ba3   2.910567 S    
C26   H54   1.104622 S    
P1    Ba1   3.458220 S    
C19   H35   1.090026 S    
P6    Ba2   3.460327 S    
C8    H16   1.106119 S    
C79   H108  1.112346 S    
C2    C30   1.527958 S    
P8    Ba4   3.460327 S    
P9    O29   1.757928 S    
C33   C65   1.396126 A    
O63   C79   1.406608 S    
P11   O43   1.755507 S    
P6    O38   1.758956 S    
O62   C78   1.406964 S    
C3    H65   1.110241 S    
C6    C10   1.500605 S    
H2    C30   1.112559 S    
P2    C50   1.919681 S    
C16   H28   1.108362 S    
O19   C23   1.402645 S    
C21   H49   1.099867 S    
C19   H43   1.102980 S    
P8    O40   1.760212 S    
C37   C49   1.402025 A    
C74   H90   1.068141 S    
C21   C25   1.514164 S    
C20   H40   1.108505 S    
C76   H95   1.110873 S    
C77   H101  1.112123 S    
O12   Ba4   2.843937 S    
C1    H9    1.104754 S    
C5    C9    1.520101 S    
C13   C17   1.514748 S    
O14   P13   1.548093 D    
O25   Ba1   2.910567 S    
P5    O37   1.763306 S    
P9    O33   1.548393 D    
C7    H19   1.111753 S    
P10   O42   1.734712 S    
O8    Ba3   2.877929 S    
C72   H78   1.074616 S    
C26   H58   1.109145 S    
C38   C50   1.413072 A    
H4    C32   1.111245 S    
P3    Ba3   3.458220 S    
C75   H91   1.102138 S    
C80   H111  1.103738 S    
P7    C64   1.923154 S    
C32   O52   1.397334 S    
C14   C18   1.501926 S    
C75   H93   1.090396 S    
C24   C28   1.508742 S    
C73   H85   1.102713 S    
C23   H47   1.102253 S    
C53   C71   1.413531 A    
P3    O7    1.594596 S    
C50   C54   1.452978 A    
O29   Ba1   2.843224 S    
C38   C46   1.397425 A    
P10   C65   1.862894 S    
C44   C48   1.406643 A    
O11   P16   1.757621 S    
C9    H71   1.112471 S    
C39   C51   1.402009 A    
C30   O50   1.398137 S    
C14   H30   1.087601 S    
C5    H13   1.109010 S    
C4    H66   1.105293 S    
C6    H14   1.109632 S    
Ba4   O47   3.004638 S    
C11   O63   1.409675 S    
O21   P14   1.751227 S    
O20   C24   1.400959 S    
C11   H21   1.109865 S    
O2    Ba2   2.906912 S    
O53   C73   1.396026 S    
C2    H8    1.109138 S    
C10   H24   1.107649 S    
P5    O46   1.615001 S    
O11   Ba3   2.856164 S    
O7    Ba4   2.866627 S    
C9    O61   1.411046 S    
C31   O51   1.398621 S    
O17   C21   1.402280 S    
C10   O62   1.412278 S    
C43   C47   1.403754 A    
O60   H100  0.987542 S    
O3    Ba3   2.874879 S    
C79   H107  1.111030 S    
C55   C57   1.440086 A    
O5    Ba2   2.866627 S    
