data_mof_unit_48263.cif
_audit_creation_date              2012-12-10T17:22:11-0500
_audit_creation_method            fapswitch 2.2
_symmetry_space_group_name_H-M    P1
_symmetry_Int_Tables_number       1
_space_group_crystal_system       triclinic
_cell_length_a                    10.175222
_cell_length_b                    10.643159
_cell_length_c                    15.746125
_cell_angle_alpha                 90.325254
_cell_angle_beta                  81.00886
_cell_angle_gamma                 94.645542
_cell_volume                      1678.72165455

loop_
_atom_site_label
_atom_site_type_symbol
_atom_type_description
_atom_site_fract_x
_atom_site_fract_y
_atom_site_fract_z
_atom_type_partial_charge
C1    C     C_R   0.554835 0.734002 0.498650 0.930003
C2    C     C_2   0.477931 0.930991 0.550660 -0.191335
C3    C     C_2   0.414823 0.133267 0.522722 -0.397321
C4    C     C_R   0.499570 0.498732 0.661652 0.886997
C5    C     C_2   0.491057 0.065294 0.564195 0.137570
C6    C     C_2   0.933939 0.529436 0.485853 -0.175550
C7    C     C_2   0.075144 0.494772 0.487663 -0.079761
C8    C     C_R   0.444862 0.266891 0.509516 0.918592
C9    C     C_R   0.500198 0.500053 0.338342 0.916099
C10   C     C_3   0.411815 0.595099 0.956913 -0.476835
C11   C     C_3   0.646028 0.530810 0.936271 -0.075968
C12   C     C_3   0.405810 0.598625 0.056242 -0.037707
C13   C     C_3   0.644239 0.524688 0.034979 -0.455547
C14   C     C_1   0.500627 0.500522 0.249508 -0.210177
C15   C     C_3   0.500848 0.491717 0.916991 0.284059
C16   C     C_3   0.434570 0.735457 0.089025 -0.412163
C17   C     C_3   0.341837 0.764070 0.172559 -0.356033
C18   C     C_3   0.377722 0.895458 0.205740 -0.884852
C19   C     C_3   0.582550 0.119147 0.625605 -0.336315
C20   C     C_3   0.544056 0.056374 0.714624 -0.357137
C21   C     C_3   0.621556 0.120810 0.780370 -0.950469
C22   C     C_3   0.116550 0.664048 0.582576 -0.240997
C23   C     C_3   0.499174 0.500231 0.082898 0.283179
C24   C     C_3   0.181791 0.684849 0.663438 -0.287147
C25   C     C_3   0.125281 0.794367 0.716557 -1.015622
C26   C     C_3   0.759068 0.455240 0.886661 -0.420558
C27   C     C_3   0.824887 0.516448 0.800215 -0.353622
C28   C     C_3   0.877450 0.417710 0.735616 -0.844410
C29   C     C_3   0.318204 0.293987 0.930966 -0.392209
C30   C     C_3   0.183178 0.321064 0.984370 -0.329151
C31   C     C_3   0.067957 0.284371 0.935391 -0.921106
C32   C     C_3   0.445216 0.366968 0.058078 -0.455512
C33   C     C_3   0.447788 0.359541 0.959300 -0.035404
C34   C     C_1   0.500167 0.501145 0.174292 -0.092448
C35   C     C_1   0.499866 0.491674 0.825507 -0.106681
C36   C     C_1   0.498760 0.494477 0.750400 -0.211957
C37   C     C_2   0.581377 0.867406 0.515718 -0.388169
H1    H     H_    0.309794 0.579994 0.940129 0.172725
H2    H     H_    0.703451 0.447805 0.052295 0.173030
H3    H     H_    0.524264 0.293690 0.936019 0.123754
H4    H     H_    0.344327 0.344900 0.095128 0.167692
H5    H     H_    0.481269 0.902536 0.220564 0.261549
H6    H     H_    0.369129 0.968271 0.157065 0.254786
H7    H     H_    0.308384 0.913721 0.265482 0.249583
H8    H     H_    0.236846 0.758662 0.160302 0.213358
H9    H     H_    0.348101 0.694233 0.223378 0.238771
H10   H     H_    0.540080 0.752323 0.098920 0.210134
H11   H     H_    0.418653 0.806121 0.040699 0.200230
H12   H     H_    0.507793 0.294660 0.078140 0.159058
H13   H     H_    0.301365 0.566141 0.084481 0.140234
H14   H     H_    0.730652 0.117449 0.759489 0.271895
H15   H     H_    0.597244 0.220404 0.788029 0.264253
H16   H     H_    0.593036 0.072176 0.843549 0.248351
H17   H     H_    0.435519 0.061771 0.737406 0.222543
H18   H     H_    0.564911 0.955383 0.710570 0.229640
H19   H     H_    0.687642 0.103221 0.599193 0.189136
H20   H     H_    0.575968 0.221980 0.634424 0.211657
H21   H     H_    0.338902 0.087298 0.488892 0.128437
H22   H     H_    0.145245 0.883209 0.678339 0.268948
H23   H     H_    0.376483 0.887384 0.561890 0.174387
H24   H     H_    0.015974 0.776025 0.737027 0.266113
H25   H     H_    0.173816 0.806369 0.774868 0.261599
H26   H     H_    0.164016 0.597982 0.703850 0.233358
H27   H     H_    0.289970 0.709482 0.646102 0.255917
H28   H     H_    0.141331 0.747984 0.539634 0.167709
H29   H     H_    0.008184 0.656660 0.607343 0.162585
H30   H     H_    0.871338 0.359602 0.450844 0.163944
H31   H     H_    0.946202 0.359267 0.763028 0.251221
H32   H     H_    0.793151 0.355993 0.717540 0.271123
H33   H     H_    0.932252 0.464553 0.676510 0.254795
H34   H     H_    0.682245 0.912313 0.502489 0.152538
H35   H     H_    0.754767 0.570972 0.771135 0.232875
H36   H     H_    0.909409 0.583950 0.811589 0.212890
H37   H     H_    0.840429 0.449883 0.925691 0.197359
H38   H     H_    0.721994 0.356570 0.876764 0.215588
H39   H     H_    0.075100 0.346179 0.878046 0.265138
H40   H     H_    0.069967 0.184470 0.914732 0.265487
H41   H     H_    0.971668 0.295578 0.977709 0.242974
H42   H     H_    0.165921 0.264181 0.044605 0.209797
H43   H     H_    0.179956 0.421490 0.001922 0.216826
H44   H     H_    0.316677 0.315014 0.862222 0.218261
H45   H     H_    0.109388 0.416212 0.448367 0.143202
H46   H     H_    0.324650 0.190213 0.933833 0.184028
H47   H     H_    0.904877 0.622940 0.503032 0.167709
H48   H     H_    0.452663 0.687311 0.926719 0.157815
H49   H     H_    0.671691 0.631732 0.917392 0.154401
H50   H     H_    0.693280 0.613602 0.056758 0.156786
N1    N     N_2   0.842720 0.448890 0.465540 -0.192709
N2    N     N_2   0.157250 0.551040 0.534500 -0.078521
O1    O     O_R   0.431050 0.692470 0.506940 -0.618169
O2    O     O_R   0.651130 0.659650 0.484820 -0.610996
O3    O     O_R   0.389910 0.516410 0.633920 -0.632239
O4    O     O_R   0.609990 0.483590 0.611800 -0.610111
O5    O     O_R   0.348870 0.340350 0.515180 -0.609343
O6    O     O_R   0.568950 0.307530 0.493060 -0.610146
O7    O     O_R   0.390010 0.516410 0.388200 -0.614207
O8    O     O_R   0.610090 0.483590 0.366080 -0.597370
Zn1   Zn    Zn3+2 0.353060 0.521920 0.514770 0.924829
Zn2   Zn    Zn3+2 0.646940 0.478080 0.485230 0.928457

loop_
_geom_bond_atom_site_label_1
_geom_bond_atom_site_label_2
_ccdc_geom_bond_type
C19   H19   S    
C4    C36   S    
C10   H48   S    
C1    O1    A    
C28   H32   S    
C16   H11   S    
O3    Zn1   S    
C19   H20   S    
C12   C23   S    
H30   N1    S    
C28   H31   S    
C17   H8    S    
C29   H46   S    
C10   C15   S    
C18   H5    S    
C30   C31   S    
C2    H23   S    
O5    Zn1   S    
C11   H49   S    
C7    N2    D    
C29   C33   S    
C6    N1    D    
C13   C23   S    
C17   C18   S    
C22   H29   S    
C11   C15   S    
C19   C20   S    
C16   C17   S    
O7    Zn1   S    
C32   H4    S    
O4    Zn2   S    
C1    C37   S    
C30   H43   S    
C24   H27   S    
C8    O6    A    
C20   H18   S    
C16   H10   S    
C15   C35   S    
O8    Zn2   S    
C31   H40   S    
C33   H3    S    
C6    H47   S    
C12   C16   S    
C8    O5    A    
C17   H9    S    
C20   H17   S    
C3    C8    S    
C11   C26   S    
C35   C36   T    
C9    C14   S    
C22   H28   S    
C29   H44   S    
C29   C30   S    
C18   H7    S    
C23   C34   S    
C13   H50   S    
C26   H38   S    
C26   C27   S    
C25   H24   S    
C24   C25   S    
C9    O7    A    
C10   C12   S    
C30   H42   S    
C24   H26   S    
C37   H34   S    
C22   C24   S    
C2    C5    S    
C21   H14   S    
C31   H41   S    
C9    O8    A    
C28   H33   S    
C3    C5    D    
C14   C34   T    
C12   H13   S    
C6    C7    S    
C5    C19   S    
N2    Zn1   S    
C10   H1    S    
C32   C33   S    
C18   H6    S    
C23   C32   S    
C21   H16   S    
C11   C13   S    
C2    C37   D    
C31   H39   S    
C26   H37   S    
C22   N2    S    
O1    Zn1   S    
O6    Zn2   S    
C25   H25   S    
C32   H12   S    
C13   H2    S    
N1    Zn2   S    
C4    O4    A    
C3    H21   S    
C7    H45   S    
C20   C21   S    
C1    O2    A    
C27   C28   S    
C25   H22   S    
O2    Zn2   S    
C27   H36   S    
C15   C33   S    
C21   H15   S    
C27   H35   S    
C4    O3    A    
