data_mof_unit_53423.cif
_audit_creation_date              2013-03-05T15:45:30-0500
_audit_creation_method            fapswitch 2.2
_symmetry_space_group_name_H-M    P1
_symmetry_Int_Tables_number       1
_space_group_crystal_system       triclinic
_cell_length_a                    10.968823
_cell_length_b                    10.899931
_cell_length_c                    18.714826
_cell_angle_alpha                 89.549844
_cell_angle_beta                  89.539436
_cell_angle_gamma                 60.4487
_cell_volume                      1946.38047475

loop_
_atom_site_label
_atom_site_type_symbol
_atom_site_description
_atom_site_fract_x
_atom_site_fract_y
_atom_site_fract_z
_atom_type_partial_charge
O1    O     O_R   0.507430 0.255570 0.581420 -0.452523
O2    O     O_R   0.280190 0.527390 0.578910 -0.464999
C1    C     C_R   0.241347 0.644729 0.611567 0.573224
O3    O     O_R   0.260310 0.739740 0.584580 -0.477747
O4    O     O_R   0.532250 0.695150 0.573830 -0.516575
C2    C     C_R   0.653560 0.620981 0.601047 0.532738
O5    O     O_R   0.744930 0.503430 0.576380 -0.454236
O6    O     O_R   0.699250 0.276390 0.571950 -0.501122
C3    C     C_R   0.624182 0.231189 0.604274 0.535109
O7    O     O_R   0.499020 0.256400 0.419850 -0.537191
O8    O     O_R   0.272400 0.528160 0.429140 -0.497143
C4    C     C_R   0.286551 0.622281 0.392113 0.561555
O9    O     O_R   0.251910 0.740570 0.423020 -0.442950
O10   O     O_R   0.524460 0.695920 0.424060 -0.511248
C5    C     C_R   0.647445 0.627614 0.394638 0.533654
O11   O     O_R   0.736530 0.504260 0.414810 -0.489450
O12   O     O_R   0.691460 0.277160 0.422180 -0.444373
C6    C     C_R   0.617194 0.228919 0.394708 0.563701
Cr1   Cr    Cr6+3 0.392930 0.397900 0.502230 1.112482
Cr2   Cr    Cr6+3 0.398240 0.708600 0.501260 1.092907
Cr3   Cr    Cr6+3 0.708800 0.393470 0.496460 1.134583
O13   O     O_3   0.499990 0.499990 0.499980 -0.324070
C7    C     C_3   0.569689 0.804688 0.782792 -0.207724
H1    H     H_    0.574769 0.900664 0.796376 0.220229
H2    H     H_    0.472775 0.814807 0.807899 0.153066
C8    C     C_3   0.562985 0.794196 0.701206 -0.242544
H3    H     H_    0.455938 0.818302 0.686989 0.199433
H4    H     H_    0.583537 0.873621 0.674291 0.172564
H5    H     H_    0.830595 0.701968 0.655866 0.137790
C9    C     C_3   0.832727 0.650744 0.769166 -0.063785
C10   C     C_3   0.679534 0.544001 0.801047 -0.254921
C11   C     C_3   0.700486 0.672227 0.812359 0.004000
H6    H     H_    0.775755 0.445168 0.816632 0.181369
H7    H     H_    0.591715 0.552596 0.834876 0.120519
C12   C     C_3   0.671987 0.643720 0.676420 0.002827
C13   C     C_3   0.820974 0.622653 0.689725 0.089219
C14   C     C_3   0.646876 0.537671 0.721887 -0.220332
H8    H     H_    0.535943 0.562358 0.716655 0.106331
H9    H     H_    0.712264 0.429586 0.701987 0.181922
H10   H     H_    0.928640 0.561797 0.792156 0.225083
C15   C     C_R   0.770519 0.174829 0.711626 -0.145133
H11   H     H_    0.853964 0.171308 0.679123 0.204483
C16   C     C_R   0.785502 0.166745 0.785786 -0.124483
H12   H     H_    0.885236 0.141598 0.809127 0.184003
C17   C     C_R   0.674982 0.179271 0.828305 -0.024320
C18   C     C_R   0.547406 0.213207 0.796141 -0.105446
H13   H     H_    0.461796 0.223641 0.828669 0.240374
C19   C     C_R   0.537247 0.197482 0.723741 0.166595
C20   C     C_R   0.648454 0.188920 0.679379 -0.008303
C21   C     C_R   0.216409 0.544126 0.726901 -0.132017
H14   H     H_    0.221641 0.457019 0.698267 0.247050
C22   C     C_R   0.211739 0.543058 0.801756 0.163857
C23   C     C_R   0.198880 0.661134 0.839006 -0.000436
C24   C     C_R   0.209647 0.766999 0.801380 -0.155172
H15   H     H_    0.201200 0.857785 0.829080 0.177773
C25   C     C_R   0.203684 0.772893 0.727622 0.067225
C26   C     C_R   0.210538 0.658268 0.688834 -0.015246
C27   C     C_R   0.806250 0.578037 0.291480 -0.100627
H16   H     H_    0.884497 0.481988 0.316623 0.197603
C28   C     C_R   0.823463 0.596669 0.219952 -0.103149
H17   H     H_    0.913733 0.513767 0.192840 0.168439
C29   C     C_R   0.721329 0.714803 0.183126 0.018137
C30   C     C_R   0.614227 0.825071 0.222528 -0.115549
H18   H     H_    0.540525 0.922458 0.196555 0.158701
C31   C     C_R   0.598543 0.806184 0.295700 -0.115773
H19   H     H_    0.517839 0.890982 0.326380 0.154245
C32   C     C_R   0.684924 0.675397 0.328041 0.018489
C33   C     C_R   0.532027 0.185789 0.283356 -0.194734
H20   H     H_    0.440536 0.193691 0.310174 0.169172
C34   C     C_R   0.532053 0.186375 0.210186 -0.194051
H21   H     H_    0.445427 0.185586 0.183161 0.171000
C35   C     C_R   0.647197 0.175696 0.172773 -0.010945
C36   C     C_R   0.756958 0.181066 0.209509 0.192806
C37   C     C_R   0.761017 0.171631 0.284163 0.182880
C38   C     C_R   0.644383 0.180998 0.321110 -0.017753
C39   C     C_R   0.265954 0.731375 0.271217 0.104067
C40   C     C_R   0.256058 0.722058 0.197716 0.120379
C41   C     C_R   0.192381 0.647239 0.171454 0.013754
C42   C     C_R   0.185868 0.544892 0.213974 -0.170861
H22   H     H_    0.144844 0.480141 0.193335 0.143643
C43   C     C_R   0.224495 0.532092 0.285197 -0.161597
H23   H     H_    0.218938 0.451911 0.317308 0.159931
C44   C     C_R   0.255601 0.631132 0.315748 -0.000244
O14   O     O_R   0.089490 0.825610 0.930610 -0.516647
O15   O     O_R   0.818370 0.054540 0.929880 -0.480887
C45   C     C_R   0.698635 0.109621 0.898254 0.570683
O16   O     O_R   0.605870 0.077310 0.915530 -0.493905
O17   O     O_R   0.646440 0.806700 0.917570 -0.490374
C46   C     C_R   0.723140 0.687351 0.888565 0.562980
O18   O     O_R   0.837200 0.593290 0.915250 -0.486504
O19   O     O_R   0.065330 0.635370 0.931590 -0.434891
C47   C     C_R   0.124708 0.702950 0.907941 0.588090
O20   O     O_R   0.068300 0.828790 0.091860 -0.455941
O21   O     O_R   0.798730 0.057480 0.079370 -0.453547
C48   C     C_R   0.673473 0.111917 0.102448 0.554467
O22   O     O_R   0.584680 0.080480 0.076790 -0.528666
O23   O     O_R   0.626790 0.809640 0.067050 -0.475861
C49   C     C_R   0.735174 0.719301 0.104956 0.561979
O24   O     O_R   0.816010 0.596460 0.076500 -0.474347
O25   O     O_R   0.045680 0.638310 0.081070 -0.536223
C50   C     C_R   0.103860 0.703226 0.108746 0.548149
Cr4   Cr    Cr6+3 0.937620 0.938540 0.007640 1.126560
Cr5   Cr    Cr6+3 0.625150 0.937450 0.994520 1.087599
Cr6   Cr    Cr6+3 0.937990 0.625080 0.001190 1.117921
O26   O     O_3   0.833590 0.833690 0.001120 -0.311074
N1    N     N_R   0.935345 0.482721 0.668769 0.095439
O27   O     O_R   0.960105 0.369433 0.704037 -0.297915
O28   O     O_R   0.017151 0.471991 0.615591 -0.292041
N2    N     N_R   0.426225 0.168136 0.701961 0.075932
O29   O     O_R   0.341749 0.231143 0.649142 -0.247696
O30   O     O_R   0.385652 0.103721 0.746811 -0.323053
N3    N     N_R   0.212784 0.426167 0.838850 0.063758
O31   O     O_R   0.268989 0.388305 0.901921 -0.347736
O32   O     O_R   0.169031 0.349091 0.807473 -0.253627
I1    I     I_    0.157820 0.973861 0.684731 -0.195615
N4    N     N_R   0.865389 0.191518 0.171027 0.111432
O33   O     O_R   0.996158 0.096338 0.179344 -0.250139
O34   O     O_R   0.832251 0.288755 0.122416 -0.318463
N5    N     N_R   0.882723 0.151186 0.322373 0.119526
O35   O     O_R   0.937089 0.231655 0.309938 -0.301129
O36   O     O_R   0.933843 0.057506 0.373320 -0.293139
I2    I     I_    0.252708 0.922494 0.308615 -0.152033
I3    I     I_    0.335439 0.821123 0.126010 -0.215683
I4    I     I_    0.863011 0.829334 0.775730 -0.417517

loop_
_geom_bond_atom_site_label_1
_geom_bond_atom_site_label_2
_geom_bond_distance
_ccdc_geom_bond_type
C30   C31   1.404970 A    
C6    C38   1.452581 S    
O14   Cr4   2.082076 S    
C36   C37   1.399561 A    
C24   H15   1.083236 S    
C48   O22   1.279011 A    
O19   Cr6   1.945039 S    
N3    O32   1.300358 A    
C43   H23   1.082767 S    
O4    Cr2   1.960388 S    
C17   C18   1.398866 A    
N4    O33   1.300453 A    
C33   C38   1.403832 A    
C37   N5    1.436159 S    
H5    C13   1.113727 S    
O8    Cr1   1.944685 S    
C8    H3    1.103685 S    
C14   H8    1.114054 S    
C36   N4    1.436945 S    
C12   C14   1.559129 S    
N2    O30   1.299438 A    
O15   C45   1.290269 A    
O4    C2    1.275509 A    
N1    O27   1.301347 A    
C22   N3    1.441258 S    
C27   C28   1.377786 A    
C5    O11   1.267734 A    
O23   C49   1.316845 A    
O25   Cr6   1.962333 S    
C2    C12   1.466817 S    
Cr4   O26   1.978354 S    
C28   C29   1.401293 A    
C15   H11   1.079821 S    
C7    C8    1.537100 S    
Cr6   O26   1.978179 S    
C29   C49   1.472511 S    
C35   C48   1.452296 S    
C10   C11   1.540562 S    
C33   H20   1.083396 S    
C31   C32   1.399867 A    
C21   C22   1.401590 A    
C7    H1    1.106348 S    
C10   H6    1.112655 S    
C34   H21   1.083774 S    
C19   N2    1.464822 S    
Cr3   O13   1.993482 S    
C41   C50   1.454314 S    
C15   C16   1.395873 A    
C39   C44   1.416988 A    
C15   C20   1.410384 A    
N3    O31   1.302578 A    
C43   C44   1.408851 A    
C21   H14   1.070371 S    
C24   C25   1.381928 A    
N5    O36   1.301797 A    
C18   C19   1.379345 A    
O1    Cr1   2.062139 S    
C37   C38   1.408283 A    
C30   H18   1.080903 S    
C13   N1    1.472431 S    
O10   Cr2   1.950777 S    
C9    H10   1.107481 S    
Cr1   O13   1.976494 S    
C3    C20   1.460699 S    
C39   C40   1.389137 A    
O20   C50   1.262455 A    
O19   C47   1.275215 A    
C42   C43   1.386909 A    
C41   C42   1.395203 A    
O6    C3    1.293896 A    
C27   H16   1.080068 S    
C40   C41   1.402911 A    
O12   Cr3   1.961043 S    
C10   C14   1.537004 S    
C4    C44   1.462997 S    
C28   H17   1.082117 S    
C12   C13   1.555921 S    
C16   H12   1.082923 S    
C29   C30   1.405585 A    
C40   I3    2.147298 S    
C27   C32   1.403237 A    
C11   C46   1.474012 S    
O7    Cr1   2.085190 S    
N5    O35   1.299838 A    
C5    C32   1.478667 S    
C23   C47   1.469903 S    
O12   C6    1.279806 A    
C10   H7    1.113374 S    
O1    C3    1.250965 A    
Cr5   O26   1.993344 S    
C4    O9    1.290851 A    
C16   C17   1.394417 A    
O18   Cr6   2.084304 S    
O23   Cr5   1.931208 S    
O16   Cr5   2.050767 S    
C1    C26   1.474213 S    
C19   C20   1.434767 A    
C9    I4    2.134721 S    
C31   H19   1.077364 S    
C25   C26   1.419276 A    
C1    O3    1.254357 A    
O17   Cr5   1.964201 S    
C22   C23   1.412708 A    
C18   H13   1.073255 S    
O24   Cr6   2.061172 S    
O9    Cr2   2.078398 S    
O2    Cr1   1.965291 S    
C45   O16   1.268986 A    
C21   C26   1.402624 A    
Cr2   O13   1.978303 S    
C35   C36   1.417412 A    
O6    Cr3   1.933050 S    
O20   Cr4   2.070088 S    
O8    C4    1.304205 A    
O11   Cr3   2.052232 S    
C23   C24   1.400601 A    
C2    O5    1.262714 A    
C8    H4    1.112590 S    
C9    C13   1.539432 S    
C39   I2    2.138541 S    
C7    C11   1.551150 S    
C17   C45   1.467278 S    
C14   H9    1.100085 S    
O5    Cr3   2.082527 S    
N2    O29   1.297580 A    
C9    C11   1.568880 S    
N1    O28   1.301258 A    
O7    C6    1.265208 A    
O25   C50   1.277771 A    
C25   I1    2.141892 S    
N4    O34   1.301258 A    
O2    C1    1.288968 A    
C7    H2    1.113609 S    
O21   C48   1.271464 A    
C42   H22   1.081738 S    
O3    Cr2   2.073522 S    
C8    C12   1.550335 S    
O17   C46   1.272387 A    
O21   Cr4   1.962142 S    
C33   C34   1.369331 A    
C49   O24   1.301983 A    
O22   Cr5   2.083807 S    
O10   C5    1.296572 A    
C34   C35   1.393199 A    
O14   C47   1.270256 A    
C46   O18   1.265919 A    
O15   Cr4   1.948779 S    
