data_mof_unit_31018.cif
_audit_creation_date              2012-12-10T16:52:08-0500
_audit_creation_method            fapswitch 2.2
_symmetry_space_group_name_H-M    P1
_symmetry_Int_Tables_number       1
_space_group_crystal_system       triclinic
_cell_length_a                    7.762951
_cell_length_b                    8.573193
_cell_length_c                    14.95365
_cell_angle_alpha                 91.239981
_cell_angle_beta                  85.470825
_cell_angle_gamma                 93.819211
_cell_volume                      989.769092021

loop_
_atom_site_label
_atom_site_type_symbol
_atom_type_description
_atom_site_fract_x
_atom_site_fract_y
_atom_site_fract_z
_atom_type_partial_charge
C1    C     C_R   0.545922 0.794803 0.497659 0.967294
C2    C     C_R   0.654954 0.542345 0.808844 -0.262897
C3    C     C_R   0.496896 0.504485 0.231211 -0.063314
C4    C     C_R   0.503104 0.495515 0.768789 -0.063314
C5    C     C_R   0.649075 0.551931 0.180052 -0.261358
C6    C     C_R   0.350925 0.448069 0.819948 -0.261358
C7    C     C_R   0.651254 0.551318 0.087569 0.112978
C8    C     C_R   0.348746 0.448682 0.912430 0.112978
C9    C     C_R   0.499120 0.501564 0.046533 0.064229
C10   C     C_R   0.500880 0.498436 0.953466 0.064229
C11   C     C_R   0.345326 0.454703 0.098585 0.118110
C12   C     C_R   0.454078 0.205197 0.502341 0.967294
C13   C     C_R   0.654674 0.545297 0.901415 0.118110
C14   C     C_R   0.802898 0.598786 0.035663 -0.221536
C15   C     C_R   0.197101 0.401214 0.964337 -0.221537
C16   C     C_R   0.804676 0.595613 0.942678 -0.226112
C17   C     C_R   0.195324 0.404387 0.057322 -0.226112
C18   C     C_2   0.570062 0.958353 0.496292 -0.378549
C19   C     C_2   0.429938 0.041647 0.503707 -0.378549
C20   C     C_R   0.501337 0.498839 0.673169 0.891039
C21   C     C_R   0.498663 0.501161 0.326831 0.891039
C22   C     C_R   0.345046 0.457655 0.191156 -0.262897
H1    H     H_    0.919760 0.637958 0.066957 0.159351
H2    H     H_    0.771736 0.579588 0.768106 0.153401
H3    H     H_    0.765582 0.589639 0.212264 0.159948
H4    H     H_    0.234418 0.410361 0.787736 0.159948
H5    H     H_    0.080240 0.362042 0.933042 0.159351
H6    H     H_    0.922890 0.632325 0.903120 0.154726
H7    H     H_    0.077110 0.367675 0.096880 0.154726
H8    H     H_    0.702302 0.009669 0.489205 0.179840
H9    H     H_    0.297698 0.990331 0.510795 0.179840
H10   H     H_    0.014113 0.382781 0.432026 0.188371
H11   H     H_    0.985887 0.617219 0.567974 0.188371
H12   H     H_    0.228264 0.420412 0.231894 0.153401
N1    N     N_2   0.950330 0.457950 0.475660 -0.176104
N2    N     N_2   0.049670 0.542050 0.524340 -0.176104
O1    O     O_R   0.389250 0.738570 0.505970 -0.611647
O2    O     O_R   0.610750 0.261430 0.494030 -0.611647
O3    O     O_R   0.678390 0.711620 0.490370 -0.632301
O4    O     O_R   0.321610 0.288380 0.509630 -0.632301
O5    O     O_R   0.355420 0.513510 0.639950 -0.624986
O6    O     O_R   0.644580 0.486490 0.360050 -0.624986
O7    O     O_R   0.644560 0.486560 0.624350 -0.631014
O8    O     O_R   0.355440 0.513440 0.375650 -0.631014
Zn1   Zn    Zn3+2 0.306940 0.517990 0.510420 0.940530
Zn2   Zn    Zn3+2 0.693060 0.482010 0.489580 0.940530

loop_
_geom_bond_atom_site_label_1
_geom_bond_atom_site_label_2
_ccdc_geom_bond_type
C14   H1    S    
C16   H6    S    
C2    C4    A    
C12   O4    A    
C18   H8    S    
C21   O8    A    
C17   H7    S    
C9    C10   A    
C11   C22   A    
C15   H5    S    
N1    N2    D    
C1    O1    A    
C19   H9    S    
H11   N2    S    
C20   O5    A    
N2    Zn1   S    
C2    H2    S    
C9    C11   A    
C1    C18   S    
C6    H4    S    
O3    Zn2   S    
C5    H3    S    
C12   C19   S    
C4    C6    A    
C8    C15   A    
C12   O2    A    
O4    Zn1   S    
C22   H12   S    
O7    Zn2   S    
C14   C16   A    
O2    Zn2   S    
C3    C21   S    
C1    O3    A    
O1    Zn1   S    
C21   O6    A    
C4    C20   S    
H10   N1    S    
C7    C9    A    
C20   O7    A    
O8    Zn1   S    
C8    C10   A    
C18   C19   D    
O6    Zn2   S    
C13   C16   A    
C5    C7    A    
C2    C13   A    
O5    Zn1   S    
C11   C17   A    
C3    C22   A    
C6    C8    A    
C15   C17   A    
N1    Zn2   S    
C7    C14   A    
C3    C5    A    
C10   C13   A    
