data_mof_unit_54999.cif
_audit_creation_date              2012-12-11T15:25:37-0500
_audit_creation_method            fapswitch 2.2
_symmetry_space_group_name_H-M    P1
_symmetry_Int_Tables_number       1
_space_group_crystal_system       triclinic
_cell_length_a                    6.913953
_cell_length_b                    23.25985
_cell_length_c                    25.807367
_cell_angle_alpha                 104.268783
_cell_angle_beta                  89.791078
_cell_angle_gamma                 90.60408
_cell_volume                      4022.01523402

loop_
_atom_site_label
_atom_site_type_symbol
_atom_type_description
_atom_site_fract_x
_atom_site_fract_y
_atom_site_fract_z
_atom_type_partial_charge
O1    O     O_R   0.494330 0.439230 0.438150 -0.530038
O2    O     O_R   0.820190 0.446230 0.546380 -0.519822
O3    O     O_R   0.994320 0.560770 0.561850 -0.532639
C1    C     C_R   0.650239 0.433434 0.562646 0.790128
O4    O     O_R   0.823790 0.432220 0.437600 -0.525939
O5    O     O_R   0.997940 0.546660 0.452300 -0.537069
C2    C     C_R   0.654438 0.416326 0.417218 0.791976
O6    O     O_R   0.490700 0.453340 0.547700 -0.560292
O7    O     O_3   0.662060 0.537560 0.504950 -0.355922
V1    V     V_3+5 0.935420 0.493030 0.499080 1.617795
O8    O     O_R   0.327880 0.553770 0.453620 -0.500468
C3    C     C_R   0.159693 0.565362 0.436467 0.863257
O9    O     O_R   0.324280 0.567780 0.562400 -0.526448
C4    C     C_R   0.155773 0.584554 0.582165 0.680917
V2    V     V_3+5 0.435890 0.506970 0.500920 1.637530
O10   O     O_3   0.159380 0.462440 0.495050 -0.379721
C5    C     C_R   0.950366 0.864686 0.824466 0.365775
C6    C     C_R   0.083419 0.867507 0.866647 -0.239906
C7    C     C_R   0.232043 0.825219 0.860403 0.395665
C8    C     C_R   0.259715 0.783114 0.810712 -0.011042
C9    C     C_R   0.123156 0.779333 0.768974 -0.096252
C10   C     C_R   0.973707 0.821969 0.774718 -0.084416
C11   C     C_R   0.422125 0.745224 0.801598 0.365699
C12   C     C_R   0.434293 0.699009 0.754617 0.334087
C13   C     C_R   0.283581 0.689632 0.716282 0.006998
C14   C     C_R   0.135079 0.732415 0.721585 -0.109896
C15   C     C_R   0.997075 0.727809 0.679914 -0.027671
C16   C     C_R   0.851097 0.771346 0.686014 0.439607
C17   C     C_R   0.849422 0.819762 0.730516 0.348014
C18   C     C_R   0.276859 0.638336 0.673145 0.418224
C19   C     C_R   0.148005 0.635418 0.630137 -0.275992
C20   C     C_R   0.014801 0.681700 0.632445 0.408710
C21   C     C_R   0.203616 0.911240 0.146374 0.378350
C22   C     C_R   0.223246 0.873993 0.181415 0.324520
C23   C     C_R   0.107025 0.821977 0.174594 -0.227099
C24   C     C_R   0.977586 0.806910 0.130940 0.343956
C25   C     C_R   0.967240 0.843003 0.093783 0.251824
C26   C     C_R   0.078817 0.895805 0.101723 -0.303507
N1    N     N_R   0.116720 0.724146 0.197092 -0.183031
N2    N     N_R   0.122118 0.690532 0.232152 -0.234657
C27   C     C_R   0.124251 0.715580 0.285647 0.570817
N3    N     N_R   0.121394 0.775740 0.302530 -0.194975
N4    N     N_R   0.115803 0.809354 0.267459 -0.235352
C28   C     C_R   0.113660 0.784314 0.213942 0.569867
C29   C     C_R   0.262427 0.690967 0.367476 0.290782
C30   C     C_R   0.278188 0.652713 0.402813 0.242204
C31   C     C_R   0.150640 0.603789 0.397728 -0.268797
C32   C     C_R   0.016197 0.591337 0.355161 0.349639
C33   C     C_R   0.002542 0.628132 0.319526 0.318064
C34   C     C_R   0.128685 0.677796 0.324838 -0.205022
C35   C     C_R   0.481732 0.397122 0.636520 0.252339
C36   C     C_R   0.478525 0.362698 0.674173 0.353808
C37   C     C_R   0.624466 0.320969 0.674500 -0.201943
C38   C     C_R   0.775184 0.314123 0.636627 0.308387
C39   C     C_R   0.786147 0.351658 0.600557 0.246728
C40   C     C_R   0.637674 0.393038 0.599887 -0.252405
N5    N     N_R   0.780402 0.275123 0.740365 -0.156850
N6    N     N_R   0.775682 0.241188 0.775143 -0.202052
C41   C     C_R   0.609409 0.213447 0.784099 0.633661
N7    N     N_R   0.447858 0.221252 0.756882 -0.157975
N8    N     N_R   0.452495 0.255232 0.722149 -0.197026
C42   C     C_R   0.618657 0.283069 0.713308 0.632836
C43   C     C_R   0.447290 0.181345 0.859744 0.303389
C44   C     C_R   0.444629 0.147576 0.898926 0.230000
C45   C     C_R   0.589943 0.105211 0.898908 -0.243428
C46   C     C_R   0.744589 0.100101 0.861950 0.272047
C47   C     C_R   0.750651 0.135033 0.824699 0.321360
C48   C     C_R   0.603360 0.176205 0.823525 -0.192708
C49   C     C_R   0.685121 0.124603 0.177374 0.346371
C50   C     C_R   0.586267 0.132997 0.132121 -0.202959
C51   C     C_R   0.501906 0.188282 0.133880 0.300595
C52   C     C_R   0.533887 0.236955 0.178755 -0.065435
C53   C     C_R   0.612831 0.226652 0.226268 -0.077370
C54   C     C_R   0.680219 0.169236 0.226280 -0.109729
C55   C     C_R   0.489336 0.295789 0.177350 0.299946
C56   C     C_R   0.486037 0.341445 0.224714 0.418708
C57   C     C_R   0.550463 0.330685 0.273689 -0.055030
C58   C     C_R   0.624392 0.273718 0.273659 -0.140355
C59   C     C_R   0.708335 0.263501 0.320943 -0.070037
C60   C     C_R   0.767393 0.204997 0.320700 0.421948
C61   C     C_R   0.743078 0.158347 0.275131 0.365346
C62   C     C_R   0.548130 0.375734 0.322438 0.410999
C63   C     C_R   0.641420 0.366798 0.368265 -0.274572
C64   C     C_R   0.723170 0.311138 0.367543 0.346279
O11   O     O_R   0.738220 0.046730 0.952360 -0.555251
O12   O     O_R   0.404950 0.067790 0.062410 -0.512467
O13   O     O_R   0.230980 0.953320 0.047680 -0.528743
C65   C     C_R   0.574176 0.084062 0.082662 0.840925
O14   O     O_R   0.408720 0.053790 0.953630 -0.520492
O15   O     O_R   0.234780 0.939210 0.938130 -0.533080
C66   C     C_R   0.578474 0.066158 0.937116 0.833855
O16   O     O_R   0.734430 0.060840 0.061910 -0.537928
O17   O     O_3   0.566930 0.962480 0.995080 -0.345940
V3    V     V_3+5 0.293490 0.006960 0.000910 1.710600
O18   O     O_R   0.904820 0.932150 0.937550 -0.504577
C67   C     C_R   0.073136 0.915948 0.917020 0.824268
O19   O     O_R   0.901050 0.946150 0.046320 -0.512258
C68   C     C_R   0.069352 0.934244 0.063124 0.891478
V4    V     V_3+5 0.793050 0.992940 0.999010 1.725939
O20   O     O_3   0.069480 0.037520 0.004920 -0.382866
Cl1   Cl    Cl    0.743064 0.910856 0.837015 -0.541570
O21   O     O_3   0.359545 0.889829 0.221577 -0.556700
H1    H     H_    0.404932 0.853691 0.231342 0.324322
O22   O     O_3   0.862513 0.756851 0.126284 -0.588953
H2    H     H_    0.758136 0.756079 0.100092 0.364398
Cl2   Cl    Cl    0.824749 0.819937 0.035203 -0.525508
O23   O     O_3   0.376709 0.741251 0.373420 -0.604461
H3    H     H_    0.408340 0.756644 0.411759 0.330012
O24   O     O_3   0.416643 0.662154 0.442551 -0.614923
H4    H     H_    0.532889 0.680087 0.430073 0.319392
Cl3   Cl    Cl    0.865280 0.527639 0.343603 -0.470465
O25   O     O_3   0.860933 0.614487 0.280617 -0.555453
H5    H     H_    0.824746 0.650878 0.269797 0.324058
O26   O     O_3   0.335852 0.437316 0.638611 -0.597538
H6    H     H_    0.262092 0.423635 0.604919 0.307500
Cl4   Cl    Cl    0.288630 0.374049 0.721579 -0.447204
O27   O     O_3   0.905750 0.269041 0.634603 -0.587422
H7    H     H_    0.950639 0.254210 0.597257 0.330886
Cl5   Cl    Cl    0.358224 0.819264 0.918871 -0.469489
O28   O     O_3   0.938848 0.348208 0.565268 -0.626272
H8    H     H_    0.055075 0.334597 0.580933 0.307280
O29   O     O_3   0.300424 0.220074 0.856321 -0.586348
H9    H     H_    0.178454 0.205326 0.868888 0.332900
O30   O     O_3   0.306052 0.156631 0.938765 -0.616727
H10   H     H_    0.264232 0.198486 0.946748 0.330321
O31   O     O_3   0.888129 0.059225 0.860147 -0.575743
H11   H     H_    0.971624 0.075782 0.891557 0.316400
Cl6   Cl    Cl    0.941395 0.123313 0.777563 -0.474033
Cl7   Cl    Cl    0.824426 0.059283 0.170660 -0.533469
Cl8   Cl    Cl    0.347303 0.194556 0.080673 -0.584719
O32   O     O_3   0.466856 0.311650 0.129648 -0.593846
H12   H     H_    0.567637 0.290770 0.104754 0.346705
O33   O     O_3   0.437967 0.398311 0.222380 -0.555071
H13   H     H_    0.364889 0.397444 0.189264 0.369944
Cl9   Cl    Cl    0.425802 0.444079 0.328532 -0.483409
O34   O     O_3   0.576011 0.757329 0.836765 -0.569858
H14   H     H_    0.642289 0.719999 0.837347 0.365071
O35   O     O_3   0.817063 0.302625 0.412201 -0.578289
H15   H     H_    0.756175 0.326995 0.444971 0.298668
Cl10  Cl    Cl    0.857800 0.184435 0.377792 -0.411371
O36   O     O_3   0.768314 0.101661 0.281150 -0.538286
H16   H     H_    0.654709 0.077822 0.264532 0.369556
Cl11  Cl    Cl    0.654150 0.659034 0.741486 -0.555706
O37   O     O_3   0.389773 0.590276 0.675288 -0.567443
H17   H     H_    0.324976 0.553237 0.655657 0.327286
O38   O     O_3   0.905574 0.683422 0.588138 -0.578166
H18   H     H_    0.980422 0.666236 0.555272 0.293759
Cl12  Cl    Cl    0.658744 0.767951 0.639981 -0.469303
O39   O     O_3   0.730347 0.865948 0.727799 -0.558045
H19   H     H_    0.812675 0.902247 0.735695 0.355805
Cl13  Cl    Cl    0.338976 0.978260 0.160165 -0.495245

loop_
_geom_bond_atom_site_label_1
_geom_bond_atom_site_label_2
_ccdc_geom_bond_type
C2    C63   S    
C9    C14   A    
C55   C56   A    
N2    C27   A    
O17   V3    S    
C35   C36   A    
C10   C17   A    
C6    C67   S    
C27   N3    A    
O18   C67   A    
C4    C19   S    
C1    O6    A    
C50   C65   S    
O19   C68   A    
O11   C66   A    
N5    C42   A    
C37   C38   A    
O28   H8    S    
C14   C15   A    
C22   O21   S    
C11   O34   S    
C63   C64   A    
C57   C62   A    
C16   C17   A    
C22   C23   A    
C52   C55   A    
O5    C3    A    
C59   C64   A    
O12   C65   A    
C20   O38   S    
C12   Cl11  S    
V2    O10   S    
O13   V3    S    
O14   V3    S    
C18   O37   S    
C6    C7    A    
C53   C54   A    
C62   Cl9   S    
C5    Cl1   S    
O22   H2    S    
O12   V3    S    
C30   C31   A    
O8    V2    S    
C65   O16   A    
O23   H3    S    
C50   C51   A    
O1    V2    S    
O14   C66   A    
O7    V1    S    
O17   V4    S    
N8    C42   A    
C57   C58   A    
C52   C53   A    
O13   C68   A    
C61   O36   S    
C46   C47   A    
C7    Cl5   S    
C41   N7    A    
O9    C4    A    
C1    C40   S    
O21   H1    S    
O36   H16   S    
C3    C31   S    
O25   H5    S    
O19   V4    S    
C55   O32   S    
O15   V3    S    
C39   O28   S    
C36   Cl4   S    
C16   Cl12  S    
C35   O26   S    
C47   C48   A    
C12   C13   A    
C21   Cl13  S    
N1    N2    A    
O4    C2    A    
C58   C59   A    
C60   C61   A    
N6    C41   A    
C44   O30   S    
C17   O39   S    
C46   O31   S    
N7    N8    A    
C23   C24   A    
O2    C1    A    
N4    C28   A    
C25   C26   A    
O11   V4    S    
C41   C48   S    
C37   C42   S    
C31   C32   A    
C8    C11   A    
V3    O20   S    
C53   C58   A    
C39   C40   A    
C5    C6    A    
C26   C68   S    
C49   C54   A    
O37   H17   S    
C56   C57   A    
O15   C67   A    
C23   C28   S    
O3    C4    A    
C33   O25   S    
C32   C33   A    
C62   C63   A    
O6    V2    S    
O9    V2    S    
O33   H13   S    
C56   O33   S    
C59   C60   A    
C30   O24   S    
N3    N4    A    
C54   C61   A    
O32   H12   S    
O2    V1    S    
C47   Cl6   S    
C27   C34   S    
C43   O29   S    
C36   C37   A    
O38   H18   S    
C13   C18   A    
C45   C66   S    
C38   C39   A    
C24   C25   A    
C15   C20   A    
O1    C2    A    
C19   C20   A    
C35   C40   A    
O34   H14   S    
O5    V1    S    
O8    C3    A    
O26   H6    S    
N1    C28   A    
C43   C48   A    
O27   H7    S    
C5    C10   A    
V4    O20   S    
C24   O22   S    
C44   C45   A    
C7    C8    A    
C13   C14   A    
C25   Cl2   S    
O3    V1    S    
C60   Cl10  S    
O39   H19   S    
C51   Cl8   S    
N5    N6    A    
C18   C19   A    
C29   C34   A    
O31   H11   S    
C21   C22   A    
O18   V4    S    
C45   C46   A    
O7    V2    S    
C49   C50   A    
O35   H15   S    
C11   C12   A    
C64   O35   S    
C43   C44   A    
C29   C30   A    
O4    V1    S    
C32   Cl3   S    
C51   C52   A    
C8    C9    A    
C49   Cl7   S    
C33   C34   A    
C38   O27   S    
O24   H4    S    
C15   C16   A    
C21   C26   A    
V1    O10   S    
O29   H9    S    
C9    C10   A    
C29   O23   S    
O16   V4    S    
O30   H10   S    
