data_mof_unit_39838.cif
_audit_creation_date              2012-12-11T16:04:54-0500
_audit_creation_method            fapswitch 2.2
_symmetry_space_group_name_H-M    P1
_symmetry_Int_Tables_number       1
_space_group_crystal_system       triclinic
_cell_length_a                    10.613229
_cell_length_b                    10.689569
_cell_length_c                    16.899727
_cell_angle_alpha                 98.73974
_cell_angle_beta                  98.939822
_cell_angle_gamma                 61.622258
_cell_volume                      1659.66238181

loop_
_atom_site_label
_atom_site_type_symbol
_atom_type_description
_atom_site_fract_x
_atom_site_fract_y
_atom_site_fract_z
_atom_type_partial_charge
C1    C     C_R   0.378378 0.713680 0.386408 0.564530
C2    C     C_3   0.481083 0.697807 0.254856 -0.196022
C3    C     C_3   0.358222 0.765613 0.309283 0.029682
C4    C     C_R   0.370347 0.346112 0.358977 0.550155
C5    C     C_3   0.323079 0.914959 0.290775 -0.159282
C6    C     C_3   0.218109 0.902342 0.220258 -0.084536
C7    C     C_3   0.253098 0.753531 0.239301 0.274230
C8    C     C_3   0.374535 0.683615 0.183484 -0.134217
C9    C     C_3   0.339383 0.832575 0.164746 0.015870
C10   C     C_3   0.483161 0.271246 0.791294 -0.107406
C11   C     C_3   0.440547 0.416110 0.760148 -0.155965
C12   C     C_3   0.740404 0.368661 0.251943 -0.108297
C13   C     C_3   0.378880 0.366675 0.680677 0.043102
C14   C     C_3   0.421493 0.222639 0.711081 -0.095629
C15   C     C_3   0.272334 0.288142 0.742174 -0.109433
C16   C     C_R   0.782195 0.374338 0.404265 0.545725
C17   C     C_3   0.229571 0.432833 0.711219 -0.102333
C18   C     C_3   0.290769 0.481223 0.792468 -0.126935
C19   C     C_3   0.334220 0.336413 0.821978 0.051846
C20   C     C_1   0.817524 0.342202 0.709632 -0.044076
C21   C     C_1   0.843632 0.314903 0.778111 -0.048214
C22   C     C_1   0.357608 0.766193 0.714523 -0.045334
C23   C     C_3   0.844920 0.335762 0.328529 0.007490
C24   C     C_1   0.326001 0.812324 0.782047 -0.044738
C25   C     C_R   0.960275 0.283798 0.102605 0.549392
C26   C     C_R   0.319905 0.299119 0.120138 0.564887
C27   C     C_R   0.297513 0.887286 0.086937 0.534505
C28   C     C_R   0.379460 0.716522 0.631865 0.533361
C29   C     C_R   0.884320 0.299531 0.861047 0.548678
C30   C     C_R   0.311181 0.296671 0.894604 0.554007
C31   C     C_R   0.282291 0.880413 0.859718 0.539347
C32   C     C_R   0.408811 0.377197 0.601422 0.540973
C33   C     C_R   0.774163 0.379841 0.629584 0.533546
C34   C     C_3   0.945740 0.190162 0.289861 -0.128880
C35   C     C_1   0.345876 0.333475 0.275097 0.021954
C36   C     C_1   0.333977 0.324046 0.203814 0.031973
C37   C     C_3   0.842455 0.225099 0.212046 0.290320
C38   C     C_3   0.026217 0.261925 0.260133 -0.204982
C39   C     C_3   0.923794 0.407910 0.300908 -0.106578
C40   C     C_3   0.819416 0.441004 0.223598 -0.135894
C41   C     C_3   0.920629 0.296524 0.183425 0.021782
C42   C     C_3   0.444250 0.848032 0.234158 -0.126625
Cr1   Cr    Cr6+3 0.608340 0.611040 0.520430 1.024528
Cr2   Cr    Cr6+3 0.287650 0.601120 0.489350 1.061489
Cr3   Cr    Cr6+3 0.604040 0.287870 0.490280 1.041269
Cr4   Cr    Cr6+3 0.054020 0.052700 0.970850 1.099492
Cr5   Cr    Cr6+3 0.059230 0.375120 0.993390 1.086230
Cr6   Cr    Cr6+3 0.374950 0.061200 0.992340 1.066574
H1    H     H_    0.623128 0.404223 0.249177 0.125241
H2    H     H_    0.996249 0.092125 0.321886 0.179590
H3    H     H_    0.144235 0.218519 0.261094 0.102347
H4    H     H_    0.957573 0.482946 0.339103 0.173411
H5    H     H_    0.768592 0.543461 0.195484 0.158634
H6    H     H_    0.588784 0.629695 0.281993 0.133040
H7    H     H_    0.524376 0.884822 0.229540 0.142954
H8    H     H_    0.300300 0.008065 0.336034 0.132418
H9    H     H_    0.890656 0.844649 0.281149 0.373221
H10   H     H_    0.663616 0.000902 0.177967 0.363992
H11   H     H_    0.109981 0.983630 0.200231 0.179215
H12   H     H_    0.398236 0.588840 0.139345 0.137860
H13   H     H_    0.510567 0.468409 0.765595 0.099642
H14   H     H_    0.586997 0.205789 0.825675 0.147829
H15   H     H_    0.474658 0.116092 0.677306 0.149380
H16   H     H_    0.202333 0.235577 0.736262 0.119186
H17   H     H_    0.125909 0.498559 0.676821 0.143550
H18   H     H_    0.237386 0.586057 0.827810 0.138644
O1    O     O_R   0.751220 0.499230 0.435170 -0.527900
O2    O     O_R   0.412990 0.180750 0.091610 -0.469565
O3    O     O_R   0.366620 0.943130 0.065760 -0.516416
O4    O     O_R   0.477220 0.727600 0.436870 -0.493978
O5    O     O_R   0.160510 0.906330 0.879210 -0.509707
O6    O     O_R   0.930190 0.179050 0.889450 -0.488744
O7    O     O_R   0.909140 0.398170 0.896710 -0.500023
O8    O     O_R   0.186190 0.363460 0.918830 -0.499923
O9    O     O_R   0.401670 0.173200 0.913310 -0.497022
O10   O     O_R   0.356120 0.936130 0.900470 -0.491512
O11   O     O_3   0.162740 0.163010 0.985530 -0.310432
O12   O     O_R   0.297880 0.469080 0.560050 -0.515555
O13   O     O_R   0.258650 0.745120 0.411470 -0.456617
O14   O     O_R   0.297070 0.467240 0.395960 -0.467486
O15   O     O_R   0.488830 0.252610 0.387790 -0.493854
O16   O     O_R   0.724400 0.302390 0.420980 -0.478798
O17   O     O_R   0.752100 0.501210 0.612190 -0.511910
O18   O     O_R   0.478040 0.729440 0.600970 -0.481640
O19   O     O_R   0.259530 0.747110 0.588490 -0.498395
O20   O     O_2   0.052836 0.696046 0.147051 -0.237204
O21   O     O_2   0.124134 0.605771 0.279314 -0.322269
O22   O     O_3   0.962970 0.874169 0.273268 -0.498169
O23   O     O_R   0.489720 0.254590 0.564810 -0.508494
O24   O     O_2   0.663837 0.205164 0.086123 -0.278789
O25   O     O_2   0.883805 0.985557 0.115177 -0.219184
O26   O     O_3   0.679421 0.078779 0.209910 -0.523201
O27   O     O_R   0.725220 0.304230 0.585080 -0.510789
O28   O     O_3   0.500010 0.500010 0.500020 -0.327961
O29   O     O_R   0.171830 0.913880 0.057510 -0.483039
O30   O     O_R   0.940690 0.186050 0.054730 -0.439576
O31   O     O_R   0.920470 0.405720 0.075010 -0.490657
O32   O     O_R   0.196690 0.370460 0.084120 -0.484933
S1    S     S_3+6 0.097421 0.726258 0.233652 0.023349
S2    S     S_3+6 0.767478 0.119692 0.151991 0.048678

loop_
_geom_bond_atom_site_label_1
_geom_bond_atom_site_label_2
_ccdc_geom_bond_type
C5    C42   S    
C11   C18   S    
C28   O18   A    
C34   C37   S    
Cr1   O17   S    
Cr6   O10   S    
C13   C32   S    
C27   O29   A    
Cr3   O16   S    
Cr6   O3    S    
Cr3   O27   S    
C6    C9    S    
C12   H1    S    
C7    C8    S    
C15   C19   S    
C12   C23   S    
C9    C27   S    
C9    C42   S    
Cr5   O32   S    
C7    S1    S    
C4    O14   A    
C3    C7    S    
C38   C39   S    
C30   O8    A    
C29   O7    A    
Cr1   O28   S    
C18   C19   S    
C12   C37   S    
C5    H8    S    
C4    O15   A    
C35   C36   T    
C8    C9    S    
C15   H16   S    
O25   S2    D    
Cr3   O23   S    
Cr4   O6    S    
C27   O3    A    
C29   O6    A    
C16   C23   S    
C31   O5    A    
C39   H4    S    
C4    C35   S    
C22   C28   S    
C13   C14   S    
Cr1   O18   S    
Cr6   O9    S    
C10   H14   S    
Cr3   O28   S    
O24   S2    D    
O21   S1    D    
C2    C8    S    
C34   H2    S    
Cr4   O29   S    
Cr2   O14   S    
Cr5   O7    S    
C38   C41   S    
C10   C14   S    
C25   C41   S    
C39   C40   S    
C38   H3    S    
C11   H13   S    
C21   C29   S    
C1    C3    S    
Cr6   O11   S    
C12   C40   S    
C42   H7    S    
C32   O23   A    
C10   C19   S    
C23   C34   S    
C16   O16   A    
C17   C18   S    
C16   O1    A    
Cr6   O2    S    
O20   S1    D    
C33   O17   A    
Cr4   O5    S    
C26   O32   A    
C20   C33   S    
C25   O31   A    
C40   C41   S    
Cr1   O4    S    
C2    H6    S    
C1    O13   A    
C22   C24   T    
Cr5   O11   S    
Cr2   O19   S    
O26   S2    S    
C26   C36   S    
C15   C17   S    
C34   C38   S    
C6    H11   S    
Cr2   O13   S    
Cr3   O15   S    
Cr5   O8    S    
C3    C5    S    
C33   O27   A    
Cr4   O11   S    
C6    C7    S    
C18   H18   S    
C17   H17   S    
C1    O4    A    
Cr5   O31   S    
H9    O22   S    
C13   C17   S    
C26   O2    A    
Cr2   O12   S    
C2    C3    S    
C24   C31   S    
C8    H12   S    
C30   O9    A    
C11   C13   S    
C31   O10   A    
C5    C6    S    
C2    C42   S    
C23   C39   S    
C14   H15   S    
C37   C41   S    
O22   S1    S    
Cr2   O28   S    
C10   C11   S    
C32   O12   A    
Cr4   O30   S    
C20   C21   T    
C25   O30   A    
Cr1   O1    S    
C40   H5    S    
C28   O19   A    
C14   C15   S    
C19   C30   S    
H10   O26   S    
C37   S2    S    
