data_mof_unit_32435.cif
_audit_creation_date              2012-12-10T19:04:12-0500
_audit_creation_method            fapswitch 2.2
_symmetry_space_group_name_H-M    P1
_symmetry_Int_Tables_number       1
_space_group_crystal_system       triclinic
_cell_length_a                    10.661425
_cell_length_b                    10.832811
_cell_length_c                    9.573098
_cell_angle_alpha                 90.117248
_cell_angle_beta                  89.646482
_cell_angle_gamma                 90.551937
_cell_volume                      1105.55321526

loop_
_atom_site_label
_atom_site_type_symbol
_atom_type_description
_atom_site_fract_x
_atom_site_fract_y
_atom_site_fract_z
_atom_type_partial_charge
C1    C     C_R   0.503566 0.262404 0.499634 0.867465
C2    C     C_3   0.960704 0.488251 0.366552 -0.254194
C3    C     C_3   0.042274 0.391269 0.443308 -0.297654
C4    C     C_3   0.123586 0.498155 0.501893 -0.272221
C5    C     C_R   0.502288 0.063676 0.623601 -0.155885
C6    C     C_R   0.517103 0.129158 0.498920 -0.038422
C7    C     C_R   0.549890 0.063828 0.375851 0.444700
C8    C     C_R   0.547179 0.934091 0.378003 -0.259226
C9    C     C_R   0.514542 0.870460 0.500680 -0.025966
C10   C     C_R   0.501285 0.936772 0.624496 -0.011145
C11   C     C_3   0.401816 0.930274 0.734990 0.483059
C12   C     C_R   0.259735 0.499499 0.500546 0.937018
C13   C     C_3   0.403182 0.070611 0.734568 0.440247
C14   C     C_R   0.542863 0.600581 0.073378 -0.077036
C15   C     C_R   0.441746 0.408586 0.074095 0.740433
C16   C     C_R   0.442202 0.408559 0.925515 -0.093884
C17   C     C_R   0.543037 0.600437 0.926457 0.097627
C18   C     C_3   0.669657 0.660533 0.920775 0.807371
C19   C     C_3   0.669084 0.661169 0.079640 0.365667
C20   C     C_R   0.502107 0.737477 0.500145 0.878016
C21   C     C_R   0.740375 0.499197 0.499559 0.928626
C22   C     C_3   0.038946 0.507908 0.631349 0.264043
C23   C     C_3   0.957348 0.403303 0.573552 0.321904
C24   C     C_3   0.876752 0.498367 0.498511 -0.266263
C25   C     C_3   0.958974 0.603696 0.556462 0.528817
C26   C     C_3   0.043424 0.593580 0.426308 0.594177
Cu1   Cu    Cu3+1 0.499990 0.499980 0.640670 1.089084
Cu2   Cu    Cu3+1 0.500010 0.500020 0.359330 1.109055
H1    H     H_    0.434621 0.888699 0.834137 0.070393
H2    H     H_    0.437326 0.112469 0.833492 0.050231
H3    H     H_    0.396496 0.333942 0.869990 0.180720
H4    H     H_    0.667931 0.754813 0.126522 0.082456
H5    H     H_    0.929504 0.479248 0.256849 0.273650
H6    H     H_    0.078325 0.303738 0.398712 0.235897
H7    H     H_    0.565665 0.883625 0.282719 0.145554
N1    N     N_R   0.500800 0.500930 0.147930 -0.202547
N2    N     N_R   0.500800 0.500890 0.852020 -0.211250
O1    O     O_R   0.500000 0.319640 0.618810 -0.604893
O2    O     O_R   0.500010 0.319680 0.381230 -0.490769
O3    O     O_R   0.316850 0.499950 0.618770 -0.538100
O4    O     O_R   0.316860 0.499990 0.381190 -0.548880
O5    O     O_R   0.499990 0.680320 0.618770 -0.553235
O6    O     O_R   0.500000 0.680360 0.381190 -0.605309
O7    O     O_R   0.683140 0.500010 0.618810 -0.519397
O8    O     O_R   0.683150 0.500050 0.381230 -0.537916
O9    O     O_3   0.908662 0.304710 0.651452 -0.660043
H8    H     H_    0.982792 0.259408 0.685402 0.376875
F1    F     F_    0.292710 0.120535 0.685450 -0.589449
F2    F     F_    0.382043 0.315482 0.142281 -0.622101
O10   O     O_3   0.762203 0.584655 0.863339 -0.649572
H9    H     H_    0.841740 0.632395 0.870442 0.380811
F3    F     F_    0.667373 0.777232 0.861895 -0.680987
F4    F     F_    0.758916 0.584676 0.134859 -0.633773
O11   O     O_3   0.083014 0.517774 0.768294 -0.638135
H10   H     H_    0.012578 0.490297 0.828973 0.363682
F5    F     F_    0.915202 0.712651 0.613271 -0.567659
F6    F     F_    0.090454 0.692444 0.350627 -0.571585
O12   O     O_3   0.579933 0.126961 0.254659 -0.663100
H11   H     H_    0.599573 0.066935 0.179471 0.333586
F7    F     F_    0.290638 0.879985 0.685364 -0.550570

loop_
_geom_bond_atom_site_label_1
_geom_bond_atom_site_label_2
_ccdc_geom_bond_type
C15   C16   A    
C12   O3    A    
C13   F1    S    
C4    C26   S    
C23   C24   S    
C12   O4    A    
C4    C12   S    
C21   O7    A    
C4    C22   S    
C9    C10   A    
C13   H2    S    
C7    O12   S    
C20   O5    A    
Cu1   O5    S    
C25   F5    S    
Cu1   O3    S    
Cu2   N1    S    
C5    C13   S    
C19   F4    S    
C17   C18   S    
O12   H11   S    
C18   F3    S    
C5    C10   A    
C2    C26   S    
C23   O9    S    
C17   N2    A    
C3    C4    S    
C16   H3    S    
C2    C24   S    
C11   C13   S    
C14   C17   A    
C18   O10   S    
C6    C7    A    
C1    O1    A    
Cu1   N2    S    
C19   H4    S    
C14   C19   S    
C2    H5    S    
C2    C3    S    
C21   O8    A    
C15   F2    S    
C14   N1    A    
C5    C6    A    
C26   F6    S    
Cu2   O8    S    
C10   C11   S    
C1    O2    A    
Cu1   O1    S    
C9    C20   S    
C1    C6    S    
C15   N1    A    
C7    C8    A    
C20   O6    A    
C24   C25   S    
C11   H1    S    
C22   O11   S    
C18   C19   S    
C21   C24   S    
Cu1   Cu2   S    
O9    H8    S    
C3    H6    S    
Cu2   O6    S    
Cu2   O2    S    
O10   H9    S    
C25   C26   S    
O11   H10   S    
C3    C23   S    
Cu1   O7    S    
C8    H7    S    
C22   C23   S    
Cu2   O4    S    
C11   F7    S    
C16   N2    A    
C8    C9    A    
C22   C25   S    
