data_mof_unit_55222.cif
_audit_creation_date              2012-10-26T21:32:57-0400
_audit_creation_method            fapswitch 2.2
_symmetry_space_group_name_H-M    P1
_symmetry_Int_Tables_number       1
_space_group_crystal_system       triclinic
_cell_length_a                    28.145856
_cell_length_b                    18.553079
_cell_length_c                    17.055364
_cell_angle_alpha                 89.810234
_cell_angle_beta                  60.787498
_cell_angle_gamma                 89.701109
_cell_volume                      7773.3437557

loop_
_atom_site_label
_atom_site_type_symbol
_atom_type_description
_atom_site_fract_x
_atom_site_fract_y
_atom_site_fract_z
_atom_type_partial_charge
C1    C     C_R   0.701924 0.268960 0.675847 0.878416
C2    C     C_R   0.961750 0.615230 0.472645 0.428900
C3    C     C_R   0.074003 0.900305 0.934077 0.915305
C4    C     C_R   0.574126 0.599457 0.933852 0.913188
C5    C     C_R   0.425886 0.400521 0.066137 0.915341
C6    C     C_R   0.425997 0.599695 0.065923 0.915303
C7    C     C_R   0.573939 0.400185 0.934193 0.913807
C8    C     C_R   0.561704 0.003782 0.459999 -0.049294
C9    C     C_R   0.469904 0.001082 0.435940 -0.052437
C10   C     C_R   0.030098 0.498917 0.564051 -0.052434
C11   C     C_R   0.938298 0.496216 0.539994 -0.049293
C12   C     C_R   0.544722 0.068339 0.434637 -0.004547
C13   C     C_R   0.928838 0.367081 0.565289 0.425358
C14   C     C_R   0.491272 0.936339 0.449120 0.001059
C15   C     C_R   0.498823 0.066265 0.420064 -0.006641
C16   C     C_R   0.531779 0.939399 0.475027 -0.003846
C17   C     C_R   0.008731 0.563660 0.550867 0.001061
C18   C     C_R   0.955279 0.431659 0.565358 -0.004547
C19   C     C_R   0.968224 0.560598 0.524961 -0.003848
C20   C     C_R   0.001178 0.433735 0.579931 -0.006640
C21   C     C_R   0.620629 0.942498 0.509516 -0.040300
C22   C     C_R   0.395285 0.064073 0.430422 -0.039268
C23   C     C_R   0.394116 0.934113 0.440141 -0.034126
C24   C     C_R   0.025827 0.628310 0.572783 0.442626
C25   C     C_R   0.637442 0.067497 0.461172 -0.022153
C26   C     C_R   0.104716 0.435927 0.569574 -0.039263
C27   C     C_R   0.879372 0.557500 0.490478 -0.040303
C28   C     C_R   0.862557 0.432503 0.538829 -0.022156
C29   C     C_R   0.105886 0.565887 0.559851 -0.034126
C30   C     C_R   0.671825 0.939832 0.508687 -0.183692
C31   C     C_R   0.338618 0.063747 0.458072 -0.181602
C32   C     C_R   0.338247 0.935507 0.461621 -0.179720
C33   C     C_R   0.682592 0.066031 0.477278 -0.182764
C34   C     C_R   0.161383 0.436253 0.541926 -0.181603
C35   C     C_R   0.538253 0.884767 0.527343 0.428895
C36   C     C_R   0.828175 0.560167 0.491312 -0.183691
C37   C     C_R   0.817406 0.433968 0.522725 -0.182764
C38   C     C_R   0.161754 0.564493 0.538375 -0.179719
C39   C     C_R   0.705258 0.000680 0.480082 0.304273
C40   C     C_R   0.309666 0.999929 0.486910 0.300932
C41   C     C_R   0.190334 0.500071 0.513088 0.300931
C42   C     C_R   0.794741 0.499319 0.519919 0.304280
C43   C     C_R   0.607009 0.004311 0.475607 0.071692
C44   C     C_R   0.419600 0.999777 0.436356 0.073489
C45   C     C_R   0.080401 0.500222 0.563636 0.073488
C46   C     C_R   0.482416 0.123212 0.382319 0.450803
C47   C     C_R   0.892992 0.495687 0.524388 0.071694
C48   C     C_R   0.070491 0.375831 0.605981 -0.190446
C49   C     C_R   0.917828 0.613337 0.456322 -0.179788
C50   C     C_R   0.879653 0.369704 0.564860 -0.203233
C51   C     C_R   0.073592 0.628829 0.578703 -0.183792
C52   C     C_R   0.582173 0.886660 0.543668 -0.179790
C53   C     C_R   0.429508 0.124169 0.394018 -0.190443
C54   C     C_R   0.426410 0.871171 0.421285 -0.183793
C55   C     C_R   0.620345 0.130296 0.435143 -0.203237
C56   C     C_R   0.474176 0.871689 0.427203 0.442631
C57   C     C_R   0.571161 0.132918 0.434712 0.425359
C58   C     C_R   0.720678 0.263636 0.953357 -0.082182
C59   C     C_R   0.280165 0.737425 0.045617 -0.073329
C60   C     C_R   0.280214 0.263536 0.045369 -0.065488
C61   C     C_R   0.298260 0.731392 0.324042 0.893998
C62   C     C_R   0.719750 0.736487 0.954688 -0.071031
C63   C     C_R   0.219834 0.762575 0.954383 -0.073329
C64   C     C_R   0.779321 0.236360 0.046644 -0.082194
C65   C     C_R   0.780250 0.763513 0.045312 -0.071031
C66   C     C_R   0.219786 0.236464 0.954631 -0.065488
C67   C     C_R   0.774098 0.289078 0.919670 -0.268831
C68   C     C_R   0.224585 0.720159 0.086126 -0.261748
C69   C     C_R   0.224337 0.279875 0.086018 -0.267941
C70   C     C_R   0.775678 0.720417 0.913830 -0.263884
C71   C     C_R   0.275415 0.779841 0.913874 -0.261748
C72   C     C_R   0.298162 0.268809 0.324167 0.889566
C73   C     C_R   0.725901 0.210921 0.080332 -0.268820
C74   C     C_R   0.724322 0.779583 0.086170 -0.263885
C75   C     C_R   0.275663 0.220125 0.913982 -0.267941
C76   C     C_R   0.803214 0.276035 0.965732 0.439018
C77   C     C_R   0.194547 0.732193 0.041461 0.420840
C78   C     C_R   0.194282 0.266921 0.041632 0.419494
C79   C     C_R   0.805776 0.733352 0.958137 0.425349
C80   C     C_R   0.305452 0.767807 0.958539 0.420840
C81   C     C_R   0.696783 0.223971 0.034274 0.439026
C82   C     C_R   0.694224 0.766648 0.041863 0.425349
C83   C     C_R   0.701854 0.731157 0.675825 0.889252
C84   C     C_R   0.305718 0.233079 0.958368 0.419494
C85   C     C_R   0.643373 0.325433 0.946538 -0.112880
C86   C     C_R   0.356956 0.674797 0.053388 -0.113136
C87   C     C_R   0.356770 0.326252 0.053511 -0.111210
C88   C     C_R   0.643215 0.673747 0.946510 -0.112863
C89   C     C_R   0.143044 0.825203 0.946612 -0.113136
C90   C     C_R   0.856630 0.174571 0.053458 -0.112890
C91   C     C_R   0.856785 0.826253 0.053490 -0.112865
C92   C     C_R   0.143230 0.173748 0.946489 -0.111209
C93   C     C_R   0.616363 0.346712 0.898805 -0.092219
C94   C     C_R   0.201740 0.768607 0.675958 0.894002
C95   C     C_R   0.383856 0.653490 0.101193 -0.088886
C96   C     C_R   0.383623 0.347136 0.101456 -0.088621
C97   C     C_R   0.616403 0.652809 0.898522 -0.091235
C98   C     C_R   0.116144 0.846510 0.898807 -0.088885
C99   C     C_R   0.883638 0.153290 0.101193 -0.092216
C100  C     C_R   0.883597 0.847190 0.101478 -0.091236
C101  C     C_R   0.116377 0.152864 0.898544 -0.088620
C102  C     C_R   0.633190 0.322187 0.813392 -0.213862
C103  C     C_R   0.367230 0.678362 0.186419 -0.216683
C104  C     C_R   0.366935 0.322091 0.186696 -0.214447
C105  C     C_R   0.798076 0.231039 0.324153 0.878425
C106  C     C_R   0.633135 0.677774 0.813242 -0.216400
C107  C     C_R   0.132770 0.821638 0.813581 -0.216683
C108  C     C_R   0.866810 0.177813 0.186608 -0.213860
C109  C     C_R   0.866865 0.822226 0.186758 -0.216398
C110  C     C_R   0.133065 0.177908 0.813304 -0.214449
C111  C     C_R   0.679917 0.281931 0.770718 -0.055683
C112  C     C_R   0.320788 0.719219 0.228783 -0.060609
C113  C     C_R   0.320641 0.281353 0.228904 -0.058992
C114  C     C_R   0.679395 0.718571 0.771074 -0.062192
C115  C     C_R   0.179211 0.780781 0.771217 -0.060609
C116  C     C_R   0.798145 0.768842 0.324175 0.889252
C117  C     C_R   0.820083 0.218067 0.229282 -0.055687
C118  C     C_R   0.820604 0.781429 0.228926 -0.062192
C119  C     C_R   0.179359 0.218647 0.771096 -0.058991
C120  C     C_R   0.708486 0.260686 0.816387 -0.177602
C121  C     C_R   0.292826 0.741466 0.182462 -0.174171
C122  C     C_R   0.292812 0.259517 0.182450 -0.176706
C123  C     C_R   0.707183 0.740471 0.817569 -0.175594
C124  C     C_R   0.207174 0.758534 0.817538 -0.174170
C125  C     C_R   0.791513 0.239311 0.183614 -0.177588
C126  C     C_R   0.792816 0.759529 0.182431 -0.175591
C127  C     C_R   0.201838 0.231191 0.675833 0.889567
C128  C     C_R   0.207188 0.240483 0.817550 -0.176705
C129  C     C_R   0.689773 0.281728 0.905524 0.138495
C130  C     C_R   0.311307 0.719880 0.093418 0.139144
C131  C     C_R   0.311216 0.281305 0.093383 0.139391
C132  C     C_R   0.688752 0.718720 0.906665 0.137201
C133  C     C_R   0.188693 0.780119 0.906582 0.139144
C134  C     C_R   0.810227 0.218271 0.094476 0.138499
C135  C     C_R   0.811248 0.781280 0.093335 0.137201
C136  C     C_R   0.188784 0.218695 0.906617 0.139390
C137  C     C_R   0.704083 0.130726 0.497469 0.927805
C138  C     C_R   0.017583 0.376789 0.617680 0.450802
C139  C     C_R   0.307064 0.871164 0.471326 0.938846
C140  C     C_R   0.307483 0.128943 0.469487 0.930940
C141  C     C_R   0.694872 0.872674 0.522117 0.915468
C142  C     C_R   0.192937 0.628836 0.528673 0.938846
C143  C     C_R   0.795915 0.369273 0.502535 0.927800
C144  C     C_R   0.805128 0.627326 0.477883 0.915466
C145  C     C_R   0.192517 0.371057 0.530513 0.930938
C146  C     C_R   0.074113 0.099479 0.933863 0.915337
C147  C     C_R   0.925874 0.900543 0.066148 0.913192
C148  C     C_R   0.926062 0.099817 0.065805 0.913802
Cl1   Cl    Cl    0.777433 0.996389 0.432465 -0.574573
Cl2   Cl    Cl    0.529579 0.181051 0.298426 -0.481715
Cl3   Cl    Cl    0.516557 0.794659 0.388832 -0.512761
Cl4   Cl    Cl    0.538023 0.217627 0.463985 -0.526841
Cl5   Cl    Cl    0.631404 0.186696 0.077289 -0.507560
Cl6   Cl    Cl    0.374080 0.794930 0.904616 -0.545443
Cl7   Cl    Cl    0.374693 0.206831 0.904250 -0.566545
Cl8   Cl    Cl    0.625162 0.792553 0.096388 -0.547913
Cl9   Cl    Cl    0.125920 0.705070 0.095383 -0.545438
Cl10  Cl    Cl    0.868584 0.313346 0.922741 -0.507534
Cl11  Cl    Cl    0.874838 0.707446 0.903612 -0.547910
Cl12  Cl    Cl    0.239113 0.000477 0.569745 -0.567538
Cl13  Cl    Cl    0.125307 0.293169 0.095750 -0.566547
Cl14  Cl    Cl    0.260887 0.499523 0.430256 -0.567537
Cl15  Cl    Cl    0.722566 0.503611 0.567535 -0.574573
Cl16  Cl    Cl    0.970417 0.318957 0.701582 -0.481729
Cl17  Cl    Cl    0.013511 0.678075 0.409086 -0.511600
Cl18  Cl    Cl    0.961972 0.282367 0.536029 -0.526846
Cl19  Cl    Cl    0.983447 0.705341 0.611151 -0.512768
Cl20  Cl    Cl    0.486492 0.821920 0.590898 -0.511604
H1    H     H_    0.082682 0.330524 0.632266 0.192013
H2    H     H_    0.204662 0.695628 0.152210 0.205176
H3    H     H_    0.204136 0.304349 0.152072 0.199632
H4    H     H_    0.795898 0.696159 0.847650 0.201450
H5    H     H_    0.295338 0.804372 0.847790 0.205176
H6    H     H_    0.707179 0.179516 0.141770 0.199315
H7    H     H_    0.704102 0.803841 0.152350 0.201450
H8    H     H_    0.295864 0.195651 0.847928 0.199633
H9    H     H_    0.629884 0.345205 0.013916 0.177426
H10   H     H_    0.369907 0.653811 0.986716 0.179628
H11   H     H_    0.369756 0.347336 0.986791 0.179391
H12   H     H_    0.916097 0.654240 0.412585 0.205229
H13   H     H_    0.630214 0.652669 0.013236 0.181659
H14   H     H_    0.130093 0.846188 0.013284 0.179629
H15   H     H_    0.870121 0.154804 0.986077 0.177413
H16   H     H_    0.869785 0.847331 0.986764 0.181658
H17   H     H_    0.130244 0.152664 0.013208 0.179391
H18   H     H_    0.745724 0.229402 0.782497 0.173494
H19   H     H_    0.256006 0.773595 0.216041 0.170832
H20   H     H_    0.256172 0.227414 0.215934 0.168913
H21   H     H_    0.743810 0.772601 0.784096 0.172729
H22   H     H_    0.243994 0.726405 0.783959 0.170832
H23   H     H_    0.856822 0.320236 0.581707 0.198651
H24   H     H_    0.754273 0.270592 0.217506 0.173493
H25   H     H_    0.756190 0.727399 0.215904 0.172730
H26   H     H_    0.243828 0.272586 0.784066 0.168913
H27   H     H_    0.611978 0.338869 0.777610 0.194944
H28   H     H_    0.388207 0.661269 0.222430 0.191729
H29   H     H_    0.387831 0.338847 0.222755 0.192615
H30   H     H_    0.612282 0.660943 0.777142 0.194352
H31   H     H_    0.111794 0.838731 0.777570 0.191729
H32   H     H_    0.888022 0.161131 0.222389 0.194943
H33   H     H_    0.887717 0.839058 0.222858 0.194352
H34   H     H_    0.083427 0.678396 0.600257 0.204572
H35   H     H_    0.112168 0.161153 0.777245 0.192613
H36   H     H_    0.583903 0.845759 0.587407 0.205231
H37   H     H_    0.417316 0.169478 0.367736 0.192016
H38   H     H_    0.416574 0.821604 0.399733 0.204568
H39   H     H_    0.643174 0.179765 0.418300 0.198656
H40   H     H_    0.792820 0.320486 0.858234 0.199317
O1    O     O_R   0.746490 0.236330 0.638080 -0.654435
O2    O     O_R   0.325830 0.813840 0.483730 -0.645868
O3    O     O_R   0.325830 0.186160 0.483730 -0.636471
O4    O     O_R   0.674170 0.813840 0.516270 -0.641989
O5    O     O_R   0.174170 0.686160 0.516270 -0.645872
O6    O     O_R   0.825830 0.313840 0.483730 -0.634290
O7    O     O_R   0.825830 0.686160 0.483730 -0.641988
O8    O     O_R   0.174170 0.313840 0.516270 -0.636471
O9    O     O_R   0.739960 0.127620 0.525000 -0.559836
O10   O     O_R   0.260040 0.872380 0.475000 -0.569168
O11   O     O_R   0.260040 0.127620 0.475000 -0.567483
O12   O     O_R   0.253510 0.763670 0.361920 -0.633908
O13   O     O_R   0.739960 0.872380 0.525000 -0.556332
O14   O     O_R   0.239960 0.627620 0.525000 -0.569166
O15   O     O_R   0.760040 0.372380 0.475000 -0.559831
O16   O     O_R   0.760040 0.627620 0.475000 -0.556330
O17   O     O_R   0.239960 0.372380 0.525000 -0.567480
O18   O     O_R   0.680700 0.294870 0.629350 -0.609539
O19   O     O_R   0.319300 0.705130 0.370650 -0.613256
O20   O     O_R   0.319300 0.294870 0.370650 -0.611936
O21   O     O_R   0.680700 0.705130 0.629350 -0.605781
O22   O     O_R   0.180700 0.794870 0.629350 -0.613256
O23   O     O_R   0.253510 0.236330 0.361920 -0.635490
O24   O     O_R   0.819300 0.205130 0.370650 -0.609537
O25   O     O_R   0.819300 0.794870 0.370650 -0.605781
O26   O     O_R   0.180700 0.205130 0.629350 -0.611937
O27   O     O_R   0.062020 0.072840 0.007170 -0.623474
O28   O     O_R   0.937980 0.927160 0.992830 -0.622383
O29   O     O_R   0.937980 0.072840 0.992830 -0.621923
O30   O     O_R   0.062020 0.927160 0.007170 -0.623011
O31   O     O_R   0.562020 0.572840 0.007170 -0.622384
O32   O     O_R   0.437980 0.427160 0.992830 -0.623475
O33   O     O_R   0.437980 0.572840 0.992830 -0.623011
O34   O     O_R   0.746490 0.763670 0.638080 -0.633140
O35   O     O_R   0.562020 0.427160 0.007170 -0.621920
O36   O     O_R   0.947860 0.073950 0.109290 -0.611490
O37   O     O_R   0.052140 0.926050 0.890710 -0.611866
O38   O     O_R   0.052140 0.073950 0.890710 -0.610862
O39   O     O_R   0.947860 0.926050 0.109290 -0.610978
O40   O     O_R   0.447860 0.573950 0.109290 -0.611866
O41   O     O_R   0.552140 0.426050 0.890710 -0.611491
O42   O     O_R   0.552140 0.573950 0.890710 -0.610980
O43   O     O_R   0.447860 0.426050 0.109290 -0.610858
O44   O     O_R   0.246490 0.736330 0.638080 -0.633907
O45   O     O_R   0.753510 0.263670 0.361920 -0.654430
O46   O     O_R   0.753510 0.736330 0.361920 -0.633140
O47   O     O_R   0.246490 0.263670 0.638080 -0.635490
O48   O     O_R   0.674170 0.186160 0.516270 -0.634296
Zn1   Zn    Zn3+2 0.792340 0.208750 0.507670 1.065605
Zn2   Zn    Zn3+2 0.494040 0.500000 0.919480 1.031475
Zn3   Zn    Zn3+2 0.005960 0.000000 0.080520 1.031475
Zn4   Zn    Zn3+2 0.994040 0.000000 0.919480 1.034295
Zn5   Zn    Zn3+2 0.207660 0.791250 0.492330 1.060869
Zn6   Zn    Zn3+2 0.207660 0.208750 0.492330 1.058959
Zn7   Zn    Zn3+2 0.792340 0.791250 0.507670 1.078492
Zn8   Zn    Zn3+2 0.292340 0.708750 0.507670 1.060873
Zn9   Zn    Zn3+2 0.707660 0.291250 0.492330 1.065606
Zn10  Zn    Zn3+2 0.707660 0.708750 0.492330 1.078493
Zn11  Zn    Zn3+2 0.292340 0.291250 0.507670 1.058964
Zn12  Zn    Zn3+2 0.505960 0.500000 0.080520 1.034304

loop_
_geom_bond_atom_site_label_1
_geom_bond_atom_site_label_2
_ccdc_geom_bond_type
C125  C134  A    
C1    O18   A    
C14   C56   A    
O48   Zn9   S    
C48   H1    S    
C28   C47   A    
C65   C79   A    
C5    O32   A    
C137  O9    A    
C123  C132  A    
C104  H29   S    
C122  C131  A    
C64   C73   A    
C11   C47   A    
O12   Zn5   S    
C3    C98   S    
C61   O12   A    
C105  O45   A    
O41   Zn2   S    
C99   C148  S    
C112  C121  A    
C102  H27   S    
C25   C43   A    
C124  H22   S    
C29   C38   A    
O9    Zn1   S    
C59   C130  S    
C116  O46   A    
C103  C112  A    
C99   C108  A    
O36   Zn3   S    
C83   O34   A    
C76   Cl10  S    
C142  O14   A    
C33   C39   A    
C30   C141  S    
C124  C133  A    
C106  C114  A    
C127  O47   A    
C63   C133  S    
C6    O40   A    
C5    C96   S    
C72   O23   A    
C128  H26   S    
C61   C112  S    
C80   Cl6   S    
C128  C136  A    
C16   C35   A    
C143  O15   A    
C90   C134  A    
C84   Cl7   S    
C75   C84   A    
C11   C18   A    
C10   C17   A    
C87   C131  A    
C57   Cl4   S    
C106  H30   S    
C86   H10   S    
C81   Cl5   S    
C31   C40   A    
C62   C70   A    
C69   H3    S    
C20   C138  A    
C73   H6    S    
O37   Zn4   S    
C70   H4    S    
C5    O43   A    
C26   C45   A    
C85   C129  A    
C3    O37   A    
C21   C43   A    
C68   H2    S    
C26   C34   A    
C22   C44   A    
C113  C122  A    
C10   C20   A    
C54   H38   S    
C141  O13   A    
C116  O25   A    
C30   C39   A    
C53   H37   S    
O34   Zn7   S    
C8    C43   A    
C6    O33   A    
C29   C45   A    
C91   C100  A    
C123  H21   S    
C121  C130  A    
C88   C97   A    
C51   H34   S    
C26   C48   A    
O25   Zn7   S    
C49   H12   S    
C82   Cl8   S    
C147  O28   A    
C24   C51   A    
C29   C51   A    
C75   H8    S    
O22   Zn5   S    
O4    Zn10  S    
C100  C109  A    
C8    C16   A    
C41   Cl14  S    
C23   C32   A    
C38   C142  S    
C83   C114  S    
C105  C117  S    
C69   C78   A    
C92   C136  A    
C34   C41   A    
C85   C93   A    
C74   C82   A    
C7    C93   S    
C60   C131  S    
C73   C81   A    
C71   C80   A    
O8    Zn6   S    
C95   C103  A    
O19   Zn8   S    
C37   C42   A    
C22   C53   A    
C64   C134  S    
C36   C42   A    
C139  O2    A    
O2    Zn8   S    
C66   C78   A    
C54   C56   A    
C101  C146  S    
O28   Zn4   S    
C17   C24   A    
C89   C133  A    
C22   C31   A    
C1    O1    A    
C148  O29   A    
C105  O24   A    
C62   C132  S    
C24   Cl19  S    
O35   Zn12  S    
C38   C41   A    
C116  C118  S    
O33   Zn2   S    
C58   C81   A    
C33   C137  S    
C85   H9    S    
C28   C50   A    
C92   H17   S    
C86   C130  A    
C83   O21   A    
C145  O17   A    
O45   Zn9   S    
C101  C110  A    
C87   H11   S    
C72   C113  S    
C67   H40   S    
C65   C74   A    
C120  C129  A    
C91   H16   S    
O5    Zn5   S    
C111  C120  A    
C52   H36   S    
C139  O10   A    
C108  H32   S    
C9    C14   A    
C2    C49   A    
O7    Zn7   S    
C59   C68   A    
C121  H19   S    
C145  O8    A    
C140  O11   A    
O1    Zn1   S    
C2    Cl17  S    
C12   C15   A    
O21   Zn10  S    
C11   C19   A    
C87   C96   A    
O29   Zn4   S    
O3    Zn11  S    
C35   Cl20  S    
C64   C76   A    
O30   Zn3   S    
O6    Zn1   S    
C61   O19   A    
C56   Cl3   S    
C102  C111  A    
C50   H23   S    
C9    C44   A    
C141  O4    A    
C107  C115  A    
C65   C135  S    
C92   C101  A    
C32   C139  S    
C143  O6    A    
C66   C136  S    
C114  C123  A    
C13   C18   A    
C60   C69   A    
C46   Cl2   S    
O23   Zn6   S    
C7    O41   A    
C126  C135  A    
O24   Zn1   S    
C55   C57   A    
C14   C16   A    
C103  H28   S    
C97   C106  A    
C7    O35   A    
C62   C82   A    
C90   C99   A    
C35   C52   A    
O20   Zn11  S    
C27   C49   A    
C94   O22   A    
C23   C54   A    
C117  C125  A    
C63   C77   A    
C27   C47   A    
C68   C77   A    
C39   Cl1   S    
C146  O27   A    
O46   Zn10  S    
C127  O26   A    
C115  C124  A    
C37   C143  S    
C2    C19   A    
C42   Cl15  S    
C93   C102  A    
C108  C117  A    
C40   Cl12  S    
O11   Zn6   S    
C25   C55   A    
C142  O5    A    
C63   C71   A    
O13   Zn7   S    
C120  H18   S    
C110  C119  A    
C144  O7    A    
O39   Zn3   S    
C94   C115  S    
C59   C80   A    
C122  H20   S    
O40   Zn12  S    
C118  C126  A    
C27   C36   A    
C55   H39   S    
C21   C30   A    
C146  O38   A    
C48   C138  A    
C89   C98   A    
O44   Zn8   S    
C89   H14   S    
C96   C104  A    
C9    C15   A    
C4    O42   A    
C74   H7    S    
C119  C128  A    
C107  H31   S    
C60   C84   A    
C126  H25   S    
C88   H13   S    
C70   C79   A    
O47   Zn11  S    
C28   C37   A    
C3    O30   A    
C66   C75   A    
C46   C53   A    
C109  H33   S    
C104  C113  A    
C34   C145  S    
C4    O31   A    
O42   Zn2   S    
O31   Zn12  S    
C125  H24   S    
C18   C20   A    
O15   Zn9   S    
C32   C40   A    
C36   C144  S    
C144  O16   A    
C137  O48   A    
O38   Zn4   S    
C86   C95   A    
C98   C107  A    
O18   Zn9   S    
C147  O39   A    
C13   C50   A    
C17   C19   A    
C71   H5    S    
C58   C67   A    
O26   Zn6   S    
C91   C135  A    
C90   H15   S    
C109  C118  A    
C79   Cl11  S    
O27   Zn3   S    
C6    C95   S    
C72   O20   A    
C10   C45   A    
C77   Cl9   S    
C100  C147  S    
C148  O36   A    
O10   Zn5   S    
C88   C132  A    
C78   Cl13  S    
C110  H35   S    
O16   Zn10  S    
C138  Cl16  S    
C67   C76   A    
C58   C129  S    
C15   C46   A    
O32   Zn2   S    
C31   C140  S    
C4    C97   S    
C12   C57   A    
C94   O44   A    
O43   Zn12  S    
O17   Zn11  S    
C21   C52   A    
C1    C111  S    
C13   Cl18  S    
C8    C12   A    
C140  O3    A    
C25   C33   A    
O14   Zn8   S    
C23   C44   A    
C119  C127  S    
