data_mof_unit_37856.cif
_audit_creation_date              2013-03-05T16:06:21-0500
_audit_creation_method            fapswitch 2.2
_symmetry_space_group_name_H-M    P1
_symmetry_Int_Tables_number       1
_space_group_crystal_system       triclinic
_cell_length_a                    15.019943
_cell_length_b                    15.390748
_cell_length_c                    16.635722
_cell_angle_alpha                 90.832051
_cell_angle_beta                  99.461698
_cell_angle_gamma                 97.943298
_cell_volume                      3754.20567743

loop_
_atom_site_label
_atom_site_type_symbol
_atom_site_description
_atom_site_fract_x
_atom_site_fract_y
_atom_site_fract_z
_atom_type_partial_charge
O1    O     O_R   0.615140 0.606020 0.522930 -0.553452
O2    O     O_R   0.384860 0.393980 0.477070 -0.577816
O3    O     O_R   0.468580 0.639400 0.493740 -0.633497
O4    O     O_R   0.531420 0.360600 0.506260 -0.639717
C1    C     C_R   0.556871 0.662523 0.513443 0.894867
C2    C     C_R   0.442765 0.337639 0.490819 0.878201
O5    O     O_R   0.581950 0.481350 0.400520 -0.570315
O6    O     O_R   0.418050 0.518650 0.599480 -0.551480
O7    O     O_R   0.435380 0.514730 0.371330 -0.635794
O8    O     O_R   0.564620 0.485270 0.628670 -0.632986
C3    C     C_R   0.509562 0.493901 0.349118 0.869263
C4    C     C_R   0.487738 0.499009 0.650350 0.852256
Zn1   Zn    Zn3+2 0.597860 0.477710 0.519490 0.990625
Zn2   Zn    Zn3+2 0.402140 0.522290 0.480510 0.987234
C5    C     C_R   0.505168 0.467579 0.264170 -0.035939
C6    C     C_R   0.472973 0.475483 0.731763 -0.030636
C7    C     C_R   0.420763 0.431154 0.218940 -0.214106
C8    C     C_R   0.515037 0.406959 0.768728 -0.197544
C9    C     C_R   0.415980 0.395929 0.141009 -0.154406
C10   C     C_R   0.493879 0.376196 0.842142 -0.152507
C11   C     C_R   0.495347 0.399322 0.106279 0.203803
C12   C     C_R   0.432210 0.415406 0.880538 0.189798
C13   C     C_R   0.580137 0.433016 0.152456 -0.177360
C14   C     C_R   0.387869 0.481882 0.842197 -0.151313
C15   C     C_R   0.585154 0.466762 0.231319 -0.181974
C16   C     C_R   0.408046 0.511775 0.767935 -0.119302
C17   C     C_2   0.491052 0.378527 0.019473 -0.234060
C18   C     C_2   0.420647 0.396290 0.964388 -0.225905
H1    H     H_    0.358613 0.427585 0.244615 0.157664
H2    H     H_    0.562400 0.375439 0.739771 0.149273
H3    H     H_    0.373610 0.563442 0.739079 0.177670
H4    H     H_    0.651125 0.492593 0.266350 0.172020
H5    H     H_    0.360800 0.416011 0.984200 0.149196
H6    H     H_    0.554322 0.367215 0.000275 0.147290
H7    H     H_    0.642077 0.435870 0.126540 0.128703
H8    H     H_    0.339953 0.512700 0.871041 0.134877
H9    H     H_    0.526417 0.322489 0.868912 0.130240
H10   H     H_    0.350103 0.367099 0.107927 0.130061
C19   C     C_R   0.588904 0.755225 0.535615 -0.086107
C20   C     C_R   0.407427 0.245202 0.497333 -0.065983
C21   C     C_R   0.703824 0.872337 0.602341 -0.016210
C22   C     C_R   0.282068 0.125190 0.486614 -0.006482
C23   C     C_R   0.678215 0.784717 0.574070 -0.196434
C24   C     C_R   0.314234 0.214002 0.478794 -0.201819
C25   C     C_R   0.524613 0.812710 0.526651 -0.267088
C26   C     C_R   0.468667 0.188857 0.527170 -0.274894
C27   C     C_R   0.545339 0.898007 0.559825 0.079732
C28   C     C_R   0.439469 0.100854 0.538829 0.081628
C29   C     C_R   0.637084 0.930123 0.594576 0.118429
C30   C     C_R   0.345374 0.067340 0.515474 0.117232
C31   C     C_R   0.476960 0.953275 0.554570 0.080599
C32   C     C_R   0.503721 0.044228 0.566779 0.087773
C33   C     C_R   0.594015 0.075271 0.605094 -0.234423
C34   C     C_R   0.382828 0.920677 0.537575 -0.234691
C35   C     C_R   0.658709 0.018525 0.621041 -0.240165
C36   C     C_R   0.318022 0.977193 0.521282 -0.237094
H11   H     H_    0.726280 0.045435 0.651724 0.155977
H12   H     H_    0.246905 0.948914 0.509999 0.167956
H13   H     H_    0.540413 0.213910 0.538004 0.160630
H14   H     H_    0.457750 0.790210 0.492269 0.165877
H15   H     H_    0.266505 0.258324 0.456085 0.174597
H16   H     H_    0.728014 0.739625 0.582524 0.214802
H17   H     H_    0.615475 0.142983 0.625611 0.139096
H18   H     H_    0.357697 0.851514 0.538721 0.158384
N1    N     N_R   0.271750 0.551950 0.454510 -0.145832
N2    N     N_R   0.728250 0.448050 0.545490 -0.143434
C37   C     C_R   0.166099 0.619537 0.362467 -0.307126
C38   C     C_R   0.819903 0.339421 0.594112 -0.308002
C39   C     C_R   0.254493 0.604356 0.390671 -0.065827
C40   C     C_R   0.737886 0.372797 0.585373 -0.055899
C41   C     C_R   0.204752 0.511829 0.493034 0.374204
C42   C     C_R   0.797165 0.494054 0.513107 0.379739
C43   C     C_R   0.112420 0.517742 0.461250 -0.102211
C44   C     C_R   0.879187 0.458200 0.513063 -0.100877
C45   C     C_R   0.094689 0.576428 0.397575 0.141279
C46   C     C_R   0.890811 0.381683 0.557886 0.144640
C47   C     C_R   0.037479 0.468924 0.490603 0.094696
C48   C     C_R   0.949922 0.495142 0.471052 0.092343
C49   C     C_R   0.934451 0.550921 0.405189 -0.144283
C50   C     C_R   0.044989 0.390384 0.532239 -0.144597
C51   C     C_R   0.005591 0.590247 0.368607 -0.196134
C52   C     C_R   0.972538 0.347108 0.564722 -0.201743
H19   H     H_    0.990819 0.632357 0.317882 0.144753
H20   H     H_    0.980888 0.286712 0.596021 0.137052
H21   H     H_    0.681068 0.338152 0.609671 0.141628
H22   H     H_    0.309884 0.634187 0.361597 0.156144
H23   H     H_    0.153427 0.663029 0.312499 0.151704
H24   H     H_    0.827018 0.279820 0.627023 0.148075
H25   H     H_    0.866920 0.560301 0.377100 0.187151
H26   H     H_    0.104405 0.357949 0.535645 0.181385
N3    N     N_R   0.789818 0.582407 0.490054 0.188814
O9    O     O_R   0.847572 0.646716 0.527857 -0.416324
O10   O     O_R   0.734168 0.598052 0.425091 -0.419700
N4    N     N_R   0.229647 0.475546 0.570965 0.196571
O11   O     O_R   0.205841 0.508827 0.635206 -0.414134
O12   O     O_R   0.266034 0.403512 0.576797 -0.417276
C53   C     C_R   0.799881 0.899923 0.641117 0.117763
C54   C     C_R   0.835741 0.860578 0.712660 -0.137021
C55   C     C_R   0.926780 0.884991 0.748859 -0.117483
C56   C     C_R   0.982698 0.948456 0.713745 -0.098313
C57   C     C_R   0.947762 0.987348 0.642211 -0.132008
C58   C     C_R   0.856811 0.962920 0.605557 -0.150872
H27   H     H_    0.793075 0.811296 0.740472 0.128540
H28   H     H_    0.953974 0.854702 0.804136 0.131580
H29   H     H_    0.053144 0.967390 0.741872 0.129572
H30   H     H_    0.991350 0.036341 0.615297 0.138934
H31   H     H_    0.830761 0.992992 0.549712 0.129729
C59   C     C_R   0.182926 0.095903 0.460765 0.111244
C60   C     C_R   0.119324 0.135826 0.496338 -0.160369
C61   C     C_R   0.025834 0.112198 0.469018 -0.162708
C62   C     C_R   0.995046 0.048305 0.406420 -0.087446
C63   C     C_R   0.057746 0.008937 0.370102 -0.119702
C64   C     C_R   0.151347 0.033203 0.396484 -0.171884
H32   H     H_    0.142183 0.185475 0.544934 0.144674
H33   H     H_    0.977214 0.143298 0.496516 0.124306
H34   H     H_    0.922631 0.029739 0.385698 0.127059
H35   H     H_    0.033828 0.960136 0.321005 0.130642
H36   H     H_    0.199168 0.003568 0.366565 0.132729

loop_
_geom_bond_atom_site_label_1
_geom_bond_atom_site_label_2
_geom_bond_distance
_ccdc_geom_bond_type
C25   H14   1.079305 S    
C57   C58   1.398879 A    
C26   H13   1.077820 S    
C7    H1    1.083719 S    
C62   C63   1.397556 A    
C53   C54   1.404861 A    
C27   C29   1.420909 A    
C41   N4    1.432386 S    
C47   C48   1.417015 A    
O5    C3    1.306845 A    
C56   H29   1.082351 S    
C14   H8    1.083738 S    
C44   C46   1.418766 A    
O1    C1    1.309979 A    
C12   C14   1.401693 A    
C9    C11   1.402748 A    
C14   C16   1.389516 A    
C28   C32   1.415537 A    
C63   H35   1.082322 S    
C5    C15   1.400706 A    
C54   H27   1.083220 S    
C59   C60   1.406376 A    
C25   C27   1.390824 A    
O4    Zn1   1.926688 S    
C61   C62   1.396972 A    
C3    C5    1.452869 S    
C11   C13   1.401843 A    
N2    C42   1.361912 A    
C4    C6    1.451000 S    
C62   H34   1.082348 S    
C8    H2    1.083850 S    
C53   C58   1.405352 A    
C19   C25   1.389281 A    
C15   H4    1.083534 S    
C28   C30   1.423578 A    
C55   H28   1.082295 S    
C11   C17   1.463630 S    
C16   H3    1.083264 S    
C12   C18   1.462840 S    
C21   C23   1.402304 A    
O2    C2    1.307461 A    
C22   C24   1.400719 A    
C21   C29   1.421155 A    
C63   C64   1.398524 A    
C51   H19   1.084165 S    
C34   C36   1.389840 A    
Zn1   N2    2.050687 S    
C33   C35   1.390639 A    
C17   H6    1.085951 S    
C6    C16   1.399576 A    
C26   C28   1.391351 A    
C31   C32   1.404189 A    
C2    C20   1.460193 S    
C50   C52   1.386822 A    
C46   C52   1.392606 A    
N3    O9    1.301098 A    
C49   C51   1.387149 A    
C42   N3    1.432162 S    
C48   C49   1.410758 A    
C45   C51   1.392103 A    
C19   C23   1.398529 A    
N1    C41   1.362520 A    
C30   C36   1.400894 A    
C37   C39   1.386207 A    
C59   C64   1.405881 A    
C20   C26   1.388292 A    
O7    Zn2   1.967171 S    
C9    H10   1.082285 S    
N3    O10   1.300294 A    
C55   C56   1.397076 A    
O5    Zn1   1.956709 S    
O6    C4    1.306448 A    
C58   H31   1.083250 S    
N4    O12   1.300149 A    
O7    C3    1.308209 A    
O3    Zn2   1.926685 S    
O8    C4    1.307842 A    
C60   H32   1.083345 S    
C22   C30   1.422563 A    
C42   C44   1.417894 A    
C10   C12   1.402857 A    
C18   H5    1.085663 S    
C52   H20   1.084295 S    
C35   H11   1.081428 S    
C38   H24   1.083996 S    
C21   C53   1.481469 S    
O4    C2    1.311046 A    
C37   C45   1.397239 A    
C43   C45   1.417865 A    
C32   C33   1.414822 A    
C41   C43   1.416457 A    
C47   C50   1.410653 A    
C57   H30   1.080463 S    
C5    C7    1.401921 A    
O6    Zn2   1.956709 S    
C37   H23   1.083803 S    
O3    C1    1.309948 A    
O8    Zn1   1.967171 S    
C27   C31   1.414251 A    
C24   H15   1.084243 S    
C38   C46   1.396959 A    
C13   H7    1.083732 S    
C31   C34   1.413878 A    
C1    C19   1.462805 S    
C29   C35   1.401405 A    
C60   C61   1.398157 A    
C10   H9    1.082225 S    
C33   H17   1.080319 S    
N2    C40   1.356342 A    
C34   H18   1.080661 S    
N1    C39   1.355634 A    
C56   C57   1.397135 A    
C7    C9    1.384932 A    
Zn2   N1    2.050687 S    
C36   H12   1.081141 S    
C8    C10   1.385468 A    
C13   C15   1.390509 A    
C50   H26   1.075255 S    
N4    O11   1.301045 A    
O2    Zn2   1.954636 S    
C49   H25   1.074540 S    
C64   H36   1.083125 S    
C20   C24   1.397491 A    
O1    Zn1   1.954633 S    
C6    C8    1.401727 A    
C54   C55   1.397953 A    
C44   C48   1.424500 A    
C17   C18   1.342142 D    
C38   C40   1.385914 A    
C43   C47   1.423930 A    
C40   H21   1.081621 S    
C22   C59   1.484537 S    
C61   H33   1.082476 S    
C39   H22   1.081689 S    
C23   H16   1.082857 S    
