data_mof_unit_43501.cif
_audit_creation_date              2012-10-26T19:40:05-0400
_audit_creation_method            fapswitch 2.2
_symmetry_space_group_name_H-M    P1
_symmetry_Int_Tables_number       1
_space_group_crystal_system       triclinic
_cell_length_a                    14.967498
_cell_length_b                    8.70982
_cell_length_c                    7.439553
_cell_angle_alpha                 101.889108
_cell_angle_beta                  94.114382
_cell_angle_gamma                 92.341399
_cell_volume                      945.061412994

loop_
_atom_site_label
_atom_site_type_symbol
_atom_type_description
_atom_site_fract_x
_atom_site_fract_y
_atom_site_fract_z
_atom_type_partial_charge
Br1   Br    Br    0.591150 0.953962 0.246603 -0.481961
Br2   Br    Br    0.408850 0.046038 0.753396 -0.481961
C1    C     C_R   0.499300 0.200825 0.455480 0.590865
C2    C     C_R   0.180452 0.369458 0.402895 -0.085188
C3    C     C_R   0.767139 0.502559 0.492445 -0.013440
C4    C     C_R   0.232861 0.497441 0.507555 -0.013440
C5    C     C_R   0.806395 0.374750 0.388681 -0.113520
C6    C     C_R   0.193605 0.625250 0.611318 -0.113520
C7    C     C_R   0.899547 0.371886 0.393047 -0.016054
C8    C     C_R   0.100453 0.628114 0.606952 -0.016054
C9    C     C_R   0.953181 0.501157 0.498117 0.002472
C10   C     C_R   0.046819 0.498842 0.501883 0.002472
C11   C     C_R   0.912997 0.632652 0.599176 0.067593
C12   C     C_R   0.500700 0.799175 0.544520 0.590864
C13   C     C_R   0.087003 0.367347 0.400824 0.067593
C14   C     C_R   0.939572 0.240928 0.296030 -0.104964
C15   C     C_R   0.060428 0.759072 0.703970 -0.104964
C16   C     C_R   0.033408 0.236838 0.300221 0.245830
C17   C     C_R   0.966592 0.763162 0.699779 0.245830
C18   C     C_2   0.514052 0.038324 0.436813 0.122843
C19   C     C_2   0.485948 0.961676 0.563187 0.122843
C20   C     C_R   0.329080 0.499380 0.502560 0.542620
C21   C     C_R   0.670920 0.500620 0.497440 0.542620
C22   C     C_R   0.819547 0.630542 0.597105 -0.085188
Cu1   Cu    Cu3+1 0.510010 0.517380 0.684380 1.061203
Cu2   Cu    Cu3+1 0.489990 0.482620 0.315620 1.061203
H1    H     H_    0.786808 0.728271 0.675610 0.184149
H2    H     H_    0.972888 0.978026 0.842092 0.331780
H3    H     H_    0.213192 0.271729 0.324390 0.184149
H4    H     H_    0.764322 0.276003 0.309397 0.154474
H5    H     H_    0.235678 0.723997 0.690603 0.154474
H6    H     H_    0.897802 0.141598 0.217497 0.134567
H7    H     H_    0.102198 0.858402 0.782503 0.134567
H8    H     H_    0.427224 0.384661 0.950388 0.273895
H9    H     H_    0.572776 0.615339 0.049612 0.273895
H10   H     H_    0.027112 0.021974 0.157908 0.331780
N1    N     N_2   0.474890 0.456420 0.038520 -0.237102
N2    N     N_2   0.525110 0.543580 0.961480 -0.237102
O1    O     O_R   0.506510 0.286130 0.619770 -0.489799
O2    O     O_3   0.926160 0.893252 0.791199 -0.709347
O3    O     O_R   0.493490 0.713870 0.380230 -0.489799
O4    O     O_R   0.489600 0.256770 0.308360 -0.457666
O5    O     O_R   0.510400 0.743230 0.691640 -0.457666
O6    O     O_R   0.378710 0.514640 0.655720 -0.500775
O7    O     O_R   0.621290 0.485360 0.344280 -0.500776
O8    O     O_R   0.361800 0.485290 0.344300 -0.502471
O9    O     O_R   0.638200 0.514710 0.655700 -0.502471
O10   O     O_3   0.073840 0.106748 0.208800 -0.709347

loop_
_geom_bond_atom_site_label_1
_geom_bond_atom_site_label_2
_ccdc_geom_bond_type
C13   C16   A    
C9    C10   A    
C22   H1    S    
C1    O4    A    
N1    N2    D    
C21   O7    A    
Cu1   N2    S    
C14   H6    S    
H8    N1    S    
C7    C9    A    
Cu1   O9    S    
C2    H3    S    
C3    C21   S    
C10   C13   A    
Cu1   O5    S    
Br2   C19   S    
C1    O1    A    
C1    C18   S    
Cu2   N1    S    
C5    H4    S    
Cu1   O1    S    
C9    C11   A    
Cu2   O4    S    
C3    C22   A    
C15   H7    S    
C2    C13   A    
C12   O3    A    
C8    C10   A    
Cu1   O6    S    
C2    C4    A    
C15   C17   A    
C7    C14   A    
H10   O10   S    
C11   C22   A    
C21   O9    A    
C17   O2    S    
C11   C17   A    
C8    C15   A    
C4    C20   S    
C5    C7    A    
H9    N2    S    
C18   C19   D    
C12   C19   S    
C14   C16   A    
C3    C5    A    
Cu2   O8    S    
Br1   C18   S    
C4    C6    A    
Cu2   O7    S    
C20   O8    A    
Cu1   Cu2   S    
C6    H5    S    
C6    C8    A    
C20   O6    A    
Cu2   O3    S    
H2    O2    S    
C12   O5    A    
C16   O10   S    
