data_mof_unit_18396.cif
_audit_creation_date              2012-12-10T18:59:16-0500
_audit_creation_method            fapswitch 2.2
_symmetry_space_group_name_H-M    P1
_symmetry_Int_Tables_number       1
_space_group_crystal_system       triclinic
_cell_length_a                    10.824251
_cell_length_b                    10.829934
_cell_length_c                    9.520895
_cell_angle_alpha                 90.115515
_cell_angle_beta                  88.763701
_cell_angle_gamma                 89.561051
_cell_volume                      1115.80050106

loop_
_atom_site_label
_atom_site_type_symbol
_atom_type_description
_atom_site_fract_x
_atom_site_fract_y
_atom_site_fract_z
_atom_type_partial_charge
C1    C     C_R   0.501145 0.262308 0.499818 0.795137
C2    C     C_R   0.057639 0.491610 0.635627 0.057813
C3    C     C_R   0.126802 0.518382 0.510206 -0.108656
C4    C     C_R   0.065159 0.534550 0.383604 -0.199690
C5    C     C_R   0.938368 0.522351 0.379395 -0.204595
C6    C     C_R   0.872291 0.481342 0.497886 -0.104976
C7    C     C_R   0.500361 0.063762 0.625412 0.103535
C8    C     C_R   0.510590 0.129176 0.499583 -0.081205
C9    C     C_R   0.536882 0.064018 0.374454 -0.219878
C10   C     C_R   0.537820 0.935186 0.374641 -0.207869
C11   C     C_R   0.513478 0.870719 0.500180 -0.081810
C12   C     C_R   0.261923 0.508949 0.502708 0.817340
C13   C     C_R   0.503913 0.936705 0.625982 0.052821
C14   C     C_3   0.409826 0.928241 0.742531 -0.415720
C15   C     C_3   0.404831 0.068818 0.742081 -0.060736
C16   C     C_R   0.547122 0.597802 0.072712 0.271346
C17   C     C_R   0.441574 0.410256 0.075760 -0.075380
C18   C     C_R   0.441596 0.410267 0.926766 -0.064177
C19   C     C_R   0.546896 0.597912 0.925249 0.289954
C20   C     C_3   0.675476 0.645754 0.915543 -0.496177
C21   C     C_3   0.676312 0.644355 0.074914 -0.518057
C22   C     C_R   0.502252 0.737712 0.500027 0.815761
C23   C     C_R   0.737674 0.490421 0.498828 0.792859
C24   C     C_R   0.102150 0.502806 0.774623 0.180258
C25   C     C_R   0.044815 0.437638 0.884324 -0.173840
C26   C     C_R   0.938049 0.370929 0.860434 -0.198453
C27   C     C_R   0.880963 0.380388 0.731179 -0.177273
C28   C     C_R   0.935759 0.449823 0.621121 0.075316
Cu1   Cu    Cu3+1 0.499990 0.499980 0.640670 0.952252
Cu2   Cu    Cu3+1 0.500010 0.500020 0.359330 0.944622
H1    H     H_    0.114862 0.558396 0.287546 0.174133
H2    H     H_    0.449682 0.889405 0.839770 0.181195
H3    H     H_    0.440806 0.110435 0.839761 0.155319
H4    H     H_    0.396030 0.336520 0.132543 0.141338
H5    H     H_    0.395616 0.336986 0.871985 0.142013
H6    H     H_    0.741985 0.578837 0.867170 0.236170
H7    H     H_    0.678827 0.740381 0.870659 0.196943
H8    H     H_    0.741930 0.575155 0.116810 0.213378
H9    H     H_    0.681863 0.738015 0.122102 0.193038
H10   H     H_    0.078982 0.444317 0.990102 0.154800
H11   H     H_    0.894253 0.319870 0.945240 0.150297
H12   H     H_    0.794511 0.332674 0.717888 0.156015
H13   H     H_    0.892425 0.544769 0.282997 0.157171
H14   H     H_    0.551633 0.111973 0.275850 0.159462
H15   H     H_    0.552384 0.886715 0.276018 0.156756
H16   H     H_    0.323705 0.883124 0.708120 0.230319
N1    N     N_R   0.500790 0.500930 0.147930 -0.187065
N2    N     N_R   0.500790 0.500890 0.852020 -0.178629
O1    O     O_R   0.500000 0.319640 0.618810 -0.595440
O2    O     O_R   0.500010 0.319680 0.381230 -0.591947
O3    O     O_R   0.319640 0.499980 0.618820 -0.561487
O4    O     O_R   0.319650 0.500020 0.381230 -0.580255
O5    O     O_R   0.499990 0.680320 0.618770 -0.564506
O6    O     O_R   0.500000 0.680360 0.381190 -0.585249
O7    O     O_R   0.680350 0.499980 0.618770 -0.589236
O8    O     O_R   0.680360 0.500020 0.381180 -0.585732
C29   C     C_3   0.278809 0.120869 0.699365 -0.815444
H17   H     H_    0.283252 0.222643 0.688215 0.236564
H18   H     H_    0.249189 0.080513 0.598173 0.242744
H19   H     H_    0.208479 0.099233 0.782095 0.242824
I1    I     I_    0.205712 0.657338 0.842160 -0.446012

loop_
_geom_bond_atom_site_label_1
_geom_bond_atom_site_label_2
_ccdc_geom_bond_type
C17   H4    S    
C23   O7    A    
C16   C21   S    
C1    C8    S    
Cu2   O6    S    
C9    C10   A    
C11   C22   S    
C19   C20   S    
C21   H9    S    
C7    C13   A    
Cu2   O8    S    
C10   H15   S    
C7    C15   S    
C17   C18   A    
C5    H13   S    
C23   O8    A    
C22   O6    A    
Cu1   O1    S    
C13   C14   S    
C20   C21   S    
C20   H7    S    
C15   C29   S    
C27   H12   S    
C26   C27   A    
Cu1   Cu2   S    
Cu1   O5    S    
C24   I1    S    
C6    C23   S    
C16   N1    A    
C12   O4    A    
Cu1   O3    S    
C2    C3    A    
C22   O5    A    
C29   H17   S    
C16   C19   A    
C25   H10   S    
C2    C24   A    
C5    C6    A    
Cu2   O2    S    
C29   H18   S    
C4    H1    S    
C7    C8    A    
C10   C11   A    
Cu1   N2    S    
C3    C4    A    
C20   H6    S    
Cu2   N1    S    
C11   C13   A    
C12   O3    A    
C24   C25   A    
C18   H5    S    
C14   H16   S    
C1    O2    A    
C27   C28   A    
Cu2   O4    S    
C14   C15   S    
C4    C5    A    
C9    H14   S    
C2    C28   A    
C3    C12   S    
Cu1   O7    S    
C25   C26   A    
C19   N2    A    
C1    O1    A    
C15   H3    S    
C6    C28   A    
C21   H8    S    
C17   N1    A    
C26   H11   S    
C14   H2    S    
C8    C9    A    
C29   H19   S    
C18   N2    A    
