data_mof_unit_18388.cif
_audit_creation_date              2012-12-10T17:46:57-0500
_audit_creation_method            fapswitch 2.2
_symmetry_space_group_name_H-M    P1
_symmetry_Int_Tables_number       1
_space_group_crystal_system       triclinic
_cell_length_a                    10.020821
_cell_length_b                    10.683164
_cell_length_c                    13.634507
_cell_angle_alpha                 93.53276
_cell_angle_beta                  83.043913
_cell_angle_gamma                 88.763814
_cell_volume                      1445.51110654

loop_
_atom_site_label
_atom_site_type_symbol
_atom_type_description
_atom_site_fract_x
_atom_site_fract_y
_atom_site_fract_z
_atom_type_partial_charge
C1    C     C_R   0.498990 0.738628 0.494574 1.043019
C2    C     C_R   0.521646 0.938110 0.576797 0.607786
C3    C     C_R   0.524590 0.066540 0.580761 0.351369
C4    C     C_R   0.475816 0.500625 0.685240 0.891006
C5    C     C_R   0.507282 0.127854 0.494359 -0.241046
C6    C     C_R   0.829202 0.667512 0.628149 -0.151324
C7    C     C_R   0.878106 0.754180 0.692293 0.660743
C8    C     C_R   0.013609 0.758981 0.695906 -0.390660
C9    C     C_R   0.104216 0.676333 0.635440 0.455307
C10   C     C_R   0.057705 0.585279 0.565261 0.030190
C11   C     C_R   0.913690 0.583520 0.563755 -0.149129
C12   C     C_1   0.457426 0.502183 0.788951 -0.087078
C13   C     C_R   0.939498 0.420437 0.439154 0.695388
C14   C     C_R   0.081267 0.419606 0.438419 0.345726
C15   C     C_R   0.501657 0.260928 0.500015 0.969758
C16   C     C_R   0.524330 0.500398 0.314782 1.041420
C17   C     C_1   0.542997 0.499956 0.211063 -0.043259
C18   C     C_2   0.558862 0.500062 0.018791 0.423620
C19   C     C_2   0.441688 0.504641 0.981370 0.402686
C20   C     C_1   0.445484 0.503553 0.876719 -0.007346
C21   C     C_1   0.555030 0.499872 0.123366 -0.012939
C22   C     C_R   0.429606 0.867146 0.318064 0.444816
C23   C     C_R   0.424425 0.930783 0.231378 -0.447908
C24   C     C_R   0.456615 0.056819 0.228465 0.427574
C25   C     C_R   0.487680 0.121372 0.314064 0.647722
C26   C     C_R   0.488124 0.061371 0.404179 -0.212005
C27   C     C_R   0.469793 0.931175 0.404291 -0.088062
C28   C     C_R   0.494210 0.871288 0.490932 -0.285529
F1    F     F_    0.792643 0.833583 0.752594 -0.572790
F2    F     F_    0.540929 0.877583 0.659137 -0.606917
F3    F     F_    0.524613 0.241498 0.306040 -0.657737
F4    F     F_    0.884225 0.338710 0.376625 -0.580555
H1    H     H_    0.723279 0.669735 0.632060 0.254284
H2    H     H_    0.539906 0.219066 0.667024 0.315514
H3    H     H_    0.048775 0.827607 0.748027 0.193299
H4    H     H_    0.395825 0.881541 0.165596 0.178677
H5    H     H_    0.246705 0.512575 0.000388 0.350786
H6    H     H_    0.250754 0.753298 0.698691 0.336305
H7    H     H_    0.249114 0.342210 0.377326 0.396449
H8    H     H_    0.753852 0.492294 0.999798 0.353961
H9    H     H_    0.356709 0.718155 0.256432 0.347100
H10   H     H_    0.433224 0.061740 0.089192 0.353473
N1    N     N_R   0.857120 0.501200 0.500900 -0.183821
N2    N     N_R   0.142720 0.501280 0.500940 -0.177203
O1    O     O_R   0.385310 0.683220 0.500000 -0.508468
O2    O     O_3   0.236357 0.685624 0.648155 -0.697970
O3    O     O_3   0.153192 0.333316 0.372391 -0.687922
O4    O     O_3   0.679912 0.495188 0.957632 -0.749652
O5    O     O_3   0.388910 0.745166 0.320193 -0.768295
O6    O     O_3   0.457108 0.120283 0.143233 -0.671459
O7    O     O_3   0.544241 0.127062 0.670487 -0.666381
O8    O     O_R   0.614640 0.683250 0.500010 -0.655455
O9    O     O_R   0.368830 0.499960 0.640340 -0.558219
O10   O     O_R   0.598160 0.499980 0.640350 -0.635872
O11   O     O_R   0.385360 0.316750 0.499990 -0.637764
O12   O     O_R   0.614690 0.316780 0.500000 -0.551639
O13   O     O_R   0.401840 0.500020 0.359650 -0.595281
O14   O     O_R   0.631170 0.500040 0.359660 -0.575635
O15   O     O_3   0.320652 0.509791 0.042554 -0.759772
Zn1   Zn    Zn3+2 0.346870 0.499980 0.499990 1.047590
Zn2   Zn    Zn3+2 0.653130 0.500020 0.500010 1.049526

loop_
_geom_bond_atom_site_label_1
_geom_bond_atom_site_label_2
_ccdc_geom_bond_type
C25   F3    S    
C1    C28   S    
C23   C24   A    
O1    Zn1   S    
C11   N1    A    
C6    C7    A    
C7    F1    S    
O10   Zn2   S    
C4    O9    A    
C4    C12   S    
C18   C21   S    
C9    C10   A    
C13   F4    S    
C19   C20   S    
C6    H1    S    
C2    F2    S    
C22   C27   A    
C4    O10   A    
C15   O12   A    
C12   C20   T    
O14   Zn2   S    
C2    C3    A    
C26   C27   A    
C7    C8    A    
C16   O14   A    
C13   C14   A    
O11   Zn1   S    
C16   O13   A    
C1    O1    A    
H2    O7    S    
C14   O3    S    
N2    Zn1   S    
C22   O5    S    
H7    O3    S    
O9    Zn1   S    
H10   O6    S    
C23   H4    S    
C9    O2    S    
O8    Zn2   S    
C6    C11   A    
C24   O6    S    
C1    O8    A    
H6    O2    S    
C5    C15   S    
C10   C11   A    
C10   N2    A    
C5    C26   A    
C13   N1    A    
C24   C25   A    
N1    Zn2   S    
C14   N2    A    
C18   C19   D    
H9    O5    S    
C27   C28   A    
H8    O4    S    
C3    O7    S    
O12   Zn2   S    
C16   C17   S    
O13   Zn1   S    
C2    C28   A    
C19   O15   S    
C25   C26   A    
C22   C23   A    
C17   C21   T    
H5    O15   S    
C15   O11   A    
C8    C9    A    
C3    C5    A    
C8    H3    S    
C18   O4    S    
