data_mof_unit_30236.cif
_audit_creation_date              2012-10-26T19:59:40-0400
_audit_creation_method            fapswitch 2.2
_symmetry_space_group_name_H-M    P1
_symmetry_Int_Tables_number       1
_space_group_crystal_system       triclinic
_cell_length_a                    10.74745
_cell_length_b                    8.70392
_cell_length_c                    7.480305
_cell_angle_alpha                 103.240487
_cell_angle_beta                  94.185908
_cell_angle_gamma                 93.759279
_cell_volume                      676.882238276

loop_
_atom_site_label
_atom_site_type_symbol
_atom_type_description
_atom_site_fract_x
_atom_site_fract_y
_atom_site_fract_z
_atom_type_partial_charge
C1    C     C_R   0.487967 0.199637 0.453062 0.511758
C2    C     C_R   0.498393 0.799714 0.546733 0.586174
C3    C     C_R   0.737583 0.506880 0.498360 0.586875
C4    C     C_R   0.156764 0.778771 0.713937 -0.109395
C5    C     C_R   0.105256 0.916757 0.798162 -0.166019
C6    C     C_R   0.978010 0.930583 0.766342 -0.100713
C7    C     C_R   0.900352 0.804439 0.653907 0.278376
C8    C     C_R   0.948696 0.655826 0.587677 0.027112
C9    C     C_3   0.796607 0.896752 0.432861 -0.108817
C10   C     C_R   0.079689 0.647045 0.606548 -0.012224
C11   C     C_R   0.129873 0.509266 0.509475 0.023568
C12   C     C_R   0.052338 0.380407 0.404807 -0.145358
C13   C     C_R   0.924031 0.383434 0.400249 -0.165230
C14   C     C_R   0.871886 0.518269 0.493113 0.016547
C15   C     C_2   0.467660 0.030316 0.426762 0.179249
C16   C     C_2   0.498182 0.967774 0.570221 -0.083575
C17   C     C_R   0.262852 0.500962 0.502715 0.518806
Cu1   Cu    Cu3+1 0.513920 0.517380 0.684380 1.086432
Cu2   Cu    Cu3+1 0.486080 0.482620 0.315620 1.093984
H1    H     H_    0.091573 0.275592 0.329711 0.115739
H2    H     H_    0.848004 0.016509 0.471733 0.100306
H3    H     H_    0.390662 0.002361 0.174042 0.329080
H4    H     H_    0.335276 0.298175 0.006030 0.314450
H5    H     H_    0.257179 0.777801 0.733325 0.152268
H6    H     H_    0.165313 0.016257 0.880900 0.121253
H7    H     H_    0.940435 0.042661 0.820332 0.129202
H8    H     H_    0.864949 0.279409 0.325640 0.112233
H9    H     H_    0.531240 0.041169 0.705698 0.111648
H10   H     H_    0.665167 0.701180 0.993797 0.328786
H11   H     H_    0.703164 0.909631 0.368654 0.175779
H12   H     H_    0.844115 0.816398 0.325711 0.135519
N1    N     N_2   0.465100 0.456430 0.038520 0.098540
N2    N     N_2   0.534900 0.543570 0.961480 0.104858
O1    O     O_R   0.509050 0.286130 0.619770 -0.490743
O2    O     O_3   0.782852 0.834089 0.589618 -0.579552
O3    O     O_3   0.417367 0.935471 0.258137 -0.675303
O4    O     O_3   0.379645 0.354098 0.924886 -0.591554
O5    O     O_R   0.485540 0.256780 0.308360 -0.543913
O6    O     O_R   0.331410 0.514680 0.655740 -0.474868
O7    O     O_R   0.307900 0.485330 0.344330 -0.523176
O8    O     O_R   0.514460 0.743220 0.691640 -0.521746
O9    O     O_R   0.490950 0.713870 0.380230 -0.391816
O10   O     O_R   0.692100 0.514670 0.655670 -0.508598
O11   O     O_R   0.668590 0.485320 0.344260 -0.465659
O12   O     O_3   0.620664 0.645424 0.074969 -0.580282

loop_
_geom_bond_atom_site_label_1
_geom_bond_atom_site_label_2
_ccdc_geom_bond_type
C16   H9    S    
C11   C12   A    
C6    C7    A    
C1    C15   S    
Cu2   O5    S    
C2    C16   S    
N2    O12   S    
Cu2   O9    S    
Cu1   O6    S    
C3    O10   A    
N1    N2    D    
C12   H1    S    
C7    C8    A    
H4    O4    S    
C13   C14   A    
Cu2   O11   S    
Cu1   O1    S    
C9    H2    S    
C6    H7    S    
C3    C14   S    
C1    O5    A    
C2    O9    A    
C5    H6    S    
Cu2   N1    S    
C9    H11   S    
C1    O1    A    
Cu2   O7    S    
C5    C6    A    
C4    H5    S    
Cu1   N2    S    
C3    O11   A    
C10   C11   A    
C9    H12   S    
C2    O8    A    
C4    C10   A    
C15   C16   D    
C15   O3    S    
H3    O3    S    
C12   C13   A    
C8    C10   A    
Cu1   Cu2   S    
C17   O6    A    
Cu1   O8    S    
Cu1   O10   S    
C9    O2    S    
C13   H8    S    
C8    C14   A    
N1    O4    S    
C7    O2    S    
C11   C17   S    
H10   O12   S    
C4    C5    A    
C17   O7    A    
