data_mof_unit_11994.cif
_audit_creation_date              2012-12-10T17:17:24-0500
_audit_creation_method            fapswitch 2.2
_symmetry_space_group_name_H-M    P1
_symmetry_Int_Tables_number       1
_space_group_crystal_system       triclinic
_cell_length_a                    10.412512
_cell_length_b                    10.625041
_cell_length_c                    12.199892
_cell_angle_alpha                 92.061025
_cell_angle_beta                  110.150271
_cell_angle_gamma                 95.185585
_cell_volume                      1258.66223037

loop_
_atom_site_label
_atom_site_type_symbol
_atom_type_description
_atom_site_fract_x
_atom_site_fract_y
_atom_site_fract_z
_atom_type_partial_charge
C1    C     C_R   0.052616 0.732894 0.496559 0.936548
C2    C     C_R   0.207268 0.520795 0.839809 -0.120675
C3    C     C_2   0.089449 0.867845 0.508095 -0.347204
C4    C     C_R   0.133135 0.509340 0.714262 0.847040
C5    C     C_2   0.034933 0.939321 0.568574 -0.161295
C6    C     C_2   0.941342 0.137532 0.542010 -0.369672
C7    C     C_2   0.050920 0.073856 0.563058 -0.182558
C8    C     C_2   0.432270 0.515815 0.504730 -0.058352
C9    C     C_2   0.569202 0.481374 0.497474 -0.064273
C10   C     C_R   0.953369 0.267980 0.513452 0.942621
C11   C     C_R   0.866144 0.486916 0.285878 0.870927
C12   C     C_R   0.428390 0.509417 0.991481 0.087315
C13   C     C_R   0.707354 0.308904 0.995460 -0.239574
C14   C     C_R   0.788399 0.461258 0.162380 -0.061240
C15   C     C_R   0.176732 0.613862 0.908446 -0.197538
C16   C     C_R   0.268882 0.651734 0.019934 -0.179890
C17   C     C_R   0.395284 0.602978 0.060435 -0.221154
C18   C     C_R   0.572030 0.360232 0.435120 0.204471
C19   C     C_R   0.583683 0.248486 0.494311 -0.150057
C20   C     C_R   0.581579 0.132647 0.435069 -0.187119
C21   C     C_R   0.567538 0.127454 0.316844 -0.123027
C22   C     C_R   0.553459 0.237876 0.257007 -0.125973
C23   C     C_R   0.326021 0.458515 0.886134 0.066381
C24   C     C_R   0.554520 0.353633 0.315660 -0.072858
C25   C     C_R   0.431202 0.635690 0.570107 0.204133
C26   C     C_R   0.448337 0.638925 0.689533 -0.077278
C27   C     C_R   0.449916 0.753034 0.750865 -0.133547
C28   C     C_R   0.437642 0.865437 0.694004 -0.112026
C29   C     C_R   0.424422 0.863713 0.576006 -0.179993
C30   C     C_R   0.421330 0.749397 0.513997 -0.148530
C31   C     C_R   0.720255 0.619693 0.656100 0.264816
C32   C     C_R   0.745077 0.552862 0.757389 -0.166372
C33   C     C_R   0.793112 0.618539 0.867741 -0.167787
C34   C     C_R   0.559157 0.464339 0.023328 0.078504
C35   C     C_R   0.818829 0.750629 0.877741 -0.139647
C36   C     C_R   0.798249 0.817208 0.777411 -0.170568
C37   C     C_R   0.750792 0.751777 0.666996 -0.131673
C38   C     C_R   0.282434 0.367041 0.351250 0.250415
C39   C     C_R   0.256733 0.235560 0.354323 -0.103651
C40   C     C_R   0.209361 0.157452 0.250583 -0.156522
C41   C     C_R   0.183392 0.210642 0.142914 -0.142938
C42   C     C_R   0.203555 0.342009 0.138925 -0.158468
C43   C     C_R   0.251597 0.420296 0.242695 -0.168295
C44   C     C_R   0.579927 0.358393 0.959244 0.168615
C45   C     C_R   0.472014 0.300606 0.862760 -0.276826
C46   C     C_R   0.346274 0.349605 0.826796 -0.222077
C47   C     C_R   0.669858 0.520688 0.118435 -0.300471
C48   C     C_R   0.810536 0.358236 0.099024 -0.209842
H1    H     H_    0.902762 0.311127 0.133321 0.173278
H2    H     H_    0.592978 0.047042 0.481168 0.122685
H3    H     H_    0.566417 0.037729 0.271437 0.124519
H4    H     H_    0.539683 0.233483 0.164871 0.146317
H5    H     H_    0.538046 0.437809 0.267709 0.129823
H6    H     H_    0.463240 0.553287 0.735406 0.145295
H7    H     H_    0.462380 0.754409 0.842734 0.141832
H8    H     H_    0.438976 0.953927 0.741394 0.120016
H9    H     H_    0.413771 0.950764 0.532110 0.120492
H10   H     H_    0.410564 0.749252 0.422459 0.105783
H11   H     H_    0.727911 0.450386 0.750551 0.124175
H12   H     H_    0.723896 0.227540 0.947826 0.136570
H13   H     H_    0.812161 0.567127 0.945557 0.169607
H14   H     H_    0.856185 0.801202 0.963267 0.127641
H15   H     H_    0.819683 0.919373 0.785157 0.127536
H16   H     H_    0.736202 0.803727 0.589665 0.117510
H17   H     H_    0.274686 0.193888 0.437219 0.108969
H18   H     H_    0.191952 0.055864 0.253669 0.123938
H19   H     H_    0.146081 0.150245 0.062540 0.129591
H20   H     H_    0.180191 0.383006 0.055354 0.165907
H21   H     H_    0.263793 0.522145 0.238982 0.125950
H22   H     H_    0.485023 0.217965 0.814507 0.139050
H23   H     H_    0.085213 0.661809 0.873651 0.174958
H24   H     H_    0.663019 0.605410 0.166622 0.141900
H25   H     H_    0.245087 0.723385 0.073182 0.138967
H26   H     H_    0.264680 0.301703 0.751700 0.162113
H27   H     H_    0.463018 0.638046 0.146935 0.125169
H28   H     H_    0.148610 0.117224 0.560965 0.177509
H29   H     H_    0.965774 0.898801 0.610518 0.179336
H30   H     H_    0.844984 0.092633 0.544875 0.155855
H31   H     H_    0.156395 0.909297 0.464464 0.142771
H32   H     H_    0.594615 0.251269 0.585975 0.106087
N1    N     N_2   0.313640 0.446500 0.454900 -0.160078
N2    N     N_2   0.686360 0.553430 0.545150 -0.160494
O1    O     O_R   0.936910 0.692950 0.509080 -0.614861
O2    O     O_R   0.138320 0.658600 0.480130 -0.596883
O3    O     O_R   0.002900 0.525670 0.675280 -0.607823
O4    O     O_R   0.204310 0.491320 0.646330 -0.612265
O5    O     O_R   0.861680 0.341400 0.519870 -0.596917
O6    O     O_R   0.063090 0.307050 0.490920 -0.619244
O7    O     O_R   0.795690 0.508680 0.353670 -0.611065
O8    O     O_R   0.997100 0.474330 0.324720 -0.607348
Zn1   Zn    Zn3+2 0.865520 0.522940 0.519330 0.931834
Zn2   Zn    Zn3+2 0.134480 0.477060 0.480670 0.931176

loop_
_geom_bond_atom_site_label_1
_geom_bond_atom_site_label_2
_ccdc_geom_bond_type
O5    Zn1   S    
C41   C42   A    
C35   C36   A    
C46   H26   S    
C3    H31   S    
C28   H8    S    
C41   H19   S    
C13   H12   S    
C45   C46   A    
C1    O2    A    
C12   C23   A    
C10   O6    A    
C26   C27   A    
C31   N2    S    
C18   C24   A    
C28   C29   A    
C38   C39   A    
C11   C14   S    
C27   H7    S    
C6    H30   S    
C4    O4    A    
C15   C16   A    
C18   C19   A    
C20   H2    S    
N1    Zn2   S    
C19   C20   A    
C8    C9    S    
C12   C17   A    
O7    Zn1   S    
C36   H15   S    
C9    N2    D    
C43   H21   S    
C23   C46   A    
C40   H18   S    
C21   C22   A    
C42   H20   S    
C8    C25   S    
C39   H17   S    
C26   H6    S    
C6    C7    D    
O3    Zn1   S    
C10   O5    A    
C8    N1    D    
O6    Zn2   S    
C34   C44   A    
C39   C40   A    
C5    C7    S    
C16   C17   A    
C14   C48   A    
C4    O3    A    
C24   H5    S    
N2    Zn1   S    
C31   C37   A    
C1    C3    S    
C2    C4    S    
C29   C30   A    
C11   O7    A    
O8    Zn2   S    
C31   C32   A    
C2    C15   A    
C7    H28   S    
C40   C41   A    
C29   H9    S    
C38   N1    S    
C22   C24   A    
C42   C43   A    
C5    H29   S    
C21   H3    S    
C37   H16   S    
O1    Zn1   S    
C44   C45   A    
C22   H4    S    
C25   C30   A    
C36   C37   A    
C45   H22   S    
C3    C5    D    
C16   H25   S    
C6    C10   S    
C13   C48   A    
C14   C47   A    
C1    O1    A    
C15   H23   S    
C32   C33   A    
C25   C26   A    
C38   C43   A    
O4    Zn2   S    
C11   O8    A    
C48   H1    S    
C30   H10   S    
C33   C35   A    
C35   H14   S    
C19   H32   S    
C47   H24   S    
C9    C18   S    
C20   C21   A    
C33   H13   S    
C2    C23   A    
C17   H27   S    
C34   C47   A    
O2    Zn2   S    
C32   H11   S    
C12   C34   A    
C13   C44   A    
C27   C28   A    
