data_mof_unit_31824.cif
_audit_creation_date              2012-12-10T19:05:16-0500
_audit_creation_method            fapswitch 2.2
_symmetry_space_group_name_H-M    P1
_symmetry_Int_Tables_number       1
_space_group_crystal_system       triclinic
_cell_length_a                    9.535672
_cell_length_b                    10.854006
_cell_length_c                    17.257494
_cell_angle_alpha                 90.204418
_cell_angle_beta                  85.683139
_cell_angle_gamma                 89.945471
_cell_volume                      1781.07484511

loop_
_atom_site_label
_atom_site_type_symbol
_atom_type_description
_atom_site_fract_x
_atom_site_fract_y
_atom_site_fract_z
_atom_type_partial_charge
C1    C     C_R   0.500141 0.737314 0.499119 0.804179
C2    C     C_R   0.590409 0.452197 0.772740 -0.195797
C3    C     C_R   0.419568 0.556932 0.147010 -0.169887
C4    C     C_R   0.414919 0.555842 0.227554 -0.210541
C5    C     C_R   0.647482 0.463333 0.221408 -0.205557
C6    C     C_R   0.651769 0.463949 0.140583 -0.157768
C7    C     C_R   0.536185 0.507507 0.103568 0.176897
C8    C     C_2   0.443063 0.437070 0.980844 0.058834
C9    C     C_2   0.537598 0.501483 0.019113 -0.281990
C10   C     C_R   0.527919 0.507386 0.265258 -0.022912
C11   C     C_R   0.378749 0.938114 0.496105 0.115577
C12   C     C_R   0.481306 0.497121 0.650118 0.787218
C13   C     C_R   0.501901 0.869867 0.496317 -0.126610
C14   C     C_R   0.630180 0.935194 0.493782 -0.217167
C15   C     C_R   0.630361 0.064376 0.493859 -0.222911
C16   C     C_R   0.502249 0.130099 0.496694 -0.098270
C17   C     C_R   0.379044 0.062365 0.496832 0.089248
C18   C     C_3   0.222768 0.073292 0.503363 -0.484262
C19   C     C_3   0.221441 0.930934 0.502582 -0.123379
C20   C     C_R   0.931893 0.411692 0.459890 0.261753
C21   C     C_R   0.919239 0.579396 0.545566 -0.085103
C22   C     C_R   0.068178 0.579106 0.545776 -0.111243
C23   C     C_R   0.500311 0.262684 0.499251 0.809995
C24   C     C_R   0.079378 0.411663 0.459906 0.264003
C25   C     C_3   0.096966 0.388004 0.374580 -0.503579
C26   C     C_3   0.938051 0.388632 0.374528 -0.523572
C27   C     C_R   0.518530 0.501807 0.349960 0.786835
C28   C     C_R   0.470502 0.483348 0.734664 -0.027582
C29   C     C_R   0.340072 0.495133 0.777531 -0.200257
C30   C     C_R   0.330325 0.477822 0.857681 -0.175039
C31   C     C_R   0.450716 0.448136 0.895611 0.161958
C32   C     C_R   0.580368 0.433922 0.852491 -0.191517
Cu1   Cu    Cu3+1 0.359330 0.500020 0.500000 0.932240
Cu2   Cu    Cu3+1 0.640670 0.499980 0.500000 0.936481
H1    H     H_    0.245980 0.518479 0.749282 0.147359
H2    H     H_    0.743032 0.427200 0.107011 0.124794
H3    H     H_    0.730022 0.887286 0.492698 0.161624
H4    H     H_    0.730286 0.111983 0.492669 0.162300
H5    H     H_    0.182575 0.113492 0.560079 0.182742
H6    H     H_    0.181997 0.117906 0.451773 0.190989
H7    H     H_    0.179885 0.891821 0.559224 0.137921
H8    H     H_    0.858402 0.645476 0.581120 0.138410
H9    H     H_    0.119202 0.644967 0.581476 0.134242
H10   H     H_    0.146472 0.466225 0.341486 0.215170
H11   H     H_    0.322944 0.592525 0.260329 0.146359
H12   H     H_    0.144562 0.296343 0.360609 0.187072
H13   H     H_    0.898502 0.467983 0.342026 0.216491
H14   H     H_    0.893399 0.297479 0.360254 0.190597
H15   H     H_    0.735335 0.425147 0.249374 0.139889
H16   H     H_    0.619345 0.554301 0.986980 0.141588
H17   H     H_    0.674022 0.409044 0.880722 0.126612
H18   H     H_    0.331170 0.593511 0.118462 0.134331
H19   H     H_    0.691849 0.440502 0.740883 0.152695
H20   H     H_    0.229570 0.490160 0.890047 0.121996
N1    N     N_R   0.852130 0.499070 0.499500 -0.183833
N2    N     N_R   0.148040 0.499110 0.499500 -0.185793
O1    O     O_R   0.381190 0.680360 0.500000 -0.589094
O2    O     O_R   0.618770 0.680320 0.499990 -0.585964
O3    O     O_R   0.367430 0.500040 0.613600 -0.585717
O4    O     O_R   0.605020 0.500000 0.613590 -0.587348
O5    O     O_R   0.381230 0.319680 0.500010 -0.576953
O6    O     O_R   0.618810 0.319640 0.500000 -0.587545
O7    O     O_R   0.394980 0.500000 0.386410 -0.588063
O8    O     O_R   0.632570 0.499960 0.386400 -0.583962
C33   C     C_3   0.153844 0.872316 0.432596 -0.347383
C34   C     C_3   0.232832 0.895091 0.352820 -0.307954
C35   C     C_3   0.151537 0.841956 0.287571 -0.881948
H21   H     H_    0.132261 0.741984 0.296818 0.249313
H22   H     H_    0.049054 0.890083 0.285397 0.255345
H23   H     H_    0.213299 0.854536 0.230998 0.244188
H24   H     H_    0.248035 0.995299 0.342645 0.213926
H25   H     H_    0.337823 0.850094 0.350621 0.218340
H26   H     H_    0.146914 0.771363 0.442032 0.214601
H27   H     H_    0.044359 0.907566 0.432248 0.190826
C36   C     C_3   0.331496 0.354021 0.021178 -0.386482
C37   C     C_3   0.345096 0.221489 0.990264 -0.339433
C38   C     C_3   0.237246 0.136872 0.032670 -0.862183
H28   H     H_    0.253708 0.134046 0.095691 0.254714
H29   H     H_    0.128894 0.169780 0.024827 0.251914
H30   H     H_    0.248971 0.042056 0.008670 0.242939
H31   H     H_    0.328562 0.219327 0.927197 0.224040
H32   H     H_    0.452437 0.186002 0.998353 0.221857
H33   H     H_    0.339483 0.350735 0.084869 0.216623
H34   H     H_    0.225498 0.390692 0.011498 0.177578

loop_
_geom_bond_atom_site_label_1
_geom_bond_atom_site_label_2
_ccdc_geom_bond_type
C10   C27   S    
C18   H5    S    
C32   H17   S    
C38   H28   S    
C30   H20   S    
C11   C19   S    
C12   C28   S    
C28   C29   A    
C3    C7    A    
C5    C6    A    
C36   H34   S    
C15   C16   A    
Cu2   O6    S    
C33   H26   S    
C2    C32   A    
C18   C19   S    
C18   H6    S    
C12   O3    A    
C23   O6    A    
C34   H25   S    
C20   C24   A    
C16   C17   A    
C26   H14   S    
Cu1   N2    S    
C34   C35   S    
Cu2   N1    S    
Cu1   O3    S    
C21   C22   A    
Cu2   O4    S    
C5    H15   S    
C20   N1    A    
C25   H10   S    
Cu1   Cu2   S    
C4    H11   S    
C38   H29   S    
C35   H21   S    
C37   C38   S    
C37   H32   S    
C21   N1    A    
C8    C9    D    
C22   N2    A    
C25   C26   S    
C8    C36   S    
C33   H27   S    
C35   H22   S    
C36   C37   S    
C15   H4    S    
C29   C30   A    
C1    O1    A    
C31   C32   A    
Cu1   O7    S    
Cu2   O8    S    
C17   C18   S    
C24   C25   S    
C27   O7    A    
C26   H13   S    
C16   C23   S    
C1    C13   S    
C4    C10   A    
C3    C4    A    
C38   H30   S    
C7    C9    S    
C11   C17   A    
Cu1   O1    S    
C8    C31   S    
C9    H16   S    
C2    H19   S    
C37   H31   S    
C3    H18   S    
C6    C7    A    
C24   N2    A    
C29   H1    S    
C35   H23   S    
C5    C10   A    
C1    O2    A    
C14   H3    S    
C11   C13   A    
C36   H33   S    
C30   C31   A    
C20   C26   S    
C6    H2    S    
C19   C33   S    
C34   H24   S    
C27   O8    A    
C21   H8    S    
C12   O4    A    
C23   O5    A    
Cu1   O5    S    
C33   C34   S    
Cu2   O2    S    
C14   C15   A    
C2    C28   A    
C13   C14   A    
C25   H12   S    
C22   H9    S    
C19   H7    S    
