data_mof_unit_53864.cif
_audit_creation_date              2013-03-05T15:40:29-0500
_audit_creation_method            fapswitch 2.2
_symmetry_space_group_name_H-M    P1
_symmetry_Int_Tables_number       1
_space_group_crystal_system       triclinic
_cell_length_a                    6.945446
_cell_length_b                    11.493757
_cell_length_c                    18.656523
_cell_angle_alpha                 90.000122
_cell_angle_beta                  93.477625
_cell_angle_gamma                 89.999496
_cell_volume                      1486.59406554

loop_
_atom_site_label
_atom_site_type_symbol
_atom_site_description
_atom_site_fract_x
_atom_site_fract_y
_atom_site_fract_z
_atom_type_partial_charge
O1    O     O_R   0.330540 0.606360 0.598870 -0.545665
O2    O     O_R   0.669460 0.106360 0.401130 -0.545642
O3    O     O_R   0.026770 0.620470 0.750430 -0.544443
O4    O     O_R   0.973230 0.120470 0.249570 -0.544486
O5    O     O_R   0.856460 0.393640 0.750930 -0.555126
O6    O     O_R   0.143540 0.893640 0.249070 -0.555101
C1    C     C_R   0.199712 0.648832 0.774018 0.825320
C2    C     C_R   0.800285 0.148829 0.225978 0.825671
O7    O     O_R   0.000920 0.620350 0.599420 -0.547980
O8    O     O_R   0.999080 0.120350 0.400580 -0.547999
O9    O     O_R   0.830430 0.393520 0.598850 -0.550076
O10   O     O_R   0.169570 0.893520 0.401150 -0.550071
C3    C     C_R   0.166354 0.647766 0.574410 0.801644
C4    C     C_R   0.833647 0.147758 0.425594 0.801963
O11   O     O_R   0.356570 0.606480 0.750960 -0.512999
O12   O     O_R   0.643430 0.106480 0.249040 -0.513002
O13   O     O_3   0.176990 0.425580 0.674890 -0.382812
O14   O     O_3   0.823010 0.925580 0.325110 -0.382797
V1    V     V_3+5 0.902170 0.513810 0.674910 1.537889
V2    V     V_3+5 0.097830 0.013810 0.325090 1.537746
O15   O     O_R   0.500800 0.379530 0.599380 -0.554055
O16   O     O_R   0.499200 0.879530 0.400620 -0.554054
C5    C     C_R   0.666270 0.351994 0.574442 0.740600
C6    C     C_R   0.333731 0.851996 0.425558 0.740632
O17   O     O_R   0.526650 0.379650 0.750390 -0.506034
O18   O     O_R   0.473350 0.879650 0.249610 -0.506040
C7    C     C_R   0.700070 0.351945 0.774414 0.780579
C8    C     C_R   0.299935 0.851955 0.225582 0.780576
V3    V     V_3+5 0.402160 0.486190 0.674900 1.599351
V4    V     V_3+5 0.597840 0.986190 0.325100 1.599339
O19   O     O_3   0.677210 0.574420 0.674910 -0.370098
O20   O     O_3   0.322790 0.074420 0.325090 -0.370175
C9    C     C_R   0.852730 0.090369 0.882105 -0.041227
C10   C     C_R   0.147369 0.590366 0.117894 -0.041068
H1    H     H_    0.836562 0.134925 0.770663 0.162900
H2    H     H_    0.163539 0.634922 0.229336 0.162941
H3    H     H_    0.935101 0.967129 0.999170 0.124054
H4    H     H_    0.064986 0.467124 0.000834 0.124047
H5    H     H_    0.907328 0.004128 0.871777 0.122811
H6    H     H_    0.092805 0.504117 0.128223 0.122792
C11   C     C_R   0.726319 0.272320 0.835420 -0.142859
C12   C     C_R   0.273706 0.772332 0.164575 -0.143001
C13   C     C_R   0.724626 0.349634 0.184036 0.283404
C14   C     C_R   0.275315 0.849621 0.815955 0.283615
C15   C     C_R   0.706425 0.433227 0.128783 0.298434
C16   C     C_R   0.293653 0.933220 0.871202 0.298239
C17   C     C_R   0.723277 0.397635 0.057556 -0.254569
C18   C     C_R   0.276816 0.897633 0.942434 -0.254573
C19   C     C_R   0.756261 0.280622 0.038979 0.043041
C20   C     C_R   0.243789 0.780624 0.961017 0.043020
C21   C     C_R   0.801027 0.200975 0.095770 0.012940
C22   C     C_R   0.199010 0.700971 0.904230 0.012991
C23   C     C_R   0.758800 0.241761 0.965858 0.034941
C24   C     C_R   0.241247 0.741767 0.034139 0.034984
C25   C     C_R   0.832776 0.128945 0.952434 0.081339
C26   C     C_R   0.167290 0.628947 0.047566 0.081303
C27   C     C_R   0.884897 0.054430 0.009203 -0.066556
C28   C     C_R   0.115170 0.554428 0.990799 -0.066575
C29   C     C_R   0.865998 0.088677 0.079569 0.000370
C30   C     C_R   0.134046 0.588674 0.920433 0.000431
C31   C     C_R   0.688552 0.308939 0.905311 0.346791
C32   C     C_R   0.311484 0.808950 0.094686 0.346755
C33   C     C_R   0.809065 0.163741 0.824397 -0.086892
C34   C     C_R   0.191012 0.663742 0.175601 -0.086574
C35   C     C_R   0.779637 0.234923 0.167816 -0.250007
C36   C     C_R   0.220359 0.734915 0.832185 -0.249884
H7    H     H_    0.722663 0.464830 0.017540 0.218448
H8    H     H_    0.277496 0.964827 0.982451 0.218499
H9    H     H_    0.904523 0.025848 0.121197 0.122066
H10   H     H_    0.095511 0.525846 0.878806 0.122068
C37   C     C_2   0.832050 0.233663 0.484870 -0.270529
C38   C     C_2   0.167951 0.733672 0.515135 -0.270580
H11   H     H_    0.969548 0.270568 0.504212 0.143597
H12   H     H_    0.030455 0.770581 0.495794 0.143645
C39   C     C_2   0.667867 0.266149 0.515128 -0.290247
C40   C     C_2   0.332134 0.766153 0.484874 -0.290264
H13   H     H_    0.530366 0.229276 0.495759 0.149386
H14   H     H_    0.469635 0.729276 0.504242 0.149413
N1    N     N_R   0.553186 0.401470 0.912905 0.057089
O21   O     O_R   0.583787 0.504362 0.886769 -0.412047
O22   O     O_R   0.396661 0.381661 0.945709 -0.362999
N2    N     N_R   0.446896 0.901455 0.087094 0.057103
O23   O     O_R   0.416355 0.004348 0.113237 -0.412072
O24   O     O_R   0.603420 0.881613 0.054297 -0.362975
N3    N     N_R   0.685920 0.380415 0.256361 0.113528
O25   O     O_R   0.815732 0.363759 0.308623 -0.393018
O26   O     O_R   0.518838 0.423410 0.270230 -0.350594
N4    N     N_R   0.313689 0.880391 0.743607 0.113563
O27   O     O_R   0.183217 0.864397 0.691505 -0.392691
O28   O     O_R   0.481172 0.922529 0.729541 -0.350661
N5    N     N_R   0.681138 0.555352 0.143978 0.100565
O29   O     O_R   0.728470 0.597823 0.207264 -0.345920
O30   O     O_R   0.637993 0.627786 0.091894 -0.364980
N6    N     N_R   0.319118 0.055336 0.856006 0.100379
O31   O     O_R   0.272608 0.097761 0.792645 -0.345755
O32   O     O_R   0.361853 0.127807 0.908108 -0.365030

loop_
_geom_bond_atom_site_label_1
_geom_bond_atom_site_label_2
_geom_bond_distance
_ccdc_geom_bond_type
C9    C25   1.399789 A    
V4    O20   2.162806 S    
C10   C26   1.399774 A    
O13   V3    1.712042 S    
C4    C37   1.483059 S    
C14   C36   1.410527 A    
C11   C31   1.409832 A    
C38   C40   1.355192 D    
V1    O19   1.710709 S    
C17   C19   1.411043 A    
N3    O25   1.301367 A    
O9    V1    2.021792 S    
C20   C24   1.436580 A    
C10   H6    1.082748 S    
C40   H14   1.086451 S    
O3    C1    1.295607 A    
C27   C29   1.384361 A    
C28   C30   1.384338 A    
C21   C35   1.416055 A    
C15   C17   1.402041 A    
C17   H7    1.074000 S    
O4    C2    1.295628 A    
O7    C3    1.304718 A    
C22   C30   1.406221 A    
O5    C7    1.288097 A    
C23   C31   1.429467 A    
O7    V1    2.017588 S    
O6    C8    1.288107 A    
O8    V2    2.017577 S    
C19   C21   1.420332 A    
C20   C22   1.420329 A    
O3    V1    2.022129 S    
O14   V4    1.712031 S    
C12   C32   1.409832 A    
C13   C35   1.410647 A    
C18   C20   1.411088 A    
C32   N2    1.432211 S    
C2    C35   1.469130 S    
C2    O12   1.290645 A    
H4    C28   1.082301 S    
C8    C12   1.463205 S    
O2    C4    1.293056 A    
O1    V3    2.020292 S    
C14   C16   1.409227 A    
O11   V3    2.019877 S    
C16   C18   1.402097 A    
C23   C25   1.422562 A    
O17   V3    2.020619 S    
C24   C26   1.422575 A    
N3    O26   1.301629 A    
C13   N3    1.436001 S    
C38   H12   1.086432 S    
O8    C4    1.304713 A    
N5    O29   1.301280 A    
N1    O22   1.299609 A    
C6    C40   1.483149 S    
C1    O11   1.290650 A    
C24   C32   1.429460 A    
O15   V3    2.018523 S    
N5    O30   1.300692 A    
C13   C15   1.409231 A    
C7    C11   1.463239 S    
C16   N6    1.444911 S    
C30   H10   1.082141 S    
C9    C33   1.386606 A    
O10   V2    2.021788 S    
C10   C34   1.386592 A    
C9    H5    1.082747 S    
C18   H8    1.073986 S    
N6    O32   1.300689 A    
C39   H13   1.086451 S    
C29   H9    1.082139 S    
N4    O28   1.301391 A    
O18   V4    2.020624 S    
N2    O24   1.299600 A    
C25   C27   1.392760 A    
O16   C6    1.304717 A    
O1    C3    1.293051 A    
C11   C33   1.394411 A    
C12   C34   1.394386 A    
C22   C36   1.415991 A    
C37   H11   1.086432 S    
V2    O20   1.710720 S    
O16   V4    2.018537 S    
C5    C39   1.483144 S    
O5    V1    2.018575 S    
C3    C38   1.483064 S    
O17   C7    1.299060 A    
O6    V2    2.018567 S    
O10   C6    1.293117 A    
O18   C8    1.299031 A    
O2    V4    2.020296 S    
O15   C5    1.304715 A    
V3    O19   2.162822 S    
C14   N4    1.435838 S    
C1    C36   1.469104 S    
C37   C39   1.355185 D    
C31   N1    1.432216 S    
C19   C23   1.436574 A    
O9    C5    1.293119 A    
O13   V1    2.161425 S    
C26   C28   1.392747 A    
O14   V2    2.161441 S    
N6    O31   1.301221 A    
C15   N5    1.444844 S    
N1    O21   1.301572 A    
O4    V2    2.022126 S    
C21   C29   1.406238 A    
N4    O27   1.301151 A    
N2    O23   1.301554 A    
H1    C33   1.083694 S    
H2    C34   1.083690 S    
O12   V4    2.019885 S    
H3    C27   1.082302 S    
