data_mof_unit_6149.cif
_audit_creation_date              2012-12-10T18:05:50-0500
_audit_creation_method            fapswitch 2.2
_symmetry_space_group_name_H-M    P1
_symmetry_Int_Tables_number       1
_space_group_crystal_system       triclinic
_cell_length_a                    12.623841
_cell_length_b                    13.045341
_cell_length_c                    14.997391
_cell_angle_alpha                 91.926568
_cell_angle_beta                  102.351277
_cell_angle_gamma                 81.674567
_cell_volume                      2387.20592592

loop_
_atom_site_label
_atom_site_type_symbol
_atom_type_description
_atom_site_fract_x
_atom_site_fract_y
_atom_site_fract_z
_atom_type_partial_charge
C1    C     C_R   0.439923 0.689786 0.478011 0.868128
C2    C     C_R   0.406882 0.476032 0.075157 0.116841
C3    C     C_R   0.681838 0.553448 0.081145 -0.219188
C4    C     C_R   0.682331 0.553466 0.988578 -0.220554
C5    C     C_R   0.591757 0.527636 0.924745 0.118652
C6    C     C_R   0.499578 0.501851 0.953613 0.061812
C7    C     C_R   0.408087 0.475619 0.889827 0.121049
C8    C     C_R   0.316780 0.450280 0.918784 -0.222390
C9    C     C_R   0.316170 0.450516 0.011318 -0.219129
C10   C     C_R   0.591704 0.527006 0.832369 -0.257284
C11   C     C_R   0.500929 0.500690 0.769264 -0.079119
C12   C     C_R   0.500557 0.500277 0.673048 0.893889
C13   C     C_R   0.409572 0.474938 0.797952 -0.274397
C14   C     C_R   0.726367 0.055256 0.462886 -0.199920
C15   C     C_R   0.597322 0.197897 0.499514 -0.054506
C16   C     C_R   0.293747 0.837500 0.430245 -0.179998
C17   C     C_R   0.261233 0.943622 0.421125 -0.147916
C18   C     C_R   0.340040 0.009810 0.430905 -0.196004
C19   C     C_R   0.452423 0.969197 0.441841 0.084846
C20   C     C_R   0.481783 0.861583 0.435306 0.092180
C21   C     C_R   0.536719 0.031834 0.458778 0.074992
C22   C     C_R   0.643904 0.991197 0.448747 0.180520
C23   C     C_R   0.561188 0.308162 0.508791 0.867567
C24   C     C_R   0.666431 0.887503 0.424621 -0.263144
C25   C     C_R   0.586543 0.823012 0.418585 -0.192394
C26   C     C_R   0.517731 0.132654 0.489974 -0.263232
C27   C     C_R   0.702611 0.159128 0.486794 -0.206266
C28   C     C_R   0.404595 0.796656 0.445470 -0.135173
C29   C     C_R   0.099466 0.325172 0.390549 -0.316404
C30   C     C_R   0.801398 0.623161 0.616123 0.012976
C31   C     C_R   0.909848 0.632230 0.654185 -0.249533
C32   C     C_R   0.991750 0.574797 0.617184 -0.160823
C33   C     C_R   0.965408 0.514003 0.538167 0.012387
C34   C     C_R   0.499387 0.499935 0.326950 0.864579
C35   C     C_R   0.855757 0.497286 0.509484 0.229486
C36   C     C_R   0.044732 0.465103 0.490071 -0.051691
C37   C     C_R   0.019155 0.381010 0.431342 0.184422
C38   C     C_R   0.912249 0.357247 0.410987 -0.290649
C39   C     C_R   0.830484 0.418212 0.446009 -0.225272
C40   C     C_R   0.144198 0.503425 0.490752 0.064188
C41   C     C_R   0.202570 0.356320 0.405118 -0.018638
C42   C     C_R   0.407300 0.475745 0.167546 -0.258288
C43   C     C_R   0.498563 0.500867 0.230733 -0.067175
C44   C     C_R   0.589818 0.526984 0.202114 -0.265083
C45   C     C_R   0.590716 0.527706 0.110143 0.117608
C46   C     C_R   0.499009 0.501971 0.046307 0.060554
H1    H     H_    0.336872 0.455497 0.190040 0.162734
H2    H     H_    0.746599 0.855515 0.413165 0.146431
H3    H     H_    0.808200 0.025524 0.454009 0.128779
H4    H     H_    0.440113 0.161864 0.507214 0.159441
H5    H     H_    0.232954 0.786917 0.426039 0.189322
H6    H     H_    0.311055 0.091902 0.425335 0.127961
H7    H     H_    0.175191 0.974827 0.409911 0.137718
H8    H     H_    0.606935 0.743566 0.398205 0.182528
H9    H     H_    0.266544 0.311518 0.376659 0.138707
H10   H     H_    0.890651 0.294567 0.364440 0.154276
H11   H     H_    0.082727 0.258168 0.347991 0.143140
H12   H     H_    0.660428 0.546814 0.251200 0.165620
H13   H     H_    0.736771 0.664597 0.645947 0.139975
H14   H     H_    0.075052 0.574329 0.653470 0.141576
H15   H     H_    0.930459 0.680585 0.713657 0.149056
H16   H     H_    0.748997 0.399968 0.424306 0.211990
H17   H     H_    0.752538 0.573333 0.129979 0.145650
H18   H     H_    0.753358 0.573393 0.966928 0.145010
H19   H     H_    0.662171 0.547109 0.809836 0.160343
H20   H     H_    0.339421 0.453978 0.749024 0.158368
H21   H     H_    0.246152 0.430235 0.869956 0.145911
H22   H     H_    0.245134 0.430602 0.032962 0.145957
H23   H     H_    0.765257 0.209109 0.493317 0.159437
N1    N     N_R   0.222190 0.444670 0.452360 -0.115401
N2    N     N_R   0.776970 0.554790 0.547140 -0.134223
O1    O     O_R   0.366740 0.627160 0.477250 -0.606428
O2    O     O_R   0.544830 0.662520 0.507680 -0.623326
O3    O     O_R   0.410940 0.482340 0.616930 -0.634136
O4    O     O_R   0.589030 0.517700 0.647360 -0.618193
O5    O     O_R   0.455170 0.337480 0.492320 -0.620518
O6    O     O_R   0.633260 0.372840 0.522750 -0.629731
O7    O     O_R   0.410970 0.482300 0.352640 -0.621772
O8    O     O_R   0.589060 0.517660 0.383070 -0.656561
Zn1   Zn    Zn3+2 0.381090 0.476390 0.479680 0.935594
Zn2   Zn    Zn3+2 0.618910 0.523610 0.520320 0.920254
C47   C     C_R   0.147393 0.616444 0.507795 0.149392
C48   C     C_R   0.208748 0.654045 0.588735 -0.116658
C49   C     C_R   0.190701 0.758731 0.612601 -0.166277
C50   C     C_R   0.109237 0.826732 0.557421 -0.109025
C51   C     C_R   0.047502 0.790735 0.476952 -0.167891
C52   C     C_R   0.067705 0.686795 0.451432 -0.180140
H24   H     H_    0.262378 0.601857 0.637925 0.142869
H25   H     H_    0.237049 0.786277 0.675829 0.136240
H26   H     H_    0.093991 0.907256 0.576953 0.130000
H27   H     H_    0.984185 0.843332 0.434253 0.124795
H28   H     H_    0.016958 0.659701 0.390068 0.128704

loop_
_geom_bond_atom_site_label_1
_geom_bond_atom_site_label_2
_ccdc_geom_bond_type
C16   C28   A    
C21   C26   A    
C12   O3    A    
C31   H15   S    
C19   C20   A    
C16   H5    S    
C23   O5    A    
C30   N2    A    
C18   H6    S    
C7    C8    A    
C50   C51   A    
C2    C46   A    
C40   N1    A    
C5    C6    A    
C36   C37   A    
C19   C21   A    
C51   H27   S    
C26   H4    S    
C38   C39   A    
O7    Zn1   S    
C14   H3    S    
C16   C17   A    
C20   C25   A    
C47   C52   A    
C33   C36   A    
C18   C19   A    
C41   H9    S    
C49   C50   A    
C31   C32   A    
C44   H12   S    
C8    C9    A    
C1    C28   S    
C14   C27   A    
C27   H23   S    
C15   C23   S    
C48   H24   S    
C35   N2    A    
O3    Zn1   S    
C21   C22   A    
O2    Zn2   S    
C13   H20   S    
C1    O1    A    
N1    Zn1   S    
C24   H2    S    
C40   C47   S    
C36   C40   A    
C24   C25   A    
O8    Zn2   S    
C51   C52   A    
O4    Zn2   S    
C15   C26   A    
C20   C28   A    
C45   C46   A    
C3    C45   A    
C35   C39   A    
C43   C44   A    
C37   C38   A    
C34   O8    A    
C15   C27   A    
C48   C49   A    
O6    Zn2   S    
C11   C12   S    
C30   H13   S    
C17   C18   A    
C23   O6    A    
C25   H8    S    
C29   H11   S    
C22   C24   A    
C42   C43   A    
C32   H14   S    
C3    C4    A    
C17   H7    S    
C44   C45   A    
C10   H19   S    
C39   H16   S    
C6    C46   A    
C29   C41   A    
C34   C43   S    
O5    Zn1   S    
C4    C5    A    
C50   H26   S    
C6    C7    A    
C3    H17   S    
C4    H18   S    
C1    O2    A    
C32   C33   A    
C14   C22   A    
C9    H22   S    
C5    C10   A    
O1    Zn1   S    
C34   O7    A    
C11   C13   A    
C30   C31   A    
C2    C42   A    
C33   C35   A    
C42   H1    S    
C10   C11   A    
C7    C13   A    
C38   H10   S    
C8    H21   S    
C47   C48   A    
C49   H25   S    
C12   O4    A    
C29   C37   A    
C52   H28   S    
C2    C9    A    
C41   N1    A    
N2    Zn2   S    
