data_mof_unit_11396.cif
_audit_creation_date              2012-10-26T18:28:18-0400
_audit_creation_method            fapswitch 2.2
_symmetry_space_group_name_H-M    P1
_symmetry_Int_Tables_number       1
_space_group_crystal_system       triclinic
_cell_length_a                    27.773837
_cell_length_b                    11.032263
_cell_length_c                    9.810439
_cell_angle_alpha                 111.079978
_cell_angle_beta                  97.807062
_cell_angle_gamma                 90.838456
_cell_volume                      2772.27668038

loop_
_atom_site_label
_atom_site_type_symbol
_atom_type_description
_atom_site_fract_x
_atom_site_fract_y
_atom_site_fract_z
_atom_type_partial_charge
C1    C     C_R   0.496276 0.254147 0.440743 0.542170
C2    C     C_R   0.866636 0.499650 0.370857 0.019134
C3    C     C_R   0.355316 0.499735 0.505891 0.026528
C4    C     C_R   0.644699 0.499906 0.494058 0.026329
C5    C     C_R   0.968687 0.492964 0.369782 0.018283
C6    C     C_R   0.031440 0.507930 0.631581 0.018045
C7    C     C_R   0.980105 0.504978 0.628846 0.019110
C8    C     C_R   0.019747 0.486156 0.369201 0.018982
C9    C     C_R   0.949102 0.499909 0.498769 0.033022
C10   C     C_R   0.050890 0.496207 0.500955 0.033191
C11   C     C_R   0.936254 0.493965 0.245638 -0.141049
C12   C     C_R   0.503693 0.745855 0.559266 0.542231
C13   C     C_R   0.064332 0.523158 0.761237 -0.141882
C14   C     C_R   0.886329 0.496867 0.246364 -0.112760
C15   C     C_R   0.114331 0.523219 0.761430 -0.112771
C16   C     C_R   0.407854 0.500140 0.501808 0.547456
C17   C     C_R   0.592152 0.499817 0.498188 0.547364
C18   C     C_R   0.040980 0.468751 0.240632 -0.141988
C19   C     C_R   0.958415 0.506217 0.751921 -0.141072
C20   C     C_2   0.494270 0.114897 0.407330 -0.140221
C21   C     C_2   0.505598 0.885105 0.592694 -0.140355
C22   C     C_2   0.500689 0.069554 0.516689 -0.165599
C23   C     C_R   0.102142 0.494700 0.502148 -0.029381
C24   C     C_2   0.498965 0.930448 0.483355 -0.166275
C25   C     C_2   0.504127 0.510512 0.081150 -0.017380
C26   C     C_2   0.495867 0.489494 0.918843 -0.017077
C27   C     C_R   0.172674 0.478857 0.376430 0.385672
C28   C     C_R   0.827008 0.506546 0.619488 0.385754
C29   C     C_R   0.184179 0.508094 0.631988 0.385163
C30   C     C_R   0.816155 0.500784 0.371781 0.384830
C31   C     C_R   0.280727 0.614514 0.533952 0.055254
C32   C     C_R   0.718251 0.382540 0.449580 0.054935
C33   C     C_R   0.331495 0.616707 0.532532 -0.021790
C34   C     C_R   0.897855 0.501714 0.497624 -0.029528
C35   C     C_R   0.667466 0.380857 0.450745 -0.022001
C36   C     C_R   0.329189 0.380974 0.481399 -0.027573
C37   C     C_R   0.671890 0.620280 0.535035 -0.027601
C38   C     C_R   0.278203 0.378670 0.480832 0.058351
C39   C     C_R   0.722855 0.621795 0.535179 0.058004
C40   C     C_R   0.254351 0.495575 0.507015 0.254275
C41   C     C_R   0.745663 0.502797 0.492756 0.254355
C42   C     C_3   0.356840 0.258582 0.455477 -0.387378
C43   C     C_3   0.645337 0.745089 0.577712 -0.387561
C44   C     C_3   0.249240 0.251927 0.451319 -0.352070
C45   C     C_R   0.121998 0.479739 0.372762 0.020622
C46   C     C_3   0.752898 0.749803 0.581248 -0.351751
C47   C     C_3   0.638358 0.251264 0.406602 -0.385356
C48   C     C_3   0.359520 0.744631 0.559517 -0.385256
C49   C     C_3   0.743019 0.255332 0.402754 -0.352369
C50   C     C_3   0.254883 0.739724 0.563899 -0.353034
C51   C     C_R   0.877682 0.505415 0.623175 0.020894
C52   C     C_R   0.091028 0.465856 0.242787 -0.116534
C53   C     C_R   0.908301 0.506776 0.748942 -0.115692
C54   C     C_R   0.133686 0.508416 0.632801 0.019325
Cu1   Cu    Cu3+1 0.508480 0.521810 0.644910 0.932958
Cu2   Cu    Cu3+1 0.491520 0.478190 0.355090 0.933127
H1    H     H_    0.512359 0.951052 0.707531 0.105465
H2    H     H_    0.978967 0.504641 0.852429 0.099612
H3    H     H_    0.492202 0.864776 0.368322 0.158768
H4    H     H_    0.507346 0.135224 0.631730 0.158641
H5    H     H_    0.334044 0.170004 0.438929 0.122147
H6    H     H_    0.374679 0.238330 0.355597 0.144759
H7    H     H_    0.385291 0.273157 0.552200 0.137304
H8    H     H_    0.668847 0.834868 0.604968 0.122937
H9    H     H_    0.616812 0.740836 0.484731 0.134801
H10   H     H_    0.627715 0.755786 0.676081 0.148830
H11   H     H_    0.253794 0.180492 0.341135 0.131904
H12   H     H_    0.487618 0.048950 0.292485 0.105437
H13   H     H_    0.262074 0.212475 0.538247 0.132265
H14   H     H_    0.209611 0.261820 0.450793 0.153079
H15   H     H_    0.748739 0.811729 0.696059 0.133456
H16   H     H_    0.792396 0.738814 0.579573 0.152774
H17   H     H_    0.740657 0.800850 0.504950 0.130902
H18   H     H_    0.652239 0.199967 0.481172 0.131839
H19   H     H_    0.599006 0.260106 0.412303 0.147948
H20   H     H_    0.641659 0.189773 0.290994 0.130402
H21   H     H_    0.345076 0.784243 0.474082 0.134186
H22   H     H_    0.355810 0.815978 0.670466 0.128623
H23   H     H_    0.467685 0.417259 0.846154 0.145946
H24   H     H_    0.398989 0.736250 0.555719 0.147441
H25   H     H_    0.737887 0.203221 0.478229 0.131900
H26   H     H_    0.727209 0.193153 0.288038 0.130031
H27   H     H_    0.782740 0.267861 0.404329 0.152055
H28   H     H_    0.259220 0.780334 0.477570 0.133448
H29   H     H_    0.215297 0.727209 0.564483 0.151744
H30   H     H_    0.270502 0.811848 0.673935 0.128832
H31   H     H_    0.863153 0.497016 0.148205 0.173949
H32   H     H_    0.137844 0.535247 0.863700 0.173469
H33   H     H_    0.948148 0.494643 0.145967 0.102687
H34   H     H_    0.532304 0.582757 0.153834 0.147320
H35   H     H_    0.052876 0.537649 0.866139 0.105027
H36   H     H_    0.547748 0.622562 0.934113 0.205364
H37   H     H_    0.452256 0.377427 0.065885 0.205679
H38   H     H_    0.105360 0.452741 0.141392 0.158831
H39   H     H_    0.893635 0.507934 0.846262 0.156866
H40   H     H_    0.019985 0.454861 0.134901 0.101414
N1    N     N_R   0.202518 0.493538 0.504983 -0.406450
N2    N     N_R   0.797495 0.503922 0.494871 -0.406596
N3    N     N_2   0.478780 0.445430 0.137360 -0.348764
N4    N     N_2   0.521220 0.554570 0.862640 -0.348578
O1    O     O_R   0.504520 0.332330 0.577400 -0.498131
O2    O     O_2   0.807270 0.509918 0.739051 -0.490819
O3    O     O_2   0.785879 0.498430 0.250850 -0.487534
O4    O     O_2   0.214777 0.522348 0.756814 -0.488283
O5    O     O_R   0.495480 0.667670 0.422600 -0.498784
O6    O     O_R   0.490210 0.295500 0.332650 -0.493496
O7    O     O_R   0.509790 0.704500 0.667350 -0.492988
O8    O     O_R   0.437420 0.518430 0.622370 -0.495096
O9    O     O_R   0.562580 0.481570 0.377630 -0.495244
O10   O     O_R   0.423110 0.481600 0.377610 -0.483901
O11   O     O_R   0.576890 0.518400 0.622390 -0.484414
O12   O     O_2   0.192091 0.464108 0.253009 -0.491067

loop_
_geom_bond_atom_site_label_1
_geom_bond_atom_site_label_2
_ccdc_geom_bond_type
C49   H26   S    
Cu1   Cu2   S    
C23   C45   A    
C53   H39   S    
C18   H40   S    
C36   C42   S    
C35   C47   S    
C18   C52   A    
C39   C41   A    
C21   H1    S    
C25   H34   S    
C47   H20   S    
C5    C11   A    
C43   H10   S    
C22   H4    S    
C12   O5    A    
C28   C51   A    
C29   C54   A    
C3    C33   A    
C49   H25   S    
C31   C40   A    
C48   H22   S    
C50   H29   S    
C25   N3    D    
C30   O3    S    
C32   C41   A    
C31   C33   A    
C52   H38   S    
H37   N3    S    
C46   H16   S    
C1    O6    A    
C27   C45   A    
C19   C53   A    
C4    C35   A    
C13   H35   S    
C17   O11   A    
Cu2   O10   S    
C43   H8    S    
C19   H2    S    
Cu2   O5    S    
C16   O10   A    
C32   C35   A    
C49   H27   S    
C40   N1    S    
C16   O8    A    
C45   C52   A    
C25   C26   S    
C12   C21   S    
C8    C18   A    
C29   O4    S    
Cu1   O7    S    
C51   C53   A    
C48   H21   S    
C37   C43   S    
C15   C54   A    
C38   C44   S    
C5    C8    A    
C11   H33   S    
C43   H9    S    
C34   C51   A    
C44   H13   S    
C44   H14   S    
C42   H5    S    
Cu2   O6    S    
C46   H15   S    
C39   C46   S    
C4    C17   S    
C20   C22   D    
C27   O12   S    
C7    C19   A    
C13   C15   A    
C9    C34   A    
C22   C24   S    
C31   C50   S    
C1    O1    A    
Cu2   O9    S    
H36   N4    S    
C23   C54   A    
C28   N2    A    
C7    C9    A    
C42   H6    S    
C27   N1    A    
C1    C20   S    
Cu1   O11   S    
C20   H12   S    
C47   H18   S    
C5    C9    A    
C17   O9    A    
C14   H31   S    
C12   O7    A    
C6    C7    A    
Cu1   N4    S    
C10   C23   A    
C30   N2    A    
C26   H23   S    
C29   N1    A    
Cu1   O8    S    
C2    C30   A    
C48   H24   S    
C36   C38   A    
C47   H19   S    
C37   C39   A    
C6    C13   A    
C38   C40   A    
C2    C34   A    
C3    C36   A    
C24   H3    S    
Cu1   O1    S    
C11   C14   A    
C50   H28   S    
C2    C14   A    
C32   C49   S    
C6    C10   A    
C50   H30   S    
C28   O2    S    
C4    C37   A    
C8    C10   A    
C21   C24   D    
C33   C48   S    
C41   N2    S    
C44   H11   S    
Cu2   N3    S    
C42   H7    S    
C46   H17   S    
C3    C16   S    
C26   N4    D    
C15   H32   S    
