data_mof_unit_19699.cif
_audit_creation_date              2012-12-10T18:42:34-0500
_audit_creation_method            fapswitch 2.2
_symmetry_space_group_name_H-M    P1
_symmetry_Int_Tables_number       1
_space_group_crystal_system       triclinic
_cell_length_a                    8.584764
_cell_length_b                    10.63769
_cell_length_c                    9.870767
_cell_angle_alpha                 89.907035
_cell_angle_beta                  98.60655
_cell_angle_gamma                 90.225502
_cell_volume                      891.260743743

loop_
_atom_site_label
_atom_site_type_symbol
_atom_type_description
_atom_site_fract_x
_atom_site_fract_y
_atom_site_fract_z
_atom_type_partial_charge
C1    C     C_R   0.499890 0.260610 0.500040 0.884131
C2    C     C_R   0.364059 0.064175 0.527719 0.434432
C3    C     C_R   0.499977 0.871599 0.499693 -0.461427
C4    C     C_R   0.500025 0.128401 0.500307 -0.461427
C5    C     C_R   0.598549 0.578618 0.085206 0.530866
C6    C     C_R   0.401451 0.421382 0.914794 0.530864
C7    C     C_R   0.597925 0.578098 0.940471 -0.280452
C8    C     C_R   0.402075 0.421901 0.059529 -0.280454
C9    C     C_R   0.500112 0.739390 0.499960 0.884132
C10   C     C_R   0.201187 0.499943 0.464134 0.918409
C11   C     C_R   0.798813 0.500057 0.535866 0.918407
C12   C     C_2   0.036025 0.500081 0.444869 -0.334518
C13   C     C_2   0.963975 0.499919 0.555131 -0.334504
C14   C     C_R   0.636001 0.065232 0.472718 0.421162
C15   C     C_R   0.364002 0.934768 0.527282 0.421159
C16   C     C_R   0.635944 0.935824 0.472281 0.434434
H1    H     H_    0.974185 0.500377 0.340267 0.203741
H2    H     H_    0.239424 0.292340 0.886826 0.326104
H3    H     H_    0.025815 0.499623 0.659733 0.203741
H4    H     H_    0.675715 0.640149 0.894756 0.163982
H5    H     H_    0.324285 0.359851 0.105244 0.163982
H6    H     H_    0.770741 0.215404 0.473146 0.326831
H7    H     H_    0.229254 0.784599 0.526835 0.326828
H8    H     H_    0.769982 0.786252 0.470158 0.337254
H9    H     H_    0.230014 0.213745 0.529822 0.337243
H10   H     H_    0.760576 0.707660 0.113174 0.326103
N1    N     N_R   0.499960 0.499970 0.857200 -0.101712
N2    N     N_R   0.500040 0.500030 0.142800 -0.101711
O1    O     O_R   0.499990 0.316750 0.614620 -0.557602
O2    O     O_3   0.227339 0.874497 0.551501 -0.653347
O3    O     O_3   0.772556 0.876674 0.447587 -0.640304
O4    O     O_3   0.227449 0.123326 0.552416 -0.640291
O5    O     O_3   0.697100 0.657357 0.169762 -0.716796
O6    O     O_3   0.302899 0.342643 0.830238 -0.716788
O7    O     O_R   0.500010 0.683250 0.385380 -0.557613
O8    O     O_R   0.499990 0.316780 0.385290 -0.613442
O9    O     O_R   0.500010 0.683220 0.614710 -0.613430
O10   O     O_R   0.271750 0.499990 0.587840 -0.575194
O11   O     O_R   0.728250 0.500010 0.412160 -0.575200
O12   O     O_R   0.271750 0.500010 0.358510 -0.627281
O13   O     O_R   0.728250 0.499990 0.641490 -0.627280
O14   O     O_3   0.772666 0.125503 0.448500 -0.653352
Zn1   Zn    Zn3+2 0.500000 0.499980 0.653120 1.015165
Zn2   Zn    Zn3+2 0.500000 0.500020 0.346880 1.015156

loop_
_geom_bond_atom_site_label_1
_geom_bond_atom_site_label_2
_ccdc_geom_bond_type
C12   H1    S    
O9    Zn1   S    
C2    C4    A    
C5    C7    A    
O11   Zn2   S    
C2    C15   A    
C5    N2    A    
O13   Zn1   S    
H10   O5    S    
C6    N1    A    
C14   O14   S    
C10   O10   A    
C1    C4    S    
H9    O4    S    
C9    O9    A    
C8    H5    S    
H8    O3    S    
C7    N1    A    
O10   Zn1   S    
O1    Zn1   S    
C16   O3    S    
C11   O11   A    
O7    Zn2   S    
H2    O6    S    
H6    O14   S    
C10   C12   S    
C3    C9    S    
C1    O1    A    
C11   O13   A    
O12   Zn2   S    
C4    C14   A    
C8    N2    A    
C14   C16   A    
O8    Zn2   S    
C13   H3    S    
H7    O2    S    
N1    Zn1   S    
C11   C13   S    
C3    C15   A    
C12   C13   D    
C15   O2    S    
C2    O4    S    
C7    H4    S    
C9    O7    A    
C10   O12   A    
C6    C8    A    
N2    Zn2   S    
C3    C16   A    
C6    O6    S    
C1    O8    A    
C5    O5    S    
