data_mof_unit_67376.cif
_audit_creation_date              2012-12-11T19:51:31-0500
_audit_creation_method            fapswitch 2.2
_symmetry_space_group_name_H-M    P1
_symmetry_Int_Tables_number       1
_space_group_crystal_system       triclinic
_cell_length_a                    16.739466
_cell_length_b                    27.959807
_cell_length_c                    8.412729
_cell_angle_alpha                 90.076099
_cell_angle_beta                  104.598423
_cell_angle_gamma                 89.705712
_cell_volume                      3810.26261118

loop_
_atom_site_label
_atom_site_type_symbol
_atom_type_description
_atom_site_fract_x
_atom_site_fract_y
_atom_site_fract_z
_atom_type_partial_charge
Ba1   Ba    Ba6+2 0.000400 0.534870 0.845190 1.766430
Ba2   Ba    Ba6+2 0.000400 0.465130 0.345190 1.777201
Ba3   Ba    Ba6+2 0.500400 0.034870 0.845190 1.775678
Ba4   Ba    Ba6+2 0.500400 0.965130 0.345190 1.765577
C1    C     C_3   0.940311 0.763086 0.627373 -0.271087
C2    C     C_3   0.942502 0.241071 0.110657 -0.297415
C3    C     C_3   0.439669 0.263827 0.628239 -0.260904
C4    C     C_3   0.440439 0.737452 0.124306 -0.265430
C5    C     C_R   0.134522 0.618450 0.391973 -0.285765
C6    C     C_R   0.135756 0.382006 0.891805 -0.280257
C7    C     C_R   0.631635 0.120549 0.384503 -0.286441
C8    C     C_R   0.634662 0.881568 0.890904 -0.282570
C9    C     C_2   0.770591 0.352379 0.941466 -0.147054
C10   C     C_2   0.774825 0.649182 0.449605 -0.047429
C11   C     C_2   0.269475 0.852516 0.942045 -0.161751
C12   C     C_2   0.270215 0.147906 0.442580 -0.148889
C13   C     C_2   0.818818 0.390280 0.910866 0.030959
C14   C     C_2   0.817899 0.609587 0.411141 0.056346
C15   C     C_2   0.317289 0.890509 0.910561 0.009247
C16   C     C_2   0.319311 0.109971 0.412828 0.023493
C17   C     C_2   0.847766 0.345055 0.682368 0.054224
C18   C     C_2   0.843768 0.653536 0.178927 0.040921
C19   C     C_2   0.344482 0.846104 0.679417 0.045314
C20   C     C_2   0.347180 0.154811 0.183619 0.044534
C21   C     C_3   0.783177 0.312147 0.695730 -0.059072
C22   C     C_3   0.780420 0.687151 0.196941 -0.056714
C23   C     C_3   0.279106 0.813625 0.692512 -0.069477
C24   C     C_3   0.280966 0.187155 0.195467 -0.056928
C25   C     C_3   0.772676 0.307498 0.862121 0.063544
C26   C     C_3   0.776301 0.693520 0.366922 0.074966
C27   C     C_3   0.271015 0.807916 0.860436 0.098459
C28   C     C_3   0.271922 0.192656 0.362651 0.078748
C29   C     C_2   0.788781 0.263324 0.624382 -0.043377
C30   C     C_2   0.783587 0.735163 0.119522 -0.051001
C31   C     C_2   0.282693 0.765228 0.616779 -0.047596
C32   C     C_2   0.284871 0.235627 0.121454 -0.040641
C33   C     C_2   0.212771 0.740859 0.558837 0.012137
C34   C     C_2   0.214792 0.259644 0.058146 0.011676
C35   C     C_2   0.719201 0.238907 0.563568 0.015956
C36   C     C_2   0.713198 0.758835 0.056004 0.013067
C37   C     C_R   0.262320 0.683095 0.368541 0.085186
C38   C     C_R   0.264711 0.317142 0.869594 0.084369
C39   C     C_R   0.777371 0.174991 0.403146 0.022927
C40   C     C_R   0.762906 0.816483 0.867070 0.089882
C41   C     C_R   0.211648 0.693063 0.484443 0.003473
C42   C     C_R   0.214010 0.307478 0.985136 -0.005876
C43   C     C_R   0.718086 0.190190 0.496057 0.032586
C44   C     C_R   0.711789 0.806567 0.981898 0.004732
C45   C     C_3   0.022148 0.714450 0.099015 0.820676
C46   C     C_3   0.023930 0.284583 0.593449 0.793967
C47   C     C_3   0.523715 0.214125 0.098609 0.806175
C48   C     C_3   0.523509 0.785386 0.597181 0.820232
C49   C     C_R   0.248457 0.638901 0.268683 0.395186
C50   C     C_R   0.250326 0.361300 0.769853 0.396636
C51   C     C_R   0.761908 0.130426 0.303037 0.359560
C52   C     C_R   0.749191 0.860880 0.768295 0.380642
C53   C     C_R   0.186130 0.609332 0.275938 0.084635
C54   C     C_R   0.187198 0.390821 0.775842 0.083660
C55   C     C_R   0.689621 0.107643 0.284174 0.097066
C56   C     C_R   0.686699 0.890668 0.775768 0.080350
C57   C     C_R   0.149751 0.657148 0.499949 0.056023
C58   C     C_R   0.152261 0.343767 0.001159 0.062183
C59   C     C_R   0.649825 0.157524 0.499181 0.050437
C60   C     C_R   0.649754 0.842667 0.998003 0.055856
C61   C     C_3   0.049330 0.766547 0.118386 0.504860
C62   C     C_3   0.052758 0.232628 0.604091 0.526482
C63   C     C_3   0.552494 0.265920 0.115183 0.525873
C64   C     C_3   0.551740 0.733299 0.614260 0.506922
C65   C     C_3   0.698435 0.490837 0.096769 0.633915
C66   C     C_3   0.682157 0.525042 0.566481 0.649956
C67   C     C_3   0.179715 0.971705 0.058089 0.644888
C68   C     C_3   0.197872 0.010149 0.594543 0.618084
C69   C     C_3   0.622321 0.458064 0.048118 0.361299
C70   C     C_3   0.609322 0.550018 0.445194 0.375043
C71   C     C_3   0.114398 0.944434 0.928731 0.399583
C72   C     C_3   0.121571 0.043176 0.542746 0.357085
C73   C     C_3   0.241640 0.470598 0.141922 0.281004
C74   C     C_3   0.239909 0.529361 0.639510 0.287709
C75   C     C_3   0.738110 0.969433 0.139334 0.286373
C76   C     C_3   0.738387 0.030096 0.646978 0.288999
C77   C     C_3   0.322513 0.442618 0.176027 0.385450
C78   C     C_3   0.320639 0.556656 0.662727 0.374535
C79   C     C_3   0.818421 0.941120 0.164056 0.377179
C80   C     C_3   0.818059 0.058713 0.674471 0.365171
C81   C     C_3   0.975444 0.713441 0.614766 0.823464
C82   C     C_3   0.978171 0.290279 0.110343 0.840497
C83   C     C_3   0.474945 0.214181 0.614314 0.824786
C84   C     C_3   0.475689 0.786915 0.112548 0.821558
C85   C     C_2   0.863120 0.383816 0.781377 -0.174763
C86   C     C_2   0.858926 0.614572 0.276344 -0.186605
C87   C     C_2   0.360780 0.884407 0.779799 -0.150751
C88   C     C_2   0.364365 0.116546 0.284675 -0.197549
H1    H     H_    0.937976 0.687025 0.662646 0.041734
H2    H     H_    0.941294 0.315519 0.165633 0.053374
H3    H     H_    0.437399 0.187557 0.661121 0.044944
H4    H     H_    0.438251 0.813502 0.160962 0.051441
H5    H     H_    0.573725 0.470300 0.107631 -0.033055
H6    H     H_    0.556244 0.553015 0.501693 -0.025810
H7    H     H_    0.084444 0.967295 0.822946 0.014403
H8    H     H_    0.071571 0.030658 0.597387 -0.018311
H9    H     H_    0.596465 0.458478 0.913168 0.035981
H10   H     H_    0.589043 0.529732 0.329011 0.018426
H11   H     H_    0.142828 0.913800 0.880166 -0.019803
H12   H     H_    0.097832 0.043537 0.407148 0.045429
H13   H     H_    0.213209 0.471060 0.007875 -0.045965
H14   H     H_    0.207717 0.528633 0.507154 -0.049887
H15   H     H_    0.706145 0.970198 0.006928 -0.066185
H16   H     H_    0.705174 0.031383 0.515149 -0.072879
H17   H     H_    0.199531 0.453191 0.207007 0.059596
H18   H     H_    0.200594 0.547459 0.709842 0.069111
H19   H     H_    0.698292 0.952185 0.209725 0.068428
H20   H     H_    0.699039 0.045903 0.721530 0.084725
H21   H     H_    0.361574 0.456323 0.097441 -0.001063
H22   H     H_    0.353981 0.544229 0.571611 -0.006412
H23   H     H_    0.851654 0.952215 0.071533 0.034657
H24   H     H_    0.846031 0.053723 0.569033 0.036875
H25   H     H_    0.356567 0.447068 0.306464 0.042102
H26   H     H_    0.360544 0.550126 0.787771 0.041678
H27   H     H_    0.858708 0.948175 0.288278 0.052962
H28   H     H_    0.863069 0.046314 0.787859 0.047145
H29   H     H_    0.979906 0.790352 0.589624 0.094480
H30   H     H_    0.877136 0.241241 0.038998 0.085932
H31   H     H_    0.477905 0.291276 0.587317 0.100418
H32   H     H_    0.376617 0.735234 0.044951 0.108204
H33   H     H_    0.876877 0.766029 0.546641 0.110168
H34   H     H_    0.945792 0.230397 0.238687 0.048261
H35   H     H_    0.375537 0.266326 0.550232 0.112393
H36   H     H_    0.438624 0.730071 0.252408 0.067971
H37   H     H_    0.739265 0.354616 0.038894 0.203361
H38   H     H_    0.745371 0.647765 0.550291 0.165485
H39   H     H_    0.236722 0.855201 0.037719 0.120244
H40   H     H_    0.237702 0.145595 0.538096 0.204744
H41   H     H_    0.906751 0.410852 0.765674 0.056266
H42   H     H_    0.901602 0.586978 0.258294 0.052618
H43   H     H_    0.405203 0.911117 0.765304 0.048540
H44   H     H_    0.409261 0.089819 0.270468 0.058471
H45   H     H_    0.088901 0.592209 0.402753 0.054245
H46   H     H_    0.089744 0.408314 0.902395 0.054974
H47   H     H_    0.580523 0.096979 0.384084 0.056501
H48   H     H_    0.588872 0.907963 0.901932 0.054389
H49   H     H_    0.848462 0.246458 0.634911 0.084899
H50   H     H_    0.842472 0.752399 0.127979 0.094229
H51   H     H_    0.341787 0.748356 0.621558 0.092982
H52   H     H_    0.344045 0.252633 0.130644 0.091524
H53   H     H_    0.154542 0.756595 0.567211 0.109992
H54   H     H_    0.156244 0.243698 0.061574 0.111898
H55   H     H_    0.660502 0.255172 0.566493 0.111344
H56   H     H_    0.654912 0.742843 0.061100 0.111941
H57   H     H_    0.937632 0.770104 0.755252 0.068078
H58   H     H_    0.977818 0.215288 0.054112 0.106115
H59   H     H_    0.438555 0.271229 0.756845 0.063934
H60   H     H_    0.479318 0.709968 0.084089 0.100356
H61   H     H_    0.023730 0.699973 0.222009 -0.000619
H62   H     H_    0.024105 0.296731 0.718592 0.008428
H63   H     H_    0.524023 0.200688 0.222290 0.005043
H64   H     H_    0.524889 0.799368 0.720839 -0.000916
H65   H     H_    0.046940 0.782460 0.996479 0.037174
H66   H     H_    0.054830 0.219367 0.480788 0.040540
H67   H     H_    0.553394 0.280559 0.993075 0.037957
H68   H     H_    0.549654 0.717884 0.491652 0.048591
H69   H     H_    0.007831 0.787255 0.177477 -0.038449
H70   H     H_    0.009578 0.210081 0.651956 -0.044844
H71   H     H_    0.509974 0.287888 0.167863 -0.036282
H72   H     H_    0.510667 0.712228 0.672450 -0.053785
H73   H     H_    0.732980 0.480064 0.220828 0.076405
H74   H     H_    0.701980 0.550143 0.670399 0.042086
H75   H     H_    0.199769 0.946684 0.162444 0.043154
H76   H     H_    0.231681 0.021095 0.719044 0.080461
O1    O     O_2   0.163830 0.569270 0.980510 -0.422791
O2    O     O_2   0.163830 0.430730 0.480510 -0.425615
O3    O     O_2   0.663830 0.069270 0.980510 -0.434880
O4    O     O_2   0.663830 0.930730 0.480510 -0.419697
O5    O     O_3   0.746927 0.512914 0.492273 -0.645412
O6    O     O_3   0.746884 0.487624 0.981379 -0.626789
O7    O     O_3   0.247139 0.012712 0.480593 -0.628104
O8    O     O_3   0.246752 0.987317 0.996285 -0.680783
O9    O     O_3   0.942650 0.712358 0.992236 -0.692424
O10   O     O_3   0.944803 0.287603 0.485360 -0.694433
O11   O     O_3   0.444544 0.212181 0.990348 -0.695294
O12   O     O_3   0.443893 0.787663 0.490779 -0.693137
O13   O     O_3   0.904940 0.476110 0.001150 -0.478076
O14   O     O_3   0.904940 0.523890 0.501150 -0.483357
O15   O     O_3   0.404940 0.976110 0.001150 -0.472184
O16   O     O_3   0.404940 0.023890 0.501150 -0.474850
O17   O     O_3   0.095420 0.524330 0.188510 -0.521148
O18   O     O_3   0.095420 0.475670 0.688510 -0.519724
O19   O     O_3   0.595420 0.024330 0.188510 -0.522948
O20   O     O_3   0.595420 0.975670 0.688510 -0.521424
O21   O     O_3   0.028940 0.612400 0.656050 -0.499604
O22   O     O_3   0.028940 0.387600 0.156050 -0.495232
O23   O     O_3   0.528940 0.112400 0.656050 -0.496181
O24   O     O_3   0.528940 0.887600 0.156050 -0.494853
O25   O     O_2   0.169892 0.647924 0.835849 -0.356527
O26   O     O_2   0.171464 0.352355 0.339392 -0.361353
O27   O     O_2   0.669213 0.148260 0.834535 -0.374340
O28   O     O_2   0.670003 0.851496 0.334537 -0.353152
O29   O     O_3   0.260430 0.517045 0.200386 -0.687823
O30   O     O_3   0.259720 0.483031 0.699056 -0.688523
O31   O     O_3   0.758841 0.015676 0.197716 -0.644017
O32   O     O_3   0.759694 0.983020 0.696378 -0.684272
O33   O     O_3   0.058105 0.712108 0.707568 -0.591888
O34   O     O_3   0.060854 0.289269 0.202343 -0.600872
O35   O     O_3   0.557653 0.212544 0.706969 -0.595497
O36   O     O_3   0.558451 0.787770 0.205066 -0.593121
O37   O     O_2   0.837400 0.570350 0.710350 -0.482111
O38   O     O_2   0.837400 0.429650 0.210350 -0.474417
O39   O     O_2   0.337400 0.070350 0.710350 -0.472888
O40   O     O_2   0.337400 0.929650 0.210350 -0.474150
O41   O     O_3   0.972820 0.612580 0.035550 -0.449364
O42   O     O_3   0.972820 0.387420 0.535550 -0.450981
O43   O     O_3   0.472820 0.112580 0.035550 -0.451822
O44   O     O_3   0.472820 0.887420 0.535550 -0.448996
O45   O     O_2   0.835314 0.649538 0.844692 -0.484680
O46   O     O_2   0.834679 0.351046 0.347128 -0.452380
O47   O     O_2   0.334733 0.149602 0.847117 -0.450643
O48   O     O_2   0.335470 0.850644 0.344576 -0.477122
P1    P     P_3+3 0.171820 0.553000 0.158080 1.028458
P2    P     P_3+3 0.171820 0.447000 0.658080 1.028135
P3    P     P_3+3 0.671820 0.053000 0.158080 1.057700
P4    P     P_3+3 0.671820 0.947000 0.658080 1.029750
P5    P     P_3+3 0.829210 0.554130 0.532500 1.031832
P6    P     P_3+3 0.829210 0.445870 0.032500 1.039655
P7    P     P_3+3 0.329210 0.054130 0.532500 1.035257
P8    P     P_3+3 0.329210 0.945870 0.032500 0.981122
P9    P     P_3+3 0.897416 0.657103 0.012554 1.002126
P10   P     P_3+3 0.898889 0.342500 0.512125 1.016354
P11   P     P_3+3 0.398299 0.157441 0.013321 1.013377
P12   P     P_3+3 0.397940 0.842914 0.512259 1.003499
P13   P     P_3+3 0.105544 0.343967 0.176517 1.112286
P14   P     P_3+3 0.102659 0.657275 0.675305 1.112172
P15   P     P_3+3 0.602826 0.842490 0.173789 1.115534
P16   P     P_3+3 0.601951 0.157610 0.673864 1.106743
F1    F     F_    0.643297 0.411711 0.098323 -0.743632
F2    F     F_    0.630493 0.595420 0.408349 -0.759877
F3    F     F_    0.054171 0.927301 0.999894 -0.748935
F4    F     F_    0.141346 0.089253 0.596966 -0.741748
F5    F     F_    0.308060 0.394574 0.145859 -0.776197
F6    F     F_    0.305975 0.605144 0.644431 -0.776373
F7    F     F_    0.803215 0.892706 0.150258 -0.773467
F8    F     F_    0.802786 0.106668 0.692672 -0.757943
F9    F     F_    0.969670 0.704310 0.451020 -0.830579
F10   F     F_    0.971916 0.302702 0.949005 -0.827947
F11   F     F_    0.469258 0.205562 0.450371 -0.825595
F12   F     F_    0.469754 0.796192 0.948921 -0.828378
F13   F     F_    0.129316 0.769689 0.214272 -0.722288
F14   F     F_    0.130897 0.228691 0.707988 -0.706762
F15   F     F_    0.631245 0.268670 0.217033 -0.707714
F16   F     F_    0.631801 0.730009 0.709984 -0.721079
O49   O     O_3   0.295570 0.629646 0.158779 -0.608236
C89   C     C_3   0.377499 0.619655 0.246272 0.276864
H77   H     H_    0.379977 0.590942 0.339188 0.044017
H78   H     H_    0.407700 0.652212 0.309270 0.032837
C90   C     C_3   0.425515 0.602395 0.125835 -0.328653
H79   H     H_    0.417118 0.627586 0.020894 0.154572
H80   H     H_    0.492097 0.600101 0.188011 0.123838
H81   H     H_    0.403481 0.566424 0.078988 0.103165
O50   O     O_3   0.300297 0.371536 0.666546 -0.614469
C91   C     C_3   0.379270 0.384116 0.762764 0.277286
H82   H     H_    0.413343 0.351872 0.821333 0.035803
H83   H     H_    0.375622 0.410549 0.860058 0.050906
C92   C     C_3   0.427537 0.407173 0.653101 -0.311371
H84   H     H_    0.396212 0.440640 0.599298 0.115219
H85   H     H_    0.490148 0.416201 0.727226 0.060899
H86   H     H_    0.432601 0.382320 0.552980 0.138532
O51   O     O_3   0.822415 0.107450 0.243721 -0.639336
C93   C     C_3   0.883716 0.138657 0.221526 0.272863
H87   H     H_    0.918180 0.154294 0.340740 0.039223
H88   H     H_    0.854468 0.166582 0.132144 0.075519
C94   C     C_3   0.944660 0.110772 0.150391 -0.281210
H89   H     H_    0.913264 0.096711 0.027295 0.147991
H90   H     H_    0.995594 0.134527 0.138614 0.050787
H91   H     H_    0.970829 0.080421 0.232280 0.122746
O52   O     O_3   0.796237 0.869946 0.658386 -0.618017
C95   C     C_3   0.877987 0.879940 0.745933 0.287514
H92   H     H_    0.908078 0.847764 0.812779 0.036799
H93   H     H_    0.879920 0.909499 0.835745 0.090361
C96   C     C_3   0.926687 0.895518 0.624921 -0.281058
H94   H     H_    0.907240 0.932079 0.579413 0.101933
H95   H     H_    0.993565 0.895706 0.686005 0.091112
H96   H     H_    0.915959 0.870546 0.518979 0.147779
F17   F     F_    0.077213 0.688759 0.034371 -0.678072
F18   F     F_    0.078951 0.312049 0.535767 -0.681991
F19   F     F_    0.578750 0.187208 0.037698 -0.681999
F20   F     F_    0.577985 0.811473 0.533367 -0.677724
O53   O     O_3   0.677021 0.539518 0.114062 -0.680286
C97   C     C_3   0.618610 0.557564 0.974475 0.224366
H97   H     H_    0.555256 0.550714 0.987516 0.015243
H98   H     H_    0.624520 0.541249 0.857861 0.057562
C98   C     C_3   0.629589 0.611282 0.963012 -0.279183
H99   H     H_    0.624160 0.628942 0.078189 0.156830
H100  H     H_    0.691160 0.618957 0.942324 0.131450
H101  H     H_    0.581363 0.626021 0.858575 0.087955
O54   O     O_3   0.656466 0.483095 0.634625 -0.695055
C99   C     C_3   0.615771 0.450201 0.512818 0.210794
H102  H     H_    0.636646 0.452226 0.397639 0.085990
H103  H     H_    0.548163 0.457032 0.483666 0.013009
C100  C     C_3   0.632646 0.399561 0.576978 -0.273936
H104  H     H_    0.590784 0.374228 0.494426 0.102842
H105  H     H_    0.697008 0.390240 0.578663 0.103594
H106  H     H_    0.623970 0.396446 0.702986 0.122053
O55   O     O_3   0.144446 0.011292 0.122039 -0.660689
C101  C     C_3   0.112862 0.046933 0.002656 0.273968
H107  H     H_    0.044430 0.046955 0.976238 0.052762
H108  H     H_    0.130286 0.042138 0.884805 0.056805
C102  C     C_3   0.144806 0.095432 0.069520 -0.301516
H109  H     H_    0.134838 0.101003 0.193758 0.113009
H110  H     H_    0.211587 0.096986 0.076470 0.103054
H111  H     H_    0.112839 0.124174 0.985988 0.114598
O56   O     O_3   0.176729 0.961621 0.612757 -0.725971
C103  C     C_3   0.118785 0.943395 0.473316 0.185941
H112  H     H_    0.125063 0.959276 0.356653 0.128332
H113  H     H_    0.055222 0.950522 0.485399 0.026525
C104  C     C_3   0.130254 0.889607 0.463527 -0.283158
H114  H     H_    0.082157 0.874734 0.359571 0.130370
H115  H     H_    0.191877 0.881632 0.442971 0.136094
H116  H     H_    0.125003 0.872344 0.579260 0.100785

loop_
_geom_bond_atom_site_label_1
_geom_bond_atom_site_label_2
_ccdc_geom_bond_type
C51   C55   D    
C100  H105  S    
O1    P1    D    
C51   O51   S    
C18   P9    S    
O55   C101  S    
C16   C88   S    
C42   C58   S    
C45   H61   S    
C46   O10   S    
C10   H38   S    
C86   H42   S    
C89   H78   S    
C77   H25   S    
C1    H57   S    
Ba1   P5    S    
C95   H92   S    
C79   H27   S    
O15   P8    S    
O6    P6    S    
C66   C70   S    
C90   H79   S    
C70   F2    S    
Ba3   O16   S    
C82   O34   S    
C89   C90   S    
C69   H9    S    
C71   H11   S    
O30   P2    S    
O25   P14   D    
Ba4   O40   S    
C45   O9    S    
C64   H72   S    
C21   C25   A    
C103  H113  S    
C23   C27   A    
C24   C28   A    
C13   C85   S    
Ba1   O13   S    
C23   C31   S    
C35   C43   S    
C48   F20   S    
C74   C78   S    
C12   C16   A    
C76   H20   S    
C57   P14   S    
C88   H44   S    
C94   H90   S    
O32   P4    S    
C78   H26   S    
C33   C41   S    
C90   H80   S    
C62   F14   S    
C36   C44   S    
O14   P5    S    
C97   C98   S    
C15   P8    S    
Ba2   O22   S    
C3    H31   S    
C60   P15   S    
C72   H8    S    
C74   H14   S    
Ba3   O39   S    
O21   P14   S    
C32   H52   S    
C97   H98   S    
C32   C34   D    
C61   H69   S    
Ba2   P2    S    
C37   C41   S    
C63   H67   S    
C74   O30   S    
C64   H68   S    
C39   C43   S    
C40   C44   S    
O24   P15   S    
O39   P7    D    
C70   H6    S    
C64   F16   S    
O18   P2    S    
C47   H63   S    
O49   C89   S    
O48   P12   D    
C5    C57   A    
C6    C54   S    
C7    C59   A    
C92   H84   S    
C8    C60   A    
C104  H115  S    
C67   O8    S    
O50   C91   S    
C68   O7    S    
C14   P5    S    
C34   H54   S    
C63   F15   S    
C4    H36   S    
C102  H110  S    
C83   H3    S    
Ba2   O38   S    
O4    P4    D    
C1    C81   S    
C102  H111  S    
C80   H24   S    
C67   H75   S    
C96   H94   S    
C68   H76   S    
C47   O11   S    
C20   C88   D    
C68   O56   S    
Ba3   O43   S    
C101  H108  S    
C85   H41   S    
Ba1   O41   S    
C79   H23   S    
O31   P3    S    
C29   H49   S    
C4    C84   S    
Ba2   O13   S    
C2    H58   S    
O54   C99   S    
C71   H7    S    
C98   H99   S    
C72   F4    S    
C47   C63   S    
C84   O36   S    
C73   H17   S    
C37   C49   S    
C93   H88   S    
O34   P13   S    
C39   C51   S    
C22   C26   A    
Ba3   Ba4   S    
C17   C21   A    
Ba3   P7    S    
Ba4   O4    S    
C20   C24   A    
C93   C94   S    
C92   H86   S    
C11   C27   A    
O40   P8    D    
C6    H46   S    
C76   H16   S    
C2    C82   S    
C9    C13   A    
C91   H82   S    
Ba2   O17   S    
C54   P2    S    
O38   P6    D    
C45   F17   S    
C77   F5    S    
O27   P16   D    
C95   H93   S    
Ba4   O15   S    
O11   P11   S    
C65   H73   S    
C34   C42   S    
O45   P9    D    
O9    P9    S    
C63   H71   S    
C11   H39   S    
C96   H96   S    
C1    H33   S    
C9    H37   S    
C3    H35   S    
Ba3   O15   S    
O3    P3    D    
C21   C29   S    
Ba1   O21   S    
C72   H12   S    
O16   P7    S    
C65   O53   S    
C84   H4    S    
C95   C96   S    
Ba4   O24   S    
C76   C80   S    
O5    P5    S    
C19   P12   S    
C17   C85   D    
C11   C15   A    
C17   P10   S    
C46   F18   S    
C9    C25   A    
C56   P4    S    
C43   C59   S    
C99   H102  S    
C7    C55   S    
C44   C60   S    
Ba2   P6    S    
C98   H101  S    
C62   H70   S    
C38   C42   S    
C66   O54   S    
C7    H47   S    
C5    H45   S    
C3    C83   S    
Ba4   P4    S    
C8    H48   S    
C65   C69   S    
C20   P11   S    
O8    P8    S    
C69   F1    S    
C81   O33   S    
C70   H10   S    
C94   H89   S    
O26   P13   D    
C6    C58   A    
O41   P9    S    
O29   P1    S    
C83   O35   S    
O20   P4    S    
C75   O31   S    
C36   H56   S    
C14   C86   S    
C2    H34   S    
C99   C100  S    
C61   H65   S    
C49   C53   D    
C4    H32   S    
C89   H77   S    
O56   C103  S    
O12   P12   S    
C52   C56   D    
O53   C97   S    
C90   H81   S    
C40   C52   S    
C73   C77   S    
C80   H28   S    
C81   F9    S    
C18   C86   D    
C75   H15   S    
O7    P7    S    
C45   C61   S    
Ba2   O2    S    
C3    H59   S    
C12   C28   A    
C65   O6    S    
C61   F13   S    
C103  H112  S    
C30   H50   S    
C4    H60   S    
O13   P6    S    
C67   O55   S    
C84   F12   S    
Ba1   O14   S    
O22   P13   S    
O36   P15   S    
C73   H13   S    
O42   P10   S    
C38   C50   S    
C75   C79   S    
C104  H114  S    
O35   P16   S    
C53   P1    S    
C41   C57   S    
C16   P7    S    
C12   H40   S    
C15   C87   S    
O44   P12   S    
C87   H43   S    
C24   C32   S    
Ba3   P3    S    
C102  H109  S    
C18   C22   A    
C94   H91   S    
C77   H21   S    
C52   O52   S    
C50   O50   S    
Ba1   P1    S    
C73   O29   S    
C31   H51   S    
C103  C104  S    
C99   H103  S    
C100  H104  S    
C10   C14   A    
C68   C72   S    
Ba3   O20   S    
O19   P3    S    
Ba1   O18   S    
C69   H5    S    
C101  C102  S    
C29   C35   D    
O17   P1    S    
C30   C36   D    
Ba4   O19   S    
C31   C33   D    
C66   H74   S    
C97   H97   S    
C76   O32   S    
C1    H29   S    
Ba1   Ba2   S    
Ba2   O14   S    
Ba1   O1    S    
C13   P6    S    
C82   H2    S    
C22   C30   S    
O23   P16   S    
C71   F3    S    
C19   C23   A    
Ba1   O37   S    
O51   C93   S    
O47   P11   D    
C48   C64   S    
C82   F10   S    
O43   P11   S    
C47   F19   S    
C80   F8    S    
C81   H1    S    
C10   C26   A    
C79   F7    S    
Ba2   O42   S    
C78   H22   S    
C92   H85   S    
C104  H116  S    
Ba4   P8    S    
C91   H83   S    
C48   O12   S    
Ba3   O23   S    
C83   F11   S    
O28   P15   D    
C58   P13   S    
O52   C95   S    
C74   H18   S    
C49   O49   S    
Ba4   O16   S    
C46   C62   S    
O33   P14   S    
C96   H95   S    
C100  H106  S    
C19   C87   D    
C91   C92   S    
C2    H30   S    
C62   H66   S    
C50   C54   D    
C101  H107  S    
C48   H64   S    
Ba4   O44   S    
C75   H19   S    
C55   P3    S    
C67   C71   S    
Ba3   O3    S    
C46   H62   S    
C78   F6    S    
O37   P5    D    
C98   H100  S    
C5    C53   S    
O46   P10   D    
C66   O5    S    
O10   P10   S    
C93   H87   S    
C8    C56   S    
C35   H55   S    
C33   H53   S    
C59   P16   S    
O2    P2    D    
