data_mof_unit_59961.cif
_audit_creation_date              2012-12-11T15:48:56-0500
_audit_creation_method            fapswitch 2.2
_symmetry_space_group_name_H-M    P1
_symmetry_Int_Tables_number       1
_space_group_crystal_system       triclinic
_cell_length_a                    10.980768
_cell_length_b                    10.998872
_cell_length_c                    18.835543
_cell_angle_alpha                 90.577594
_cell_angle_beta                  90.298909
_cell_angle_gamma                 60.403898
_cell_volume                      1977.97483289

loop_
_atom_site_label
_atom_site_type_symbol
_atom_type_description
_atom_site_fract_x
_atom_site_fract_y
_atom_site_fract_z
_atom_type_partial_charge
C1    C     C_R   0.234474 0.647584 0.608936 0.550768
C2    C     C_R   0.587141 0.124692 0.704711 -0.030226
C3    C     C_R   0.578224 0.129084 0.777646 0.215044
C4    C     C_R   0.629887 0.589802 0.608691 0.559723
C5    C     C_3   0.930833 0.085124 0.786646 -0.166873
C6    C     C_3   0.930228 0.086786 0.706333 0.245801
C7    C     C_R   0.678600 0.155789 0.669400 -0.037179
C8    C     C_R   0.165160 0.677497 0.831854 0.051837
C9    C     C_R   0.128279 0.594415 0.790784 -0.106619
C10   C     C_R   0.134829 0.590984 0.717404 0.075659
C11   C     C_R   0.193480 0.773608 0.722106 -0.178418
C12   C     C_3   0.771565 0.503117 0.797365 -0.223513
C13   C     C_R   0.196010 0.770073 0.795877 0.375172
C14   C     C_3   0.177000 0.443045 0.795988 -0.183054
C15   C     C_3   0.173369 0.440318 0.715373 0.138134
C16   C     C_R   0.630747 0.224607 0.601166 0.562684
C17   C     C_R   0.178600 0.673475 0.681425 -0.022999
C18   C     C_R   0.671321 0.684668 0.174244 -0.055482
C19   C     C_R   0.768218 0.564913 0.208952 0.036280
C20   C     C_R   0.772644 0.554094 0.281063 -0.003887
C21   C     C_R   0.585949 0.792337 0.291233 0.397059
C22   C     C_R   0.585861 0.803653 0.216489 -0.116271
C23   C     C_3   0.691650 0.661495 0.815932 -0.005287
C24   C     C_3   0.810780 0.415800 0.195495 -0.107510
C25   C     C_3   0.818062 0.401098 0.275501 0.160480
C26   C     C_R   0.671852 0.661686 0.323416 0.033193
C27   C     C_R   0.667701 0.133181 0.180768 -0.025888
C28   C     C_R   0.219201 0.650544 0.402656 0.577994
C29   C     C_R   0.552088 0.145023 0.215963 -0.076825
C30   C     C_R   0.543717 0.155088 0.288439 0.040080
C31   C     C_R   0.782612 0.110337 0.295392 0.209072
C32   C     C_R   0.787304 0.107864 0.221257 0.381025
C33   C     C_3   0.401097 0.247716 0.204749 0.182927
C34   C     C_3   0.651992 0.620261 0.682882 0.024960
C35   C     C_3   0.390032 0.260969 0.284794 0.211627
C36   C     C_R   0.653000 0.152655 0.328778 -0.069323
C37   C     C_R   0.111002 0.691978 0.189418 0.044912
C38   C     C_R   0.128574 0.793185 0.224649 0.005809
C39   C     C_R   0.148996 0.786548 0.295826 0.065807
C40   C     C_R   0.644804 0.624261 0.393569 0.607648
C41   C     C_R   0.106055 0.591780 0.303021 -0.139651
C42   C     C_R   0.088946 0.596212 0.229131 0.384212
C43   C     C_3   0.234682 0.836185 0.209045 -0.178956
C44   C     C_3   0.265499 0.819466 0.287057 0.287803
C45   C     C_3   0.727938 0.709064 0.686978 0.442545
C46   C     C_R   0.147032 0.681199 0.335649 -0.043843
C47   C     C_R   0.702519 0.096127 0.894118 0.543266
C48   C     C_R   0.720713 0.684887 0.889930 0.584425
C49   C     C_R   0.116031 0.707560 0.905105 0.574802
C50   C     C_R   0.678479 0.101575 0.105686 0.560218
C51   C     C_R   0.699136 0.693731 0.099481 0.558093
C52   C     C_R   0.617834 0.225687 0.396366 0.540678
C53   C     C_R   0.084068 0.714107 0.114782 0.570291
C54   C     C_3   0.534208 0.717951 0.802670 0.253866
C55   C     C_3   0.510927 0.693896 0.723914 -0.237193
C56   C     C_3   0.741559 0.479761 0.720890 -0.241208
C57   C     C_3   0.742935 0.739033 0.766296 -0.205203
C58   C     C_R   0.680463 0.143231 0.819734 -0.002282
C59   C     C_R   0.776461 0.168404 0.783520 -0.118911
C60   C     C_R   0.775316 0.174778 0.709303 0.018592
Cr1   Cr    Cr6+3 0.392960 0.397920 0.502240 1.034783
Cr2   Cr    Cr6+3 0.398340 0.708480 0.501250 1.104292
Cr3   Cr    Cr6+3 0.708670 0.393570 0.496460 1.054372
Cr4   Cr    Cr6+3 0.937650 0.938540 0.007610 1.094691
Cr5   Cr    Cr6+3 0.625330 0.937370 0.994520 1.054442
Cr6   Cr    Cr6+3 0.937940 0.625230 0.001190 1.058121
F1    F     F_    0.993529 0.158146 0.679158 -0.643882
F2    F     F_    0.486513 0.649792 0.846541 -0.610718
F3    F     F_    0.221545 0.863157 0.831567 -0.601823
F4    F     F_    0.495272 0.904118 0.330803 -0.604120
F5    F     F_    0.907794 0.084647 0.189635 -0.603877
F6    F     F_    0.062170 0.501249 0.196762 -0.599717
F7    F     F_    0.393183 0.701671 0.299599 -0.645316
H1    H     H_    0.474144 0.831869 0.814967 0.214748
H2    H     H_    0.283248 0.389648 0.819204 0.165198
H3    H     H_    0.088995 0.421779 0.693974 0.170466
H4    H     H_    0.518121 0.903481 0.192021 0.150491
H5    H     H_    0.914077 0.357979 0.168505 0.241896
H6    H     H_    0.725421 0.402727 0.171135 0.102622
H7    H     H_    0.741594 0.373269 0.297755 0.150325
H8    H     H_    0.462540 0.626044 0.720834 0.160726
H9    H     H_    0.340479 0.201993 0.179600 0.187392
H10   H     H_    0.363680 0.366132 0.305629 0.160053
H11   H     H_    0.100945 0.510936 0.333022 0.165886
H12   H     H_    0.842236 0.413021 0.693070 0.238541
H13   H     H_    0.186178 0.946581 0.191479 0.188470
H14   H     H_    0.437070 0.794910 0.699292 0.112595
H15   H     H_    0.322401 0.759373 0.175234 0.157176
H16   H     H_    0.248024 0.916086 0.315186 0.216740
H17   H     H_    0.682658 0.852608 0.777634 0.138166
H18   H     H_    0.885919 0.459832 0.803067 0.136446
H19   H     H_    0.740816 0.444154 0.834036 0.187096
H20   H     H_    0.679671 0.425681 0.721428 0.135487
H21   H     H_    0.857861 0.650803 0.606186 0.375891
H22   H     H_    0.424010 0.175990 0.841187 0.349047
H23   H     H_    0.853429 0.707334 0.778640 0.139895
H24   H     H_    0.291988 0.298646 0.649019 0.342742
H25   H     H_    0.951514 0.307184 0.350660 0.359537
H26   H     H_    0.893001 0.056870 0.381642 0.323172
H27   H     H_    0.377421 0.357527 0.121263 0.340030
H28   H     H_    0.290888 0.235645 0.362482 0.347335
H29   H     H_    0.559683 0.889892 0.670627 0.309538
H30   H     H_    0.510502 0.110252 0.675281 0.190741
H31   H     H_    0.961610 0.982060 0.809509 0.141490
H32   H     H_    0.978008 0.144124 0.811730 0.199763
H33   H     H_    0.962362 0.985178 0.679557 0.123509
H34   H     H_    0.214345 0.849564 0.697273 0.185464
H35   H     H_    0.100180 0.420847 0.822062 0.120452
O1    O     O_R   0.507380 0.255700 0.581440 -0.504428
O2    O     O_R   0.837170 0.593410 0.915250 -0.535758
O3    O     O_R   0.065200 0.635530 0.931570 -0.531412
O4    O     O_R   0.280320 0.527350 0.578930 -0.468056
O5    O     O_R   0.068260 0.828890 0.091840 -0.496624
O6    O     O_R   0.798870 0.057410 0.079340 -0.439011
O7    O     O_R   0.584930 0.080350 0.076780 -0.542282
O8    O     O_R   0.626960 0.809650 0.067060 -0.505355
O9    O     O_R   0.816040 0.596610 0.076510 -0.480923
O10   O     O_R   0.045610 0.638500 0.081060 -0.448899
O11   O     O_3   0.833640 0.833710 0.001100 -0.298272
O12   O     O_R   0.524480 0.695810 0.424040 -0.392240
O13   O     O_R   0.260510 0.739590 0.584590 -0.542922
O14   O     O_R   0.532300 0.695080 0.573820 -0.484937
O15   O     O_R   0.744840 0.503500 0.576370 -0.495995
O16   O     O_R   0.699120 0.276560 0.571960 -0.492495
O17   O     O_R   0.498940 0.256500 0.419860 -0.520551
O18   O     O_R   0.272500 0.528080 0.429150 -0.527512
O19   O     O_R   0.252060 0.740380 0.423010 -0.472035
O20   O     O_3   0.863336 0.632349 0.657916 -0.707872
O21   O     O_3   0.475903 0.104317 0.804484 -0.695864
O22   O     O_3   0.305483 0.355069 0.686423 -0.671194
O23   O     O_R   0.736390 0.504290 0.414790 -0.559346
O24   O     O_3   0.956450 0.317390 0.298695 -0.589855
O25   O     O_3   0.902183 0.082434 0.332452 -0.654487
O26   O     O_3   0.381885 0.370923 0.173172 -0.710509
O27   O     O_3   0.306910 0.207961 0.311661 -0.622618
O28   O     O_3   0.653839 0.835399 0.649376 -0.689409
O29   O     O_R   0.691300 0.277290 0.422170 -0.503459
O30   O     O_3   0.499990 0.499990 0.499980 -0.293925
O31   O     O_R   0.089400 0.825690 0.930570 -0.446240
O32   O     O_R   0.818460 0.054440 0.929850 -0.509596
O33   O     O_R   0.606060 0.077150 0.915510 -0.503934
O34   O     O_R   0.646550 0.806680 0.917570 -0.478238

loop_
_geom_bond_atom_site_label_1
_geom_bond_atom_site_label_2
_ccdc_geom_bond_type
C48   O2    A    
C21   C26   A    
C34   C56   S    
C8    C13   A    
C27   C29   A    
C25   H7    S    
Cr5   O7    S    
C41   C42   A    
C12   H18   S    
C2    C7    A    
C31   O25   S    
Cr1   O1    S    
Cr3   O16   S    
C5    H32   S    
Cr5   O8    S    
C12   C23   S    
C45   C57   S    
C29   C30   A    
Cr4   O11   S    
C13   F3    S    
C30   C35   S    
C43   H15   S    
H24   O22   S    
C18   C19   A    
C10   C15   S    
C31   C36   A    
C1    O4    A    
C5    C6    S    
Cr1   O30   S    
C54   F2    S    
C20   C25   S    
C10   C17   A    
C29   C33   S    
H26   O25   S    
C50   O7    A    
C37   C42   A    
C33   C35   S    
C54   H1    S    
C33   O26   S    
C19   C20   A    
C28   O18   A    
C8    C9    A    
C57   H23   S    
C47   O32   A    
C16   O1    A    
C41   C46   A    
Cr1   O18   S    
C23   C48   S    
Cr3   O23   S    
Cr6   O3    S    
C55   H8    S    
C33   H9    S    
Cr2   O12   S    
C36   C52   S    
C27   C50   S    
C49   O3    A    
C37   C53   S    
C14   H35   S    
C15   H3    S    
C5    H31   S    
C59   C60   A    
C3    O21   S    
C21   C22   A    
Cr3   O29   S    
C9    C10   A    
H27   O26   S    
C53   O5    A    
C18   C51   S    
C32   F5    S    
C1    O13   A    
H28   O27   S    
Cr5   O11   S    
C56   H20   S    
C4    C34   S    
C25   O24   S    
Cr4   O6    S    
C57   H17   S    
C5    C59   S    
C4    O14   A    
C6    C60   S    
C38   C39   A    
C24   C25   S    
C35   O27   S    
C35   H10   S    
C53   O10   A    
C58   C59   A    
C41   H11   S    
Cr6   O9    S    
Cr2   O30   S    
C4    O15   A    
C50   O6    A    
C9    C14   S    
C37   C38   A    
Cr5   O33   S    
C24   H6    S    
C31   C32   A    
C28   C46   S    
C42   F6    S    
C52   O29   A    
C6    H33   S    
C48   O34   A    
C34   C45   S    
Cr6   O2    S    
C12   C56   S    
C39   C46   A    
C24   H5    S    
C7    C16   S    
C40   O12   A    
C40   O23   A    
Cr6   O11   S    
C49   O31   A    
C43   C44   S    
C11   H34   S    
Cr3   O30   S    
C7    C60   A    
Cr2   O14   S    
C23   C54   S    
Cr4   O32   S    
C23   C57   S    
C54   C55   S    
C11   C17   A    
C45   O28   S    
Cr4   O5    S    
C27   C32   A    
C18   C22   A    
C43   H13   S    
C12   H19   S    
C22   H4    S    
Cr3   O15   S    
C52   O17   A    
C28   O19   A    
C39   C44   S    
H21   O20   S    
C47   O33   A    
C1    C17   S    
C51   O8    A    
C30   C36   A    
C21   F4    S    
C14   H2    S    
C2    C3    A    
C16   O16   A    
C38   C43   S    
C6    F1    S    
C47   C58   S    
Cr5   O34   S    
C11   C13   A    
C26   C40   S    
C56   H12   S    
Cr2   O19   S    
C15   O22   S    
C20   C26   A    
C2    H30   S    
C51   O9    A    
C19   C24   S    
C55   H14   S    
C44   F7    S    
H29   O28   S    
C3    C58   A    
C34   C55   S    
Cr6   O10   S    
H25   O24   S    
H22   O21   S    
C14   C15   S    
Cr1   O17   S    
C45   O20   S    
Cr1   O4    S    
C8    C49   S    
Cr2   O13   S    
C44   H16   S    
Cr4   O31   S    
