data_mof_unit_49841.cif
_audit_creation_date              2012-10-26T20:19:33-0400
_audit_creation_method            fapswitch 2.2
_symmetry_space_group_name_H-M    P1
_symmetry_Int_Tables_number       1
_space_group_crystal_system       triclinic
_cell_length_a                    10.746483
_cell_length_b                    10.86068
_cell_length_c                    9.578221
_cell_angle_alpha                 90.235799
_cell_angle_beta                  89.74232
_cell_angle_gamma                 92.836116
_cell_volume                      1116.52451481

loop_
_atom_site_label
_atom_site_type_symbol
_atom_type_description
_atom_site_fract_x
_atom_site_fract_y
_atom_site_fract_z
_atom_type_partial_charge
C1    C     C_R   0.509749 0.263079 0.500476 0.565531
C2    C     C_R   0.530407 0.064828 0.631524 0.030759
C3    C     C_R   0.520427 0.129211 0.503511 -0.001572
C4    C     C_R   0.259922 0.499153 0.500080 0.597310
C5    C     C_R   0.503466 0.063294 0.378631 -0.147327
C6    C     C_R   0.492606 0.936018 0.379780 -0.156286
C7    C     C_R   0.487093 0.872066 0.506520 -0.005896
C8    C     C_R   0.662222 0.667810 0.143863 -0.039700
C9    C     C_R   0.740348 0.751022 0.071466 -0.119880
C10   C     C_R   0.741449 0.750013 0.927654 -0.175162
C11   C     C_R   0.663587 0.666577 0.855476 -0.096557
C12   C     C_3   0.878355 0.500499 0.498754 0.023082
C13   C     C_R   0.580139 0.582195 0.925013 0.146400
C14   C     C_R   0.579801 0.582449 0.074671 0.142455
C15   C     C_R   0.424005 0.421491 0.073992 -0.011973
C16   C     C_R   0.492670 0.737474 0.501391 0.530026
C17   C     C_R   0.423971 0.421592 0.925933 -0.012400
C18   C     C_R   0.740193 0.500695 0.499594 0.544380
C19   C     C_3   0.065103 0.383553 0.576647 0.223286
C20   C     C_3   0.921217 0.382299 0.571194 -0.239802
C21   C     C_3   0.077962 0.616303 0.574163 -0.294787
C22   C     C_3   0.072419 0.497517 0.347460 -0.161086
C23   C     C_3   0.934238 0.614678 0.578726 -0.239603
C24   C     C_3   0.121936 0.498849 0.499686 0.015780
C25   C     C_3   0.930383 0.503224 0.346688 0.236461
C26   C     C_R   0.575063 0.121309 0.756638 -0.093143
C27   C     C_R   0.557401 0.062756 0.884827 -0.128090
C28   C     C_R   0.495096 0.947869 0.890485 -0.122031
C29   C     C_R   0.462215 0.886268 0.767105 -0.091342
C30   C     C_R   0.492479 0.938908 0.635039 0.029944
Cu1   Cu    Cu3+1 0.499990 0.499990 0.640660 0.916170
Cu2   Cu    Cu3+1 0.500010 0.500010 0.359340 0.944641
F1    F     F_    0.899222 0.610262 0.279994 -0.674114
F2    F     F_    0.106609 0.276521 0.516617 -0.646655
H1    H     H_    0.095226 0.385780 0.687716 0.140085
H2    H     H_    0.361748 0.357208 0.129395 0.125184
H3    H     H_    0.671947 0.673482 0.253819 0.220828
H4    H     H_    0.801787 0.815630 0.127721 0.159220
H5    H     H_    0.803393 0.814075 0.871259 0.125803
H6    H     H_    0.672879 0.672861 0.745459 0.187610
H7    H     H_    0.361725 0.357345 0.870488 0.131537
H8    H     H_    0.884119 0.299297 0.513493 0.148982
H9    H     H_    0.883245 0.376058 0.679398 0.105219
H10   H     H_    0.114658 0.621897 0.682612 0.124124
H11   H     H_    0.902491 0.612155 0.689468 0.118378
H12   H     H_    0.114764 0.700013 0.517967 0.144510
H13   H     H_    0.114765 0.577341 0.288439 0.169287
H14   H     H_    0.099421 0.412311 0.292378 0.137708
H15   H     H_    0.889970 0.423247 0.286161 0.138090
H16   H     H_    0.901555 0.701035 0.532263 0.171744
H17   H     H_    0.498702 0.110024 0.279213 0.134377
H18   H     H_    0.626356 0.209414 0.757043 0.141975
H19   H     H_    0.588926 0.108128 0.980066 0.110354
H20   H     H_    0.474732 0.905011 0.990422 0.112365
H21   H     H_    0.409501 0.799711 0.778123 0.149687
H22   H     H_    0.486644 0.887765 0.280620 0.131966
N1    N     N_R   0.501200 0.501210 0.147910 -0.251979
N2    N     N_R   0.501250 0.501290 0.852040 -0.251969
O1    O     O_R   0.499990 0.319640 0.618810 -0.502820
O2    O     O_R   0.500000 0.319660 0.381240 -0.501634
O3    O     O_R   0.317680 0.499970 0.618790 -0.504538
O4    O     O_R   0.317700 0.499990 0.381210 -0.502962
O5    O     O_R   0.500000 0.680340 0.618760 -0.538838
O6    O     O_R   0.500010 0.680360 0.381190 -0.534185
O7    O     O_R   0.682300 0.500010 0.618790 -0.540716
O8    O     O_R   0.682320 0.500030 0.381210 -0.488207

loop_
_geom_bond_atom_site_label_1
_geom_bond_atom_site_label_2
_ccdc_geom_bond_type
C8    C9    A    
C22   H14   S    
C27   H19   S    
C6    C7    A    
C23   H11   S    
C16   O5    A    
C26   H18   S    
C18   O8    A    
C21   H10   S    
C11   C13   A    
C9    C10   A    
Cu1   O3    S    
C20   H8    S    
C19   C20   S    
C17   N2    A    
C2    C30   A    
C4    O4    A    
C12   C20   S    
C21   C23   S    
C19   C24   S    
Cu2   O4    S    
C2    C26   A    
C7    C30   A    
C19   H1    S    
C13   C14   A    
C18   O7    A    
C15   N1    A    
C12   C23   S    
C26   C27   A    
C29   C30   A    
Cu2   N1    S    
C8    C14   A    
Cu1   N2    S    
C28   C29   A    
C2    C3    A    
C22   C24   S    
C1    O1    A    
C5    C6    A    
C4    C24   S    
C25   H15   S    
C21   C24   S    
C17   H7    S    
C25   F1    S    
C10   C11   A    
Cu2   O2    S    
C12   C25   S    
Cu1   O1    S    
C11   H6    S    
C9    H4    S    
Cu1   O5    S    
C15   H2    S    
C20   H9    S    
Cu2   O6    S    
Cu2   O8    S    
C21   H12   S    
C8    H3    S    
C1    O2    A    
C12   C18   S    
C27   C28   A    
C15   C17   A    
C14   N1    A    
Cu1   O7    S    
C7    C16   S    
C23   H16   S    
C28   H20   S    
C13   N2    A    
C16   O6    A    
C3    C5    A    
C29   H21   S    
C4    O3    A    
C22   C25   S    
C22   H13   S    
C5    H17   S    
Cu1   Cu2   S    
C6    H22   S    
C10   H5    S    
C1    C3    S    
C19   F2    S    
