data_mof_unit_63232.cif
_audit_creation_date              2012-12-10T19:27:19-0500
_audit_creation_method            fapswitch 2.2
_symmetry_space_group_name_H-M    P1
_symmetry_Int_Tables_number       1
_space_group_crystal_system       triclinic
_cell_length_a                    13.896812
_cell_length_b                    16.438671
_cell_length_c                    17.760989
_cell_angle_alpha                 90.857703
_cell_angle_beta                  90.251054
_cell_angle_gamma                 84.752832
_cell_volume                      4039.93728346

loop_
_atom_site_label
_atom_site_type_symbol
_atom_type_description
_atom_site_fract_x
_atom_site_fract_y
_atom_site_fract_z
_atom_type_partial_charge
C1    C     C_R   0.501095 0.500680 0.644863 0.853672
C2    C     C_R   0.501320 0.499105 0.355218 0.855126
C3    C     C_R   0.469202 0.566065 0.154516 -0.198362
C4    C     C_R   0.476185 0.434333 0.845091 -0.198880
C5    C     C_R   0.497512 0.494294 0.114358 0.004287
C6    C     C_R   0.497616 0.503565 0.885955 0.001532
C7    C     C_1   0.495619 0.497428 0.033846 -0.040471
C8    C     C_1   0.495682 0.499980 0.966425 -0.039309
C9    C     C_R   0.441425 0.175203 0.448411 0.376367
C10   C     C_R   0.566454 0.824090 0.545418 0.380639
C11   C     C_R   0.440772 0.261275 0.451740 0.022371
C12   C     C_R   0.562064 0.738495 0.546020 0.022434
C13   C     C_R   0.559704 0.252775 0.547394 0.063781
C14   C     C_R   0.438906 0.747332 0.453681 0.060485
C15   C     C_R   0.560881 0.166914 0.547604 -0.341684
C16   C     C_R   0.438684 0.833108 0.452694 -0.341644
C17   C     C_R   0.501104 0.126844 0.498141 0.027196
C18   C     C_R   0.502393 0.872853 0.499065 0.026289
C19   C     C_1   0.501447 0.037151 0.498550 0.014427
C20   C     C_1   0.501745 0.962579 0.498791 0.012155
C21   C     C_R   0.683397 0.486878 0.500044 0.829478
C22   C     C_R   0.316595 0.513155 0.499987 0.816071
C23   C     C_1   0.213503 0.521336 0.500118 -0.164638
C24   C     C_1   0.786466 0.478895 0.500058 -0.164241
C25   C     C_2   0.023145 0.534140 0.500459 -0.159007
C26   C     C_2   0.976787 0.466611 0.499982 -0.151272
C27   C     C_1   0.873243 0.472734 0.500042 0.012658
C28   C     C_1   0.126712 0.527821 0.500271 0.011169
C29   C     C_R   0.529679 0.421825 0.152681 0.335692
C30   C     C_R   0.522406 0.574088 0.848375 0.340228
C31   C     C_R   0.533019 0.423402 0.232338 0.386619
C32   C     C_R   0.524964 0.573337 0.768692 0.396262
C33   C     C_R   0.502436 0.496431 0.272195 -0.142308
C34   C     C_R   0.501790 0.502850 0.728031 -0.147275
C35   C     C_R   0.471532 0.567203 0.232662 -0.285168
C36   C     C_R   0.478246 0.433875 0.766966 -0.281892
Cu1   Cu    Cu3+1 0.500000 0.419580 0.500020 0.966265
Cu2   Cu    Cu3+1 0.500000 0.580420 0.499980 0.964890
H1    H     H_    0.016320 0.406428 0.499475 0.161365
H2    H     H_    0.983652 0.594348 0.500960 0.155586
H3    H     H_    0.448074 0.623561 0.262323 0.176307
H4    H     H_    0.460458 0.379403 0.736880 0.186021
H5    H     H_    0.445067 0.621630 0.125162 0.165543
H6    H     H_    0.457665 0.380223 0.873870 0.166251
H7    H     H_    0.393008 0.298228 0.415000 0.136880
H8    H     H_    0.609470 0.701648 0.583111 0.165592
H9    H     H_    0.606641 0.282613 0.585551 0.137816
H10   H     H_    0.389758 0.717675 0.417265 0.133502
H11   H     H_    0.608363 0.132043 0.586229 0.166486
H12   H     H_    0.388929 0.868162 0.415832 0.164764
N1    N     N_R   0.500030 0.298780 0.500030 -0.191156
N2    N     N_R   0.499970 0.701220 0.499970 -0.195361
O1    O     O_R   0.500010 0.432070 0.608760 -0.603096
O2    O     O_R   0.499990 0.567930 0.391240 -0.601268
O3    O     O_R   0.500000 0.567880 0.608730 -0.521360
O4    O     O_R   0.500000 0.432120 0.391270 -0.531079
O5    O     O_R   0.637850 0.422490 0.500000 -0.570886
O6    O     O_R   0.362150 0.577510 0.500000 -0.578518
O7    O     O_R   0.637840 0.558310 0.499970 -0.587441
O8    O     O_R   0.362160 0.441690 0.500030 -0.582261
O9    O     O_3   0.558689 0.349276 0.115142 -0.761889
H13   H     H_    0.549405 0.355123 0.060225 0.336034
O10   O     O_3   0.544753 0.644010 0.886674 -0.748402
H14   H     H_    0.538462 0.637649 0.941625 0.337143
O11   O     O_3   0.567419 0.355322 0.272679 -0.731327
H15   H     H_    0.587592 0.309166 0.238179 0.368190
O12   O     O_3   0.551077 0.639844 0.729164 -0.724270
H16   H     H_    0.565851 0.684453 0.764126 0.376085
O13   O     O_3   0.379854 0.139497 0.399153 -0.613790
C37   C     C_3   0.429362 0.116763 0.331425 0.046387
H17   H     H_    0.401882 0.059235 0.310353 0.171608
H18   H     H_    0.509116 0.103148 0.338793 0.128642
C38   C     C_3   0.408054 0.182705 0.272028 -0.366565
H19   H     H_    0.328682 0.193488 0.263345 0.232340
H20   H     H_    0.435220 0.240740 0.291777 0.236059
C39   C     C_3   0.456208 0.157733 0.197120 -0.857377
H21   H     H_    0.535875 0.148248 0.204304 0.260037
H22   H     H_    0.439411 0.206816 0.155523 0.278689
H23   H     H_    0.429001 0.100533 0.175023 0.249279
O14   O     O_3   0.629452 0.859431 0.593744 -0.605446
C40   C     C_3   0.715043 0.873043 0.554723 0.050064
H24   H     H_    0.744848 0.926836 0.581627 0.177290
H25   H     H_    0.702456 0.888770 0.494291 0.122923
C41   C     C_3   0.790160 0.799105 0.561398 -0.363779
H26   H     H_    0.801030 0.783572 0.621718 0.241354
H27   H     H_    0.763961 0.745600 0.531377 0.206030
C42   C     C_3   0.886760 0.816422 0.527483 -0.893091
H28   H     H_    0.877748 0.831021 0.466851 0.255473
H29   H     H_    0.939232 0.761649 0.532817 0.255072
H30   H     H_    0.916189 0.868484 0.557583 0.259604

loop_
_geom_bond_atom_site_label_1
_geom_bond_atom_site_label_2
_ccdc_geom_bond_type
C42   H28   S    
C4    C36   A    
C38   H19   S    
C36   H4    S    
C19   C20   T    
C41   C42   S    
C40   H24   S    
C7    C8    T    
C25   C28   S    
C3    H5    S    
C26   C27   S    
C39   H22   S    
C9    O13   S    
C21   O7    A    
C25   H2    S    
C22   O8    A    
Cu1   N1    S    
C26   H1    S    
Cu2   N2    S    
C31   O11   S    
C1    O1    A    
C17   C19   S    
Cu2   O6    S    
Cu1   O4    S    
C14   N2    A    
Cu2   O3    S    
C24   C27   T    
C37   H17   S    
C18   C20   S    
Cu1   O1    S    
C13   N1    A    
C30   O10   S    
C38   H20   S    
O9    H13   S    
C40   H25   S    
C1    C34   S    
C5    C29   A    
C29   O9    S    
O12   H16   S    
C41   H26   S    
C12   H8    S    
C2    O2    A    
C5    C7    S    
C10   O14   S    
C6    C8    S    
C4    H6    S    
C25   C26   D    
Cu2   O7    S    
C32   C34   A    
C21   O5    A    
Cu1   Cu2   S    
Cu2   O2    S    
C3    C35   A    
C37   C38   S    
C31   C33   A    
C23   C28   T    
C39   H21   S    
C9    C11   A    
C10   C12   A    
C32   O12   S    
C2    C33   S    
C4    C6    A    
C6    C30   A    
C13   C15   A    
C38   C39   S    
C14   C16   A    
C11   H7    S    
C21   C24   S    
C40   C41   S    
C13   H9    S    
C9    C17   A    
C15   C17   A    
C16   H12   S    
O14   C40   S    
C3    C5    A    
C22   O6    A    
C14   H10   S    
C12   N2    A    
C42   H29   S    
C1    O3    A    
C29   C31   A    
C2    O4    A    
C30   C32   A    
C10   C18   A    
C33   C35   A    
C34   C36   A    
C15   H11   S    
O13   C37   S    
C35   H3    S    
Cu1   O8    S    
C11   N1    A    
O10   H14   S    
C39   H23   S    
C16   C18   A    
O11   H15   S    
C42   H30   S    
C22   C23   S    
C41   H27   S    
C37   H18   S    
Cu1   O5    S    
