data_mof_unit_22297.cif
_audit_creation_date              2012-12-11T19:41:49-0500
_audit_creation_method            fapswitch 2.2
_symmetry_space_group_name_H-M    P1
_symmetry_Int_Tables_number       1
_space_group_crystal_system       triclinic
_cell_length_a                    8.209605
_cell_length_b                    15.135327
_cell_length_c                    27.03518
_cell_angle_alpha                 98.16755
_cell_angle_beta                  92.543101
_cell_angle_gamma                 81.434884
_cell_volume                      3287.17466966

loop_
_atom_site_label
_atom_site_type_symbol
_atom_type_description
_atom_site_fract_x
_atom_site_fract_y
_atom_site_fract_z
_atom_type_partial_charge
Ba1   Ba    Ba6+2 0.860050 0.456430 0.522530 1.675618
Ba2   Ba    Ba6+2 0.329780 0.543490 0.477460 1.677465
Br1   Br    Br    0.673082 0.036606 0.635283 -0.661429
Br2   Br    Br    0.089888 0.707331 0.288681 -0.472455
Br3   Br    Br    0.798688 0.782356 0.135507 -0.462911
Br4   Br    Br    0.111737 0.018149 0.572352 -0.584374
Br5   Br    Br    0.142911 0.171536 0.739607 -0.506060
C1    C     C_3   0.780141 0.135921 0.666973 0.077661
C2    C     C_R   0.903715 0.588830 0.180905 0.672132
C3    C     C_2   0.751019 0.557957 0.273996 -0.083561
C4    C     C_3   0.219999 0.248893 0.653844 0.443653
C5    C     C_3   0.732755 0.589264 0.329056 -0.038972
C6    C     C_1   0.983021 0.484123 0.342811 0.042494
C7    C     C_2   0.022210 0.478000 0.294739 -0.039987
C8    C     C_2   0.898379 0.514851 0.256850 0.223943
C9    C     C_R   0.013724 0.506599 0.102231 -0.118773
C10   C     C_R   0.048768 0.428460 0.126100 -0.021648
C11   C     C_R   0.121815 0.347964 0.098621 -0.045033
C12   C     C_3   0.724085 0.219564 0.642036 0.314681
C13   C     C_R   0.939831 0.588012 0.129855 -0.080643
C14   C     C_2   0.845015 0.531905 0.361199 -0.287361
C15   C     C_2   0.350041 0.475361 0.639873 -0.261016
C16   C     C_3   0.299293 0.187917 0.691227 0.129685
C17   C     C_R   0.153962 0.415777 0.970917 0.017916
C18   C     C_R   0.064446 0.579511 0.976174 0.033173
C19   C     C_R   0.127797 0.495942 0.948032 0.056895
C20   C     C_R   0.210546 0.333712 0.940589 -0.100119
C21   C     C_R   0.244714 0.330977 0.890382 -0.030562
C22   C     C_R   0.224277 0.409802 0.867805 -0.033399
C23   C     C_3   0.494964 0.672528 0.630449 0.291739
C24   C     C_R   0.165490 0.492470 0.896437 -0.085165
C25   C     C_R   0.144678 0.571588 0.873482 -0.037999
C26   C     C_R   0.184168 0.567084 0.822519 0.599205
C27   C     C_R   0.261052 0.407083 0.817002 0.616730
C28   C     C_3   0.217300 0.265522 0.412531 0.314444
C29   C     C_2   0.430547 0.434998 0.725240 -0.105380
C30   C     C_3   0.455335 0.410987 0.669739 -0.050085
C31   C     C_1   0.207643 0.518261 0.657376 0.024303
C32   C     C_2   0.165059 0.521754 0.704799 -0.084251
C33   C     C_2   0.284392 0.480606 0.742165 0.206497
C34   C     C_3   0.490411 0.694457 0.687061 -0.321690
C35   C     C_R   0.121849 0.419926 0.022885 0.032262
C36   C     C_R   0.052321 0.502941 0.050601 0.053547
C37   C     C_R   0.020668 0.582172 0.027109 -0.023142
C38   C     C_R   0.157671 0.343660 0.048425 -0.094649
C39   C     C_R   0.904054 0.665738 0.105228 0.327618
C40   C     C_3   0.235855 0.163691 0.397697 -0.379473
C41   C     C_R   0.048171 0.657934 0.952164 -0.090115
C42   C     C_R   0.086926 0.653846 0.902143 -0.049016
C43   C     C_R   0.943788 0.661782 0.055320 -0.104042
C44   C     C_R   0.844001 0.831724 0.465625 -0.024242
C45   C     C_3   0.971073 0.774240 0.345381 0.626327
C46   C     C_R   0.778098 0.924916 0.470455 -0.000310
C47   C     C_R   0.639428 0.110944 0.480612 -0.013390
C48   C     C_R   0.784503 0.077868 0.453707 -0.026279
C49   C     C_R   0.854541 0.987438 0.449868 -0.069084
C50   C     C_R   0.574257 0.204077 0.487304 0.037965
C51   C     C_R   0.429563 0.232293 0.514237 -0.297308
C52   C     C_3   0.973184 0.732648 0.586335 0.249419
C53   C     C_R   0.618535 0.802761 0.512915 0.015014
C54   C     C_R   0.552190 0.894386 0.518320 -0.060977
C55   C     C_R   0.628693 0.955978 0.496315 0.040760
C56   C     C_3   0.858822 0.853534 0.327564 -0.325420
C57   C     C_R   0.408354 0.924711 0.544526 0.020263
C58   C     C_R   0.327943 0.011476 0.545924 0.244383
C59   C     C_R   0.404506 0.077894 0.526663 -0.054583
C60   C     C_R   0.557959 0.048714 0.501585 0.015901
C61   C     C_R   0.339921 0.171155 0.531831 0.010556
C62   C     C_R   0.758153 0.771896 0.484781 -0.292993
C63   C     C_3   0.929377 0.833055 0.603005 -0.306579
C64   C     C_3   0.692929 0.344678 0.372213 0.294418
C65   C     C_3   0.700257 0.322628 0.315626 -0.353842
C66   C     C_3   0.480702 0.786786 0.371870 0.441222
C67   C     C_3   0.429999 0.879385 0.355506 -0.315208
C68   C     C_R   0.010081 0.431826 0.176964 0.592633
H1    H     H_    0.769259 0.207880 0.603181 0.110425
H2    H     H_    0.811011 0.365340 0.386995 0.006858
H3    H     H_    0.591423 0.400964 0.381515 0.073955
H4    H     H_    0.807425 0.270272 0.305089 0.140999
H5    H     H_    0.712840 0.383870 0.298886 0.057432
H6    H     H_    0.585240 0.297419 0.300459 0.138136
H7    H     H_    0.587865 0.229428 0.640758 -0.054218
H8    H     H_    0.748594 0.149350 0.707130 0.126438
H9    H     H_    0.372273 0.656751 0.616394 0.011885
H10   H     H_    0.589653 0.612655 0.620896 0.066004
H11   H     H_    0.393401 0.752598 0.697931 0.151443
H12   H     H_    0.319891 0.143087 0.365704 0.133459
H13   H     H_    0.462816 0.635333 0.703500 0.067658
H14   H     H_    0.611730 0.711434 0.702093 0.139796
H15   H     H_    0.914685 0.115839 0.663434 0.199627
H16   H     H_    0.402663 0.217915 0.711598 0.076528
H17   H     H_    0.895761 0.728034 0.359052 -0.078140
H18   H     H_    0.933064 0.899595 0.313160 0.146329
H19   H     H_    0.774317 0.828643 0.297290 0.147821
H20   H     H_    0.784197 0.891757 0.358804 0.034593
H21   H     H_    0.616984 0.775431 0.376072 -0.153500
H22   H     H_    0.426246 0.787018 0.408753 0.074314
H23   H     H_    0.287431 0.128409 0.429299 0.046421
H24   H     H_    0.476392 0.931722 0.383353 0.037191
H25   H     H_    0.294031 0.895290 0.352450 0.159766
H26   H     H_    0.149355 0.310819 0.674042 0.072463
H27   H     H_    0.482176 0.881214 0.318561 0.131904
H28   H     H_    0.145447 0.448627 0.282926 0.124215
H29   H     H_    0.152023 0.287094 0.115960 0.131806
H30   H     H_    0.521332 0.405144 0.750766 0.114738
H31   H     H_    0.287849 0.266046 0.869160 0.153275
H32   H     H_    0.227545 0.269417 0.954180 0.082205
H33   H     H_    0.655343 0.583196 0.248424 0.124204
H34   H     H_    0.113705 0.142846 0.386773 0.122180
H35   H     H_    0.008547 0.724628 0.971129 0.084651
H36   H     H_    0.320429 0.269518 0.634119 -0.222543
H37   H     H_    0.071635 0.716167 0.885951 0.133504
H38   H     H_    0.043654 0.554310 0.716777 0.124141
H39   H     H_    0.908670 0.723105 0.039277 0.112238
H40   H     H_    0.826888 0.545471 0.401226 0.078157
H41   H     H_    0.383428 0.476300 0.601571 0.072066
H42   H     H_    0.847525 0.121091 0.435258 0.095686
H43   H     H_    0.967744 0.966871 0.429679 0.088640
H44   H     H_    0.350118 0.879743 0.563065 0.136418
H45   H     H_    0.861134 0.704355 0.572144 0.008590
H46   H     H_    0.380569 0.303308 0.519014 0.064055
H47   H     H_    0.807021 0.700863 0.480869 0.062444
H48   H     H_    0.348565 0.120872 0.671131 0.135086
H49   H     H_    0.339937 0.285622 0.421885 -0.000294
H50   H     H_    0.216299 0.279125 0.030946 0.078361
H51   H     H_    0.137279 0.283996 0.445521 0.057706
H52   H     H_    0.064243 0.721864 0.556269 0.080766
H53   H     H_    0.828418 0.844744 0.630196 0.180234
H54   H     H_    0.889132 0.868811 0.570631 0.124184
H55   H     H_    0.038500 0.860639 0.621210 0.177534
N1    N     N_R   0.938498 0.511463 0.204082 -0.429655
N2    N     N_R   0.241977 0.485231 0.794640 -0.426887
O1    O     O_2   0.906480 0.548660 0.619050 -0.453733
O2    O     O_2   0.183593 0.823331 0.473374 -0.480782
O3    O     O_3   0.086783 0.806456 0.380732 -0.605167
O4    O     O_3   0.138490 0.548590 0.558870 -0.496694
O5    O     O_3   0.572560 0.389960 0.472890 -0.493443
O6    O     O_2   0.345660 0.723580 0.528500 -0.470010
O7    O     O_3   0.533622 0.747178 0.610377 -0.626330
O8    O     O_2   0.404998 0.546439 0.324096 -0.457151
O9    O     O_3   0.423616 0.720257 0.336292 -0.525154
O10   O     O_2   0.037903 0.363277 0.196819 -0.592324
O11   O     O_2   0.309673 0.334540 0.792550 -0.575770
O12   O     O_3   0.665805 0.267630 0.391884 -0.638071
O13   O     O_2   0.842245 0.659045 0.205086 -0.510359
O14   O     O_2   0.169282 0.636282 0.803282 -0.585299
O15   O     O_3   0.686300 0.382310 0.585700 -0.480628
O16   O     O_2   0.766008 0.469819 0.674863 -0.480098
O17   O     O_3   0.038586 0.692887 0.627689 -0.621499
O18   O     O_3   0.786431 0.294149 0.669384 -0.577393
O19   O     O_2   0.844040 0.276390 0.471470 -0.473540
O20   O     O_3   0.101510 0.335500 0.560330 -0.484434
O21   O     O_2   0.993187 0.182910 0.530112 -0.438584
O22   O     O_3   0.112500 0.202751 0.621443 -0.555393
O23   O     O_2   0.283210 0.451310 0.380920 -0.463312
O24   O     O_3   0.051220 0.451340 0.441120 -0.500290
O25   O     O_3   0.503410 0.617620 0.414290 -0.487580
O26   O     O_3   0.148432 0.306704 0.371887 -0.626893
O27   O     O_3   0.617150 0.609960 0.527100 -0.485460
O28   O     O_3   0.088210 0.664420 0.439670 -0.466622
P1    P     P_3+3 0.071950 0.575820 0.612140 0.997440
P2    P     P_3+3 0.664370 0.290050 0.457240 0.972367
P3    P     P_3+3 0.138494 0.220537 0.559818 1.034669
P4    P     P_3+3 0.117760 0.424110 0.387850 0.994001
P5    P     P_3+3 0.048589 0.782214 0.440152 0.958667
P6    P     P_3+3 0.674241 0.391923 0.650690 0.977085
P7    P     P_3+3 0.532018 0.721996 0.545145 0.943617
P8    P     P_3+3 0.515789 0.614423 0.350067 1.013867

loop_
_geom_bond_atom_site_label_1
_geom_bond_atom_site_label_2
_ccdc_geom_bond_type
O8    P8    D    
C34   H14   S    
C48   C49   A    
C52   H45   S    
Ba1   O24   S    
C1    H8    S    
C17   C35   A    
C66   C67   S    
C3    H33   S    
C17   C20   A    
C14   H40   S    
C28   C40   S    
C50   C51   A    
C66   O9    S    
C66   H22   S    
C34   H11   S    
C56   H19   S    
Ba2   O23   S    
C40   H23   S    
C55   C60   A    
O21   P3    D    
C62   H47   S    
C12   H1    S    
C68   O10   D    
C17   C19   A    
C65   H4    S    
C3    C8    D    
C31   C32   D    
C61   P3    S    
C59   C61   A    
C52   H52   S    
C15   C31   D    
C56   H20   S    
C63   H55   S    
C12   O18   S    
O16   P6    D    
O25   P8    S    
Ba1   O20   S    
Ba1   Ba2   S    
C2    N1    Am   
C2    O13   D    
Ba1   O15   S    
C4    O22   S    
O17   P1    S    
Br4   C58   S    
C50   P2    S    
C21   H31   S    
Ba2   O27   S    
C32   H38   S    
C23   C34   S    
C20   H32   S    
Ba1   O4    S    
C65   H6    S    
O26   P4    S    
C67   H27   S    
C15   H41   S    
C59   C60   A    
C33   N2    S    
C27   N2    Am   
C19   C24   A    
C6    C7    D    
C22   C24   A    
Ba1   O1    S    
C18   C37   A    
C68   N1    Am   
O4    P1    S    
C52   O17   S    
Ba2   O28   S    
C27   O11   D    
C53   P7    S    
C4    H36   S    
C1    C12   S    
O22   P3    S    
C29   C33   D    
Br1   C1    S    
Ba2   P4    S    
C32   C33   S    
C9    C10   A    
C16   H48   S    
C47   C60   A    
C18   C19   A    
C40   H34   S    
C15   C30   S    
C5    C14   S    
C63   H54   S    
Ba2   O4    S    
C53   C54   A    
C43   H39   S    
C35   C38   A    
Ba2   O6    S    
C28   H51   S    
C36   C37   A    
O15   P6    S    
C46   C55   A    
C2    C13   A    
C24   C25   A    
C18   C41   A    
Ba1   O27   S    
C9    C13   A    
O19   P2    D    
C63   H53   S    
C51   H46   S    
C10   C11   A    
O3    P5    S    
O2    P5    D    
C6    C14   D    
C4    H26   S    
C11   H29   S    
O28   P5    S    
C23   H10   S    
O7    P7    S    
C57   H44   S    
C9    C36   A    
C30   P6    S    
C3    C5    S    
C42   H37   S    
C26   N2    Am   
C51   C61   A    
C41   C42   A    
Br2   C45   S    
Ba1   P2    S    
C28   H49   S    
C16   H16   S    
C44   P5    S    
C1    H15   S    
C35   C36   A    
C12   H7    S    
C11   C38   A    
C64   H2    S    
Ba1   O5    S    
C6    P4    S    
C48   H42   S    
C46   C49   A    
C37   C43   A    
C34   H13   S    
C39   C43   A    
C47   C48   A    
C21   C22   A    
O9    P8    S    
Ba2   O24   S    
C23   O7    S    
O12   P2    S    
C29   H30   S    
Ba2   O5    S    
C49   H43   S    
C31   P1    S    
C45   C56   S    
O1    P1    D    
C5    P8    S    
C67   H25   S    
C67   H24   S    
O23   P4    D    
Br3   C39   S    
C56   H18   S    
C57   C58   A    
C28   O26   S    
C64   C65   S    
C65   H5    S    
C25   C26   A    
C54   C57   A    
C7    H28   S    
O5    P2    S    
C53   C62   A    
Ba2   O25   S    
Br5   C16   S    
C22   C27   A    
C4    C16   S    
O27   P7    S    
Ba1   O19   S    
C23   H9    S    
C54   C55   A    
C25   C42   A    
O20   P3    S    
C45   H17   S    
C26   O14   D    
C52   C63   S    
Ba1   P1    S    
C8    N1    S    
O24   P4    S    
C29   C30   S    
C58   C59   A    
C38   H50   S    
C20   C21   A    
C10   C68   A    
C45   O3    S    
C7    C8    S    
O6    P7    D    
C44   C62   A    
C66   H21   S    
C44   C46   A    
C41   H35   S    
C64   H3    S    
C13   C39   A    
C40   H12   S    
C64   O12   S    
C47   C50   A    
O18   P6    S    
