data_mof_unit_5060.cif
_audit_creation_date              2012-12-10T17:02:56-0500
_audit_creation_method            fapswitch 2.2
_symmetry_space_group_name_H-M    P1
_symmetry_Int_Tables_number       1
_space_group_crystal_system       triclinic
_cell_length_a                    9.933138
_cell_length_b                    11.136982
_cell_length_c                    13.384781
_cell_angle_alpha                 95.910617
_cell_angle_beta                  82.544359
_cell_angle_gamma                 110.445405
_cell_volume                      1373.0374618

loop_
_atom_site_label
_atom_site_type_symbol
_atom_type_description
_atom_site_fract_x
_atom_site_fract_y
_atom_site_fract_z
_atom_type_partial_charge
C1    C     C_R   0.556084 0.743891 0.504005 0.901674
C2    C     C_R   0.433687 0.515655 0.973705 -0.077389
C3    C     C_R   0.469017 0.548921 0.872998 -0.140395
C4    C     C_R   0.541777 0.557038 0.041119 -0.013634
C5    C     C_R   0.671708 0.659070 0.015787 -0.071608
C6    C     C_R   0.691725 0.715448 0.922205 -0.082178
C7    C     C_R   0.587300 0.662832 0.852581 0.478147
C8    C     C_R   0.525196 0.495584 0.131634 0.511807
C9    C     C_R   0.745794 0.656104 0.182144 -0.283898
C10   C     C_R   0.376027 0.475021 0.799590 -0.168928
C11   C     C_2   0.576535 0.879074 0.517674 -0.388462
C12   C     C_R   0.423329 0.486887 0.690360 0.917210
C13   C     C_2   0.522338 0.938076 0.458335 0.432924
C14   C     C_2   0.427198 0.117934 0.466813 0.253471
C15   C     C_2   0.527845 0.071324 0.490760 0.303047
C16   C     C_2   0.927173 0.497924 0.485893 0.466350
C17   C     C_2   0.075388 0.506567 0.512421 0.070728
C18   C     C_R   0.445948 0.255014 0.489759 0.820589
C19   C     C_R   0.576557 0.516128 0.310161 0.808312
C20   C     C_R   0.772662 0.707411 0.087967 -0.128986
C21   C     C_R   0.621448 0.551278 0.205070 -0.148234
C22   C     C_R   0.238142 0.386830 0.833234 -0.102578
C23   C     C_R   0.190624 0.388556 0.936227 -0.284933
C24   C     C_R   0.285865 0.457583 0.006141 0.593958
Cu1   Cu    Cu3+1 0.362000 0.479240 0.482530 1.005970
Cu2   Cu    Cu3+1 0.638000 0.520760 0.517470 1.056655
H1    H     H_    0.819053 0.702714 0.238733 0.159137
H2    H     H_    0.621424 0.926818 0.586597 0.161295
H3    H     H_    0.869520 0.789518 0.075154 0.177389
H4    H     H_    0.079739 0.335925 0.962928 0.188875
N1    N     N_2   0.845330 0.551960 0.543750 -0.285416
N2    N     N_2   0.154690 0.448120 0.456210 -0.050611
O1    O     O_R   0.426290 0.668220 0.490680 -0.574917
O2    O     O_R   0.659360 0.703290 0.520190 -0.573380
O3    O     O_R   0.326580 0.473880 0.629020 -0.573280
O4    O     O_R   0.559660 0.508940 0.658530 -0.521324
O5    O     O_R   0.340640 0.296710 0.479810 -0.570459
O6    O     O_R   0.573710 0.331780 0.509320 -0.534174
O7    O     O_R   0.440340 0.491060 0.341470 -0.591224
O8    O     O_R   0.673420 0.526120 0.370980 -0.574707
O9    O     O_3   0.498035 0.891034 0.359301 -0.582399
C25   C     C_3   0.355839 0.803912 0.352794 -0.171947
H5    H     H_    0.305864 0.835364 0.295617 0.180525
H6    H     H_    0.283719 0.794655 0.424809 0.203609
H7    H     H_    0.360287 0.707985 0.324715 0.168222
O10   O     O_3   0.325370 0.046465 0.402539 -0.612062
C26   C     C_3   0.185569 0.017562 0.453722 -0.312408
H8    H     H_    0.144920 0.098569 0.455168 0.196802
H9    H     H_    0.179992 0.988381 0.531740 0.206494
H10   H     H_    0.111311 0.936550 0.410678 0.213657
C27   C     C_2   0.122439 0.574032 0.609738 0.802356
O11   O     O_2   0.212908 0.681532 0.612502 -0.593458
O12   O     O_R   0.052284 0.517946 0.699450 -0.739125
H11   H     H_    0.089817 0.573655 0.761587 0.338993
O13   O     O_3   0.875897 0.430014 0.398375 -0.538427
C28   C     C_3   0.948499 0.506034 0.316588 -0.226924
H12   H     H_    0.902647 0.456723 0.246048 0.188459
H13   H     H_    0.064769 0.520594 0.307859 0.145526
H14   H     H_    0.937152 0.602505 0.326066 0.145391
O14   O     O_3   0.077039 0.333545 0.413314 -0.534735
C29   C     C_3   0.149834 0.311809 0.319693 -0.014546
H15   H     H_    0.228750 0.264919 0.327953 0.187820
H16   H     H_    0.202490 0.400362 0.278606 0.214570
H17   H     H_    0.069206 0.244739 0.271632 0.127901
C30   C     C_2   0.911497 0.680603 0.581921 0.971706
O15   O     O_2   0.007222 0.756783 0.530027 -0.705491
O16   O     O_R   0.860404 0.721650 0.676206 -0.683630
H18   H     H_    0.911761 0.816469 0.692332 0.340216
C31   C     C_2   0.819026 0.830159 0.895845 0.886190
O17   O     O_2   0.941035 0.828118 0.897516 -0.613137
O18   O     O_R   0.799451 0.939188 0.866181 -0.735674
H19   H     H_    0.894302 0.010201 0.848805 0.346689
O19   O     O_3   0.414212 0.380734 0.148977 -0.587719
C32   C     C_3   0.467528 0.279254 0.119450 -0.337506
H20   H     H_    0.554044 0.282693 0.165997 0.163452
H21   H     H_    0.507444 0.279726 0.037758 0.181124
H22   H     H_    0.377885 0.187144 0.131647 0.202407
C33   C     C_2   0.141010 0.292251 0.764604 0.919410
O20   O     O_2   0.010178 0.266454 0.780609 -0.570815
O21   O     O_R   0.198058 0.227670 0.684715 -0.771757
H23   H     H_    0.120361 0.164643 0.644670 0.320117
O22   O     O_3   0.230521 0.485292 0.102333 -0.576165
C34   C     C_3   0.217152 0.607870 0.103646 -0.381615
H24   H     H_    0.131652 0.605003 0.056377 0.187477
H25   H     H_    0.321080 0.683056 0.078877 0.169103
H26   H     H_    0.185984 0.638487 0.181540 0.158145
O23   O     O_3   0.592299 0.732409 0.771330 -0.547042
C35   C     C_3   0.488323 0.794067 0.794500 -0.227212
H27   H     H_    0.496598 0.846398 0.870357 0.165382
H28   H     H_    0.377164 0.724417 0.789587 0.153870
H29   H     H_    0.506792 0.866373 0.738932 0.200862
O24   O     O_3   0.625100 0.142556 0.559036 -0.610845
C36   C     C_3   0.768139 0.170350 0.513006 -0.133182
H30   H     H_    0.779754 0.195294 0.433163 0.197237
H31   H     H_    0.808294 0.089818 0.516345 0.131765
H32   H     H_    0.839156 0.253391 0.556192 0.225516

loop_
_geom_bond_atom_site_label_1
_geom_bond_atom_site_label_2
_ccdc_geom_bond_type
C6    C31   S    
O13   C28   S    
C36   H30   S    
O9    C25   S    
C14   C18   S    
C1    C11   S    
C4    C8    A    
Cu2   O8    S    
C17   C27   S    
C13   O9    S    
C1    O1    A    
C14   O10   S    
C5    C20   A    
O12   H11   S    
C10   C22   A    
C16   N1    D    
C32   H21   S    
C19   O7    A    
C19   C21   S    
C18   O5    A    
C3    C7    A    
C5    C6    A    
C33   O21   S    
C28   H12   S    
C29   H16   S    
O19   C32   S    
C31   O18   S    
C24   O22   S    
O24   C36   S    
Cu1   O5    S    
C15   O24   S    
Cu2   O2    S    
C7    O23   S    
C26   H8    S    
C16   C17   S    
C30   O16   S    
C32   H22   S    
C23   C24   A    
C12   O4    A    
Cu1   N2    S    
Cu2   N1    S    
C36   H31   S    
C31   O17   D    
C25   H6    S    
C1    O2    A    
C26   H10   S    
C20   H3    S    
C32   H20   S    
O16   H18   S    
C23   H4    S    
C22   C33   S    
C26   H9    S    
C33   O20   D    
Cu2   O6    S    
Cu1   Cu2   S    
C27   O11   D    
O14   C29   S    
C27   O12   S    
C25   H7    S    
C29   H17   S    
C2    C4    A    
C9    C20   A    
C34   H24   S    
C35   H29   S    
C8    C21   A    
C12   O3    A    
C10   C12   S    
Cu1   O3    S    
Cu2   O4    S    
C34   H25   S    
C35   H28   S    
O22   C34   S    
C36   H32   S    
C13   C15   S    
C2    C24   A    
C25   H5    S    
N2    O14   S    
C9    H1    S    
N1    C30   S    
O10   C26   S    
C14   C15   D    
O21   H23   S    
C6    C7    A    
C28   H14   S    
C2    C3    A    
C18   O6    A    
C16   O13   S    
O18   H19   S    
C3    C10   A    
Cu1   O7    S    
C11   C13   D    
C9    C21   A    
C11   H2    S    
C8    O19   S    
C28   H13   S    
C29   H15   S    
C19   O8    A    
C4    C5    A    
C34   H26   S    
C35   H27   S    
O23   C35   S    
C30   O15   D    
C17   N2    D    
C22   C23   A    
Cu1   O1    S    
