data_mof_unit_17054.cif
_audit_creation_date              2012-12-11T14:08:38-0500
_audit_creation_method            fapswitch 2.2
_symmetry_space_group_name_H-M    P1
_symmetry_Int_Tables_number       1
_space_group_crystal_system       triclinic
_cell_length_a                    27.978644
_cell_length_b                    7.229096
_cell_length_c                    17.136083
_cell_angle_alpha                 90.025361
_cell_angle_beta                  101.986495
_cell_angle_gamma                 90.309702
_cell_volume                      3390.32592757

loop_
_atom_site_label
_atom_site_type_symbol
_atom_type_description
_atom_site_fract_x
_atom_site_fract_y
_atom_site_fract_z
_atom_type_partial_charge
O1    O     O_R   0.000700 0.436510 0.857920 -0.532131
O2    O     O_R   0.999300 0.563490 0.142080 -0.532102
O3    O     O_R   0.999300 0.936510 0.642080 -0.532135
O4    O     O_R   0.000700 0.063490 0.357920 -0.531808
O5    O     O_R   0.930080 0.766380 0.721890 -0.540641
O6    O     O_R   0.069920 0.233620 0.278110 -0.540597
O7    O     O_R   0.069920 0.266380 0.778110 -0.541047
O8    O     O_R   0.930080 0.733620 0.221890 -0.541181
C1    C     C_R   0.910760 0.597526 0.705691 0.696087
C2    C     C_R   0.089633 0.403235 0.287214 0.694541
C3    C     C_R   0.089284 0.098632 0.794754 0.695371
C4    C     C_R   0.910254 0.901911 0.211817 0.693892
O9    O     O_R   0.996180 0.766230 0.862310 -0.542363
O10   O     O_R   0.003820 0.233770 0.137690 -0.542474
O11   O     O_R   0.003820 0.266230 0.637690 -0.541973
O12   O     O_R   0.996180 0.733770 0.362310 -0.541953
O13   O     O_R   0.065870 0.936460 0.783500 -0.537581
O14   O     O_R   0.934130 0.063540 0.216500 -0.536831
O15   O     O_R   0.934130 0.436460 0.716500 -0.538536
O16   O     O_R   0.065870 0.563540 0.283500 -0.537901
C5    C     C_R   0.998508 0.596498 0.894408 0.761129
C6    C     C_R   0.001527 0.403509 0.105600 0.758084
C7    C     C_R   0.001498 0.096464 0.605594 0.762626
C8    C     C_R   0.998466 0.903541 0.394398 0.760489
O17   O     O_3   0.022790 0.603020 0.723980 -0.377721
O18   O     O_3   0.977210 0.396980 0.276020 -0.377452
O19   O     O_3   0.977210 0.103020 0.776020 -0.378184
O20   O     O_3   0.022790 0.896980 0.223980 -0.378128
V1    V     V_3+5 0.995770 0.877900 0.754830 1.405470
V2    V     V_3+5 0.004230 0.122100 0.245170 1.408273
V3    V     V_3+5 0.004230 0.377900 0.745170 1.405852
V4    V     V_3+5 0.995770 0.622100 0.254830 1.408294
C9    C     C_2   0.001660 0.082438 0.519496 -0.331750
C10   C     C_2   0.998243 0.917573 0.480475 -0.330033
C11   C     C_2   0.998349 0.582403 0.980529 -0.331709
C12   C     C_2   0.001749 0.417614 0.019500 -0.329650
H1    H     H_    0.004452 0.210611 0.487650 0.154502
H2    H     H_    0.995439 0.789403 0.512317 0.153856
H3    H     H_    0.995570 0.710454 0.012430 0.154260
H4    H     H_    0.004541 0.289565 0.987605 0.153707
C13   C     C_R   0.674717 0.853018 0.085541 0.573652
C14   C     C_R   0.310894 0.088774 0.027885 0.594035
C15   C     C_R   0.321507 0.457798 0.413673 0.577687
C16   C     C_R   0.689583 0.579211 0.475699 0.586864
O21   O     O_2   0.700067 0.787181 0.032602 -0.525152
O22   O     O_2   0.279572 0.122423 0.076296 -0.510356
O23   O     O_2   0.294314 0.439636 0.469818 -0.522805
O24   O     O_2   0.720951 0.629350 0.429288 -0.519536
N1    N     N_R   0.699151 0.919538 0.157527 -0.547729
N2    N     N_R   0.293341 0.070080 0.947566 -0.551233
N3    N     N_R   0.299336 0.456055 0.335041 -0.551728
N4    N     N_R   0.706935 0.545560 0.554926 -0.548406
C17   C     C_R   0.674160 0.983960 0.212911 0.553434
C18   C     C_R   0.324236 0.037733 0.896988 0.550923
C19   C     C_R   0.325678 0.480184 0.276602 0.555828
C20   C     C_R   0.676411 0.490332 0.603348 0.550567
C21   C     C_R   0.779204 0.082344 0.178574 -0.086822
C22   C     C_R   0.214539 0.914610 0.894744 -0.081916
C23   C     C_R   0.218178 0.601698 0.307865 -0.090930
C24   C     C_R   0.785736 0.400279 0.612239 -0.088762
C25   C     C_R   0.830387 0.078171 0.189489 -0.195543
C26   C     C_R   0.165570 0.921082 0.854564 -0.192701
C27   C     C_R   0.167428 0.589315 0.299880 -0.190845
C28   C     C_R   0.834635 0.412807 0.651662 -0.191320
C29   C     C_R   0.828022 0.743642 0.193613 -0.186946
C30   C     C_R   0.169762 0.255703 0.853321 -0.190072
C31   C     C_R   0.172932 0.255207 0.305782 -0.186441
C32   C     C_R   0.830184 0.747154 0.644584 -0.195099
C33   C     C_R   0.777044 0.748220 0.182842 -0.076953
C34   C     C_R   0.218802 0.248700 0.893548 -0.099797
C35   C     C_R   0.223771 0.268162 0.314066 -0.079940
C36   C     C_R   0.781072 0.734075 0.604993 -0.090614
C37   C     C_R   0.752105 0.917262 0.174937 0.386568
C38   C     C_R   0.241499 0.078186 0.914570 0.388787
C39   C     C_R   0.246711 0.441451 0.315239 0.398348
C40   C     C_R   0.758577 0.560436 0.588655 0.390866
C41   C     C_R   0.596730 0.926137 0.120104 -0.060439
C42   C     C_R   0.393719 0.038415 0.009389 -0.055214
C43   C     C_R   0.401043 0.492576 0.378366 -0.066718
C44   C     C_R   0.606858 0.510033 0.490808 -0.051832
C45   C     C_R   0.623494 0.854732 0.065634 -0.062319
C46   C     C_R   0.361357 0.067765 0.060406 -0.083631
C47   C     C_R   0.372067 0.481753 0.436701 -0.058252
C48   C     C_R   0.639315 0.559822 0.442200 -0.075371
C49   C     C_R   0.598607 0.774393 0.994389 -0.146665
C50   C     C_R   0.379405 0.070993 0.142768 -0.153568
C51   C     C_R   0.393378 0.511805 0.516912 -0.146933
C52   C     C_R   0.621660 0.581404 0.360454 -0.150671
C53   C     C_R   0.621840 0.980639 0.197103 -0.100120
C54   C     C_R   0.375540 0.038621 0.925588 -0.071421
C55   C     C_R   0.378023 0.495074 0.296424 -0.107290
C56   C     C_R   0.625517 0.466039 0.572576 -0.080497
C57   C     C_R   0.855608 0.908459 0.196861 -0.056357
C58   C     C_R   0.142396 0.091795 0.832915 -0.052781
C59   C     C_R   0.143993 0.415844 0.299240 -0.055258
C60   C     C_R   0.857660 0.586411 0.668632 -0.052119
H5    H     H_    0.845727 0.610087 0.199522 0.134171
H6    H     H_    0.153339 0.389823 0.838490 0.132990
H7    H     H_    0.156434 0.119226 0.305077 0.132019
H8    H     H_    0.846621 0.883091 0.655803 0.131923
H9    H     H_    0.756749 0.619487 0.179817 0.121659
H10   H     H_    0.239421 0.376011 0.907232 0.117674
H11   H     H_    0.245496 0.143420 0.321265 0.113364
H12   H     H_    0.760312 0.858981 0.588088 0.118032
H13   H     H_    0.618617 0.701911 0.956073 0.173572
H14   H     H_    0.353595 0.096350 0.180401 0.186405
H15   H     H_    0.370749 0.525890 0.560805 0.174316
H16   H     H_    0.647702 0.616063 0.324208 0.181930
C61   C     C_R   0.473862 0.950218 0.988925 0.000058
C62   C     C_R   0.516638 0.006611 0.151246 -0.029278
C63   C     C_R   0.524129 0.476557 0.510628 -0.002008
C64   C     C_R   0.483421 0.526170 0.346873 -0.024562
C65   C     C_R   0.463801 0.019515 0.125761 -0.036183
C66   C     C_R   0.521538 0.885860 0.019309 0.010515
C67   C     C_R   0.536525 0.531477 0.374056 -0.038582
C68   C     C_R   0.473785 0.506498 0.485554 0.013424
C69   C     C_R   0.444031 0.005685 0.041714 0.048220
C70   C     C_R   0.544833 0.939295 0.097204 0.047654
C71   C     C_R   0.555729 0.506891 0.458033 0.047677
C72   C     C_R   0.452949 0.504999 0.403209 0.057770
C73   C     C_R   0.457170 0.977376 0.906527 -0.205917
C74   C     C_R   0.542934 0.059052 0.227535 -0.188063
C75   C     C_R   0.542690 0.401321 0.586237 -0.195377
C76   C     C_R   0.458678 0.555508 0.267326 -0.191291
C77   C     C_R   0.409374 0.033255 0.874380 0.153777
C78   C     C_R   0.593590 0.031364 0.253974 0.134042
C79   C     C_R   0.592768 0.396445 0.619347 0.121325
C80   C     C_R   0.408042 0.525550 0.239452 0.138710
O25   O     O_2   0.304934 0.994123 0.820380 -0.534111
O26   O     O_2   0.699997 0.054886 0.281626 -0.530939
O27   O     O_2   0.695661 0.463740 0.681333 -0.539490
O28   O     O_2   0.300871 0.493138 0.200651 -0.522856
C81   C     C_R   0.547653 0.774669 0.974091 0.119306
C82   C     C_R   0.429268 0.043243 0.177497 0.131372
C83   C     C_R   0.443341 0.543877 0.540438 0.110383
C84   C     C_R   0.572263 0.549786 0.323923 0.124410
H17   H     H_    0.145928 0.791788 0.840654 0.133274
H18   H     H_    0.850120 0.208055 0.192189 0.134823
H19   H     H_    0.854348 0.285657 0.668569 0.134869
H20   H     H_    0.146647 0.716267 0.294327 0.136221
H21   H     H_    0.231838 0.781867 0.909394 0.117041
H22   H     H_    0.760567 0.214084 0.171795 0.123728
H23   H     H_    0.768647 0.265429 0.600801 0.114769
H24   H     H_    0.235521 0.736473 0.310276 0.114096
H25   H     H_    0.482346 0.961370 0.866928 0.135722
H26   H     H_    0.525566 0.135442 0.266497 0.139898
H27   H     H_    0.516864 0.348848 0.619710 0.149224
H28   H     H_    0.477067 0.620229 0.226628 0.142650
C85   C     C_3   0.396720 0.089130 0.786726 -0.284418
C86   C     C_3   0.432404 0.230978 0.764477 -0.850340
H29   H     H_    0.434579 0.355185 0.803270 0.243025
H30   H     H_    0.469311 0.171842 0.769230 0.225178
H31   H     H_    0.419182 0.274060 0.701530 0.230927
H32   H     H_    0.395717 0.963632 0.749156 0.190130
H33   H     H_    0.360909 0.158210 0.770823 0.236399
C87   C     C_3   0.616752 0.059442 0.342308 -0.280199
C88   C     C_3   0.582054 0.038405 0.400300 -0.794639
H34   H     H_    0.556952 0.157157 0.396198 0.231003
H35   H     H_    0.560261 0.909351 0.388008 0.237832
H36   H     H_    0.603607 0.033014 0.462478 0.230063
H37   H     H_    0.645014 0.952411 0.360924 0.226765
H38   H     H_    0.634791 0.196887 0.351292 0.213253
C89   C     C_3   0.610669 0.318653 0.703454 -0.259266
C90   C     C_3   0.572456 0.225068 0.742812 -0.850271
H39   H     H_    0.545454 0.328051 0.754485 0.229793
H40   H     H_    0.553773 0.110520 0.704898 0.235890
H41   H     H_    0.590751 0.165835 0.801123 0.240038
H42   H     H_    0.639045 0.213009 0.701012 0.213828
H43   H     H_    0.626922 0.433093 0.743792 0.224172
C91   C     C_3   0.386598 0.542190 0.149855 -0.278891
C92   C     C_3   0.422837 0.526547 0.094132 -0.805084
H44   H     H_    0.446266 0.650918 0.097689 0.232810
H45   H     H_    0.446260 0.403063 0.109027 0.236719
H46   H     H_    0.402449 0.513244 0.031426 0.231332
H47   H     H_    0.360578 0.427562 0.131061 0.233871
H48   H     H_    0.366458 0.674466 0.137989 0.208553
C93   C     C_3   0.522794 0.635647 0.911769 -0.385460
C94   C     C_3   0.535972 0.436902 0.938537 -0.737690
H49   H     H_    0.575713 0.411938 0.945140 0.229591
H50   H     H_    0.525157 0.408543 0.996250 0.235250
H51   H     H_    0.516270 0.338232 0.893438 0.224257
H52   H     H_    0.482435 0.642941 0.901591 0.196367
H53   H     H_    0.533819 0.662795 0.854128 0.178551
C95   C     C_3   0.442834 0.030309 0.268732 -0.369485
C96   C     C_3   0.401729 0.977267 0.311643 -0.742491
H54   H     H_    0.378356 0.098456 0.316567 0.218380
H55   H     H_    0.378598 0.865110 0.279749 0.235782
H56   H     H_    0.417713 0.929888 0.373152 0.227274
H57   H     H_    0.471497 0.924506 0.286233 0.196050
H58   H     H_    0.456407 0.166692 0.293324 0.191539
C97   C     C_3   0.461313 0.647781 0.618471 -0.389766
C98   C     C_3   0.439339 0.841369 0.614760 -0.743208
H59   H     H_    0.446212 0.916837 0.561638 0.235506
H60   H     H_    0.399391 0.834229 0.612109 0.235464
H61   H     H_    0.456869 0.919948 0.668819 0.217737
H62   H     H_    0.451702 0.569691 0.668846 0.180343
H63   H     H_    0.501334 0.670154 0.631931 0.200325
C99   C     C_3   0.560881 0.531007 0.232941 -0.375794
C100  C     C_3   0.603272 0.474131 0.193732 -0.729249
H64   H     H_    0.628082 0.592299 0.190708 0.216112
H65   H     H_    0.625158 0.362337 0.227198 0.240466
H66   H     H_    0.588676 0.426016 0.131755 0.225630
H67   H     H_    0.532484 0.423855 0.214678 0.191185
H68   H     H_    0.547773 0.665070 0.206600 0.195498

loop_
_geom_bond_atom_site_label_1
_geom_bond_atom_site_label_2
_ccdc_geom_bond_type
O17   V3    S    
C47   C51   A    
C92   H44   S    
N1    C17   A    
C80   C91   S    
C88   H34   S    
O19   V1    S    
O13   V1    S    
C27   H20   S    
O3    C7    A    
C89   C90   S    
C14   C46   A    
C44   C48   A    
O15   V3    S    
C62   C70   A    
C94   H49   S    
C34   C38   A    
C61   C69   A    
C68   C83   A    
C91   H48   S    
C42   C54   A    
O1    C5    A    
C76   H28   S    
C17   O26   S    
C41   C53   A    
C32   C60   A    
C21   H22   S    
C63   C71   A    
C90   H39   S    
N3    C39   S    
C18   C54   A    
N2    C38   S    
C24   H23   S    
C11   H3    S    
C52   H16   S    
C25   C57   A    
C25   H18   S    
C96   H55   S    
C67   C84   A    
C93   H52   S    
C27   C59   A    
O1    V3    S    
C15   C47   A    
C95   C96   S    
O2    V4    S    
C14   O22   S    
C21   C37   A    
O3    V1    S    
C97   H62   S    
C19   C55   A    
C73   C77   A    
C1    O15   A    
C11   C12   D    
C2    O16   A    
C7    C9    S    
C86   H31   S    
O2    C6    A    
C100  H66   S    
C33   C37   A    
C99   C100  S    
O14   V2    S    
C43   C55   A    
C31   H7    S    
C30   C58   A    
C45   C49   A    
C16   N4    A    
O11   C7    A    
C44   C71   A    
C87   H38   S    
C100  H64   S    
O12   C8    A    
C31   C59   A    
C50   H14   S    
C91   H47   S    
O10   V2    S    
C49   H13   S    
C13   N1    A    
C50   C82   A    
C24   C28   A    
O5    V1    S    
C53   C78   A    
C92   H46   S    
O7    V3    S    
C55   C80   A    
C63   C75   A    
C97   C98   S    
O8    V4    S    
C98   H61   S    
C51   C83   A    
C12   H4    S    
C42   C69   A    
C52   C84   A    
C41   C70   A    
C64   C72   A    
O18   V4    S    
C96   H56   S    
C36   H12   S    
N3    C19   A    
N4    C40   S    
C93   H53   S    
O11   V3    S    
C24   C40   A    
C8    C10   S    
C68   C72   A    
C32   C36   A    
C98   H60   S    
C74   C78   A    
O7    C3    A    
C85   H32   S    
C32   H8    S    
O5    C1    A    
C86   H30   S    
C54   C77   A    
C92   H45   S    
C42   C46   A    
C75   C79   A    
C1    C60   S    
C41   C45   A    
O8    C4    A    
C13   C45   A    
C43   C72   A    
C9    C10   D    
O9    C5    A    
C36   C40   A    
N2    C18   A    
C21   C25   A    
C44   C56   A    
C62   C65   A    
C83   C97   S    
C66   C70   A    
C77   C85   S    
C22   C26   A    
C14   N2    A    
C65   C69   A    
C61   C66   A    
C3    C58   S    
O6    V2    S    
C75   H27   S    
C23   H24   S    
C93   C94   S    
C88   H36   S    
C67   C71   A    
C65   C82   A    
C26   C58   A    
C17   C53   A    
C73   H25   S    
N1    C37   S    
C4    C57   S    
C56   C79   A    
C23   C39   A    
C22   C38   A    
O16   V4    S    
O9    V1    S    
C18   O25   S    
C35   H11   S    
C3    O13   A    
C95   H58   S    
C79   C89   S    
C10   H2    S    
C84   C99   S    
C90   H41   S    
C97   H63   S    
C82   C95   S    
C16   C48   A    
C51   H15   S    
C87   H37   S    
C94   H50   S    
C34   H10   S    
C64   C76   A    
C5    C11   S    
C33   H9    S    
O12   V4    S    
C6    C12   S    
C23   C27   A    
C76   C80   A    
C99   H68   S    
C63   C68   A    
C98   H59   S    
O10   C6    A    
C90   H40   S    
C89   H42   S    
C30   H6    S    
C29   H5    S    
C46   C50   A    
C85   C86   S    
C62   C74   A    
C35   C39   A    
C22   H21   S    
C15   N3    A    
C96   H54   S    
C30   C34   A    
C48   C52   A    
C2    C59   S    
C81   C93   S    
O4    C8    A    
C29   C33   A    
O20   V2    S    
C29   C57   A    
C66   C81   A    
C28   C60   A    
C31   C35   A    
C74   H26   S    
C26   H17   S    
C85   H33   S    
C89   H43   S    
C9    H1    S    
C94   H51   S    
O6    C2    A    
C43   C47   A    
N4    C20   A    
C20   C56   A    
C87   C88   S    
C88   H35   S    
C19   O28   S    
C91   C92   S    
C4    O14   A    
C99   H67   S    
C100  H65   S    
C13   O21   S    
C86   H29   S    
C61   C73   A    
C15   O23   S    
C95   H57   S    
C64   C67   A    
O4    V2    S    
C20   O27   S    
C16   O24   S    
C49   C81   A    
C28   H19   S    
C78   C87   S    
