data_mof_unit_48214.cif
_audit_creation_date              2013-03-05T16:35:51-0500
_audit_creation_method            fapswitch 2.2
_symmetry_space_group_name_H-M    P1
_symmetry_Int_Tables_number       1
_space_group_crystal_system       triclinic
_cell_length_a                    23.599243
_cell_length_b                    9.094515
_cell_length_c                    7.771951
_cell_angle_alpha                 89.952448
_cell_angle_beta                  89.99989
_cell_angle_gamma                 89.999777
_cell_volume                      1668.04406793

loop_
_atom_site_label
_atom_site_type_symbol
_atom_site_description
_atom_site_fract_x
_atom_site_fract_y
_atom_site_fract_z
_atom_type_partial_charge
O1    O     O_R   0.500000 0.288390 0.642760 -0.572781
O2    O     O_R   0.500000 0.711610 0.357240 -0.572782
O3    O     O_R   0.500000 0.711610 0.642760 -0.570403
O4    O     O_R   0.500000 0.288390 0.357240 -0.570402
C1    C     C_R   0.499986 0.219967 0.500043 0.848978
C2    C     C_R   0.499986 0.780033 0.499957 0.848974
O5    O     O_R   0.417880 0.500000 0.642820 -0.544600
O6    O     O_R   0.582120 0.500000 0.357180 -0.540788
O7    O     O_R   0.582120 0.500000 0.642820 -0.540792
O8    O     O_R   0.417880 0.500000 0.357180 -0.544600
C3    C     C_R   0.208849 0.500008 0.499997 0.200394
C4    C     C_R   0.791778 0.500014 0.500007 0.198043
C5    C     C_R   0.390647 0.500001 0.500000 0.886228
C6    C     C_R   0.609477 0.499999 0.500000 0.876682
Cu1   Cu    Cu3+1 0.500000 0.500000 0.669080 1.128033
Cu2   Cu    Cu3+1 0.500000 0.500000 0.330920 1.128033
H1    H     H_    0.215450 0.634469 0.726651 0.195408
H2    H     H_    0.785042 0.393576 0.746453 0.196124
H3    H     H_    0.215449 0.365542 0.273347 0.195409
H4    H     H_    0.785044 0.606448 0.253560 0.196123
C7    C     C_R   0.297655 0.577232 0.628410 0.322757
C8    C     C_R   0.702894 0.437605 0.639243 0.329401
C9    C     C_R   0.297655 0.422775 0.371591 0.322768
C10   C     C_R   0.702894 0.562401 0.360762 0.329400
C11   C     C_R   0.328103 0.500003 0.500000 -0.217665
C12   C     C_R   0.672246 0.500001 0.500001 -0.226653
C13   C     C_R   0.881272 0.631011 0.487262 0.557970
C14   C     C_R   0.119545 0.369611 0.519425 0.559221
C15   C     C_R   0.881271 0.369017 0.512752 0.557967
C16   C     C_R   0.119546 0.630407 0.480571 0.559222
N1    N     N_R   0.852734 0.500014 0.500008 -0.451895
N2    N     N_R   0.147993 0.500008 0.499997 -0.453718
C17   C     C_R   0.940690 0.366605 0.515753 -0.021227
C18   C     C_R   0.060126 0.633224 0.481653 -0.021781
C19   C     C_R   0.940690 0.633421 0.484258 -0.021228
C20   C     C_R   0.060126 0.366797 0.518348 -0.021780
C21   C     C_R   0.970510 0.500012 0.500004 -0.015661
C22   C     C_R   0.030306 0.500011 0.500002 -0.015506
C23   C     C_R   0.970856 0.234288 0.533617 -0.154908
C24   C     C_R   0.029955 0.765568 0.464297 -0.155283
C25   C     C_R   0.970856 0.765737 0.466392 -0.154909
C26   C     C_R   0.029955 0.234454 0.535707 -0.155284
C27   C     C_1   0.499976 0.065358 0.500059 -0.099794
C28   C     C_1   0.499976 0.934642 0.499941 -0.099795
C29   C     C_R   0.238559 0.575715 0.627806 -0.111642
C30   C     C_R   0.761983 0.439982 0.638748 -0.114007
C31   C     C_R   0.238559 0.424297 0.372190 -0.111635
C32   C     C_R   0.761984 0.560039 0.361264 -0.114008
N3    N     N_1   0.500000 0.500000 0.076820 0.010900
N4    N     N_1   0.500000 0.500000 0.923180 0.010900
O9    O     O_2   0.852250 0.758731 0.479322 -0.496255
O10   O     O_2   0.148690 0.243271 0.541185 -0.494382
O11   O     O_2   0.852250 0.241297 0.520693 -0.496255
O12   O     O_2   0.148691 0.756746 0.458811 -0.494380
H5    H     H_    0.948908 0.130401 0.547098 0.186380
H6    H     H_    0.051889 0.869344 0.449336 0.186101
H7    H     H_    0.948908 0.869625 0.452913 0.186379
H8    H     H_    0.051888 0.130678 0.550666 0.186101
Cl1   Cl    Cl    0.331159 0.683404 0.788732 -0.511071
Cl2   Cl    Cl    0.670085 0.348747 0.814972 -0.502468
Cl3   Cl    Cl    0.331158 0.316592 0.211288 -0.511078
Cl4   Cl    Cl    0.670086 0.651238 0.185023 -0.502479

loop_
_geom_bond_atom_site_label_1
_geom_bond_atom_site_label_2
_geom_bond_distance
_ccdc_geom_bond_type
O4    Cu2   1.935163 S    
C10   Cl4   1.765184 S    
O7    C6    1.284090 A    
O8    C5    1.282621 A    
C21   C22   1.411143 A    
O1    Cu1   1.935501 S    
O2    Cu2   1.935500 S    
C14   O10   1.349646 S    
C3    C31   1.397667 A    
O5    C5    1.282621 A    
C17   C21   1.407842 A    
C4    C32   1.397919 A    
O3    C2    1.271952 A    
C13   C19   1.402602 A    
C26   H8    1.082588 S    
O5    Cu1   1.948690 S    
C1    C27   1.406095 S    
Cu1   N4    1.974852 S    
C25   H7    1.082476 S    
O6    Cu2   1.948687 S    
C2    C28   1.406095 S    
C6    C12   1.481301 S    
C16   N2    1.370972 A    
C16   O12   1.349648 S    
C10   C12   1.419590 A    
C5    C11   1.475996 S    
H4    C32   1.083686 S    
C15   O11   1.349801 S    
C27   C28   1.188801 T    
O1    C1    1.272268 A    
H2    C30   1.083679 S    
C20   C22   1.408200 A    
C24   C25   1.394792 A    
C8    C30   1.394638 A    
C13   O9    1.349797 S    
C3    N2    1.436156 S    
C7    Cl1   1.764106 S    
C23   C26   1.394792 A    
C7    C29   1.394695 A    
C9    C11   1.416604 A    
C4    N1    1.438497 S    
C8    Cl2   1.765227 S    
C19   C25   1.404935 A    
C18   C24   1.404831 A    
C3    C29   1.397677 A    
C9    C31   1.394693 A    
C16   C18   1.402521 A    
C13   N1    1.372045 A    
Cu1   Cu2   2.628164 S    
C10   C32   1.394636 A    
C15   C17   1.402599 A    
C14   N2    1.370972 A    
O3    Cu1   1.935162 S    
Cu2   N3    1.974852 S    
C14   C20   1.402519 A    
C15   N1    1.372044 A    
N3    N4    1.194083 T    
C8    C12   1.419577 A    
H3    C31   1.083414 S    
C7    C11   1.416598 A    
O8    Cu2   1.948689 S    
O6    C6    1.284092 A    
C19   C21   1.407842 A    
O7    Cu1   1.948686 S    
C20   C26   1.404829 A    
C17   C23   1.404935 A    
C23   H5    1.082476 S    
O2    C2    1.272268 A    
C9    Cl3   1.764046 S    
H1    C29   1.083411 S    
O4    C1    1.271952 A    
C24   H6    1.082587 S    
C4    C30   1.397933 A    
C18   C22   1.408199 A    
