data_mof_unit_58139.cif
_audit_creation_date              2012-12-10T18:12:32-0500
_audit_creation_method            fapswitch 2.2
_symmetry_space_group_name_H-M    P1
_symmetry_Int_Tables_number       1
_space_group_crystal_system       triclinic
_cell_length_a                    12.778977
_cell_length_b                    13.149041
_cell_length_c                    15.717088
_cell_angle_alpha                 93.246913
_cell_angle_beta                  102.793899
_cell_angle_gamma                 81.8286
_cell_volume                      2548.38167156

loop_
_atom_site_label
_atom_site_type_symbol
_atom_type_description
_atom_site_fract_x
_atom_site_fract_y
_atom_site_fract_z
_atom_type_partial_charge
C1    C     C_R   0.439132 0.690318 0.482524 0.942532
C2    C     C_R   0.598653 0.198666 0.522533 -0.094803
C3    C     C_R   0.293673 0.842110 0.463854 0.335850
C4    C     C_R   0.501425 0.500884 0.661553 0.869604
C5    C     C_R   0.273186 0.941860 0.497257 0.372919
C6    C     C_R   0.359005 0.000315 0.524471 -0.026770
C7    C     C_R   0.460240 0.966719 0.500540 -0.005699
C8    C     C_R   0.479066 0.866558 0.465998 -0.101553
C9    C     C_R   0.543588 0.029060 0.509694 0.056663
C10   C     C_R   0.650452 0.986231 0.505025 0.067633
C11   C     C_R   0.665543 0.888460 0.464659 -0.016833
C12   C     C_3   0.501646 0.504641 0.916668 -0.150718
C13   C     C_R   0.575855 0.835304 0.436009 0.392215
C14   C     C_R   0.518936 0.134681 0.510132 -0.219056
C15   C     C_R   0.708553 0.155420 0.542377 0.027253
C16   C     C_R   0.561073 0.308902 0.512474 0.866050
C17   C     C_R   0.401342 0.799811 0.463757 -0.220417
C18   C     C_R   0.104600 0.323234 0.397715 0.268802
C19   C     C_R   0.798981 0.628572 0.607272 0.221502
C20   C     C_R   0.906021 0.643440 0.643384 0.036494
C21   C     C_R   0.989084 0.583832 0.611678 -0.227983
C22   C     C_R   0.967580 0.515988 0.539279 -0.018131
C23   C     C_3   0.440708 0.428656 0.011679 0.318863
C24   C     C_R   0.858558 0.495213 0.510347 0.203241
C25   C     C_R   0.050510 0.464707 0.496895 -0.074532
C26   C     C_R   0.028074 0.377192 0.441736 0.024765
C27   C     C_R   0.926415 0.348342 0.425235 -0.240894
C28   C     C_R   0.498418 0.499317 0.338428 0.906351
C29   C     C_R   0.841067 0.409668 0.450398 0.099988
C30   C     C_R   0.152906 0.497917 0.501121 0.198380
C31   C     C_R   0.201701 0.360886 0.404420 0.141480
C32   C     C_3   0.450157 0.594755 0.023709 0.304350
C33   C     C_3   0.554997 0.577916 0.987979 0.357439
C34   C     C_3   0.494166 0.501943 0.082960 -0.156070
C35   C     C_1   0.504376 0.502795 0.750980 -0.133545
C36   C     C_1   0.494536 0.499507 0.248963 -0.085928
C37   C     C_3   0.396735 0.521523 0.951755 0.289618
C38   C     C_3   0.544935 0.412909 0.976256 -0.053855
C39   C     C_3   0.597740 0.485287 0.047186 0.001327
C40   C     C_1   0.504444 0.504062 0.826309 0.144165
C41   C     C_1   0.493172 0.500422 0.173529 0.166964
C42   C     C_R   0.735039 0.048052 0.530886 0.083034
Cl1   Cl    Cl    0.631515 0.675409 0.971469 -0.470977
Cl2   Cl    Cl    0.184054 0.773630 0.419549 -0.481538
Cl3   Cl    Cl    0.141897 0.991044 0.511429 -0.552021
Cl4   Cl    Cl    0.579593 0.741485 0.351058 -0.562890
Cl5   Cl    Cl    0.080751 0.210849 0.332181 -0.561380
Cl6   Cl    Cl    0.386621 0.715258 0.057131 -0.385903
Cl7   Cl    Cl    0.366138 0.329754 0.028595 -0.494517
Cl8   Cl    Cl    0.263228 0.546222 0.886266 -0.485284
H1    H     H_    0.435301 0.167436 0.492556 0.193540
H2    H     H_    0.726797 0.672627 0.708214 0.220977
H3    H     H_    0.712237 0.763406 0.632508 0.168087
H4    H     H_    0.902815 0.789656 0.689666 0.195213
H5    H     H_    0.013095 0.712664 0.738331 0.237700
H6    H     H_    0.730167 0.395366 0.340065 0.183809
H7    H     H_    0.736256 0.305554 0.412713 0.178017
H8    H     H_    0.760159 0.452185 0.058163 0.244500
H9    H     H_    0.712290 0.396483 0.132498 0.193228
H10   H     H_    0.616321 0.266924 0.003084 0.228892
H11   H     H_    0.541816 0.282093 0.901267 0.231086
H12   H     H_    0.907618 0.282615 0.382824 0.212286
H13   H     H_    0.832900 0.197105 0.635531 0.206221
H14   H     H_    0.846880 0.208407 0.532027 0.193700
H15   H     H_    0.758253 0.845159 0.375853 0.263184
H16   H     H_    0.790722 0.774404 0.467345 0.212770
H17   H     H_    0.884950 0.019070 0.608915 0.201577
H18   H     H_    0.883580 0.034182 0.501912 0.248118
H19   H     H_    0.069787 0.587941 0.648110 0.170092
H20   H     H_    0.281402 0.141179 0.548737 0.232630
H21   H     H_    0.325165 0.065617 0.636899 0.237879
H22   H     H_    0.300460 0.236291 0.373749 0.208001
H23   H     H_    0.245622 0.317057 0.290573 0.238761
H24   H     H_    0.218310 0.577318 0.610804 0.194392
H25   H     H_    0.121680 0.650735 0.534065 0.229579
N1    N     N_R   0.222180 0.444680 0.455580 -0.109844
N2    N     N_3   0.598366 0.314846 0.949525 -0.402240
N3    N     N_3   0.791795 0.219633 0.572916 -0.423312
N4    N     N_3   0.767630 0.848798 0.443678 -0.385320
N5    N     N_3   0.846159 0.002340 0.544884 -0.405010
N6    N     N_R   0.776980 0.554790 0.543960 -0.124992
N7    N     N_3   0.345496 0.088875 0.580795 -0.437824
N8    N     N_3   0.280470 0.313576 0.357294 -0.365986
N9    N     N_3   0.185265 0.590376 0.544812 -0.366420
N10   N     N_3   0.712401 0.685160 0.641271 -0.376200
N11   N     N_3   0.929534 0.716165 0.714541 -0.412714
N12   N     N_3   0.738485 0.384019 0.406811 -0.360016
N13   N     N_3   0.706906 0.465231 0.100582 -0.365763
O1    O     O_R   0.366730 0.627160 0.478790 -0.550858
O2    O     O_R   0.544830 0.662520 0.507160 -0.586306
O3    O     O_R   0.410960 0.482330 0.609040 -0.610206
O4    O     O_R   0.589060 0.517690 0.637410 -0.595854
O5    O     O_R   0.455170 0.337480 0.492840 -0.620669
O6    O     O_R   0.633270 0.372840 0.521210 -0.582057
O7    O     O_R   0.410940 0.482310 0.362590 -0.581785
O8    O     O_R   0.589040 0.517670 0.390960 -0.567137
Zn1   Zn    Zn3+2 0.381080 0.476390 0.481050 1.020862
Zn2   Zn    Zn3+2 0.618920 0.523610 0.518950 1.009226

loop_
_geom_bond_atom_site_label_1
_geom_bond_atom_site_label_2
_ccdc_geom_bond_type
H18   N5    S    
C42   N5    S    
C1    O2    A    
C6    N7    S    
C20   N11   S    
C27   C29   A    
C19   C20   A    
C18   C26   A    
C24   N6    A    
C18   Cl5   S    
O4    Zn2   S    
C7    C8    A    
H16   N4    S    
C16   O5    A    
C33   C39   S    
C28   O7    A    
H15   N4    S    
H2    N10   S    
C5    C6    A    
H25   N9    S    
C23   Cl7   S    
C15   N3    S    
C10   C42   A    
N6    Zn2   S    
O6    Zn2   S    
C31   N8    S    
C12   C37   S    
H9    N13   S    
C24   C29   A    
H11   N2    S    
C22   C25   A    
O8    Zn2   S    
C2    C16   S    
C9    C10   A    
H21   N7    S    
C4    C35   S    
C21   C22   A    
C12   C38   S    
C32   Cl6   S    
C36   C41   T    
C1    C17   S    
C34   C41   S    
C39   N13   S    
C2    C14   A    
C3    Cl2   S    
H10   N2    S    
C34   C39   S    
C33   Cl1   S    
H4    N11   S    
H6    N12   S    
C19   N10   S    
N1    Zn1   S    
C23   C37   S    
C5    Cl3   S    
H7    N12   S    
O1    Zn1   S    
C32   C34   S    
C12   C40   S    
C9    C14   A    
C27   H12   S    
C30   N1    A    
C14   H1    S    
C23   C34   S    
C26   C27   A    
C32   C37   S    
O3    Zn1   S    
C2    C15   A    
C11   N4    S    
C22   C24   A    
O5    Zn1   S    
C25   C30   A    
C7    C9    A    
C1    O1    A    
H14   N3    S    
H17   N5    S    
C15   C42   A    
H24   N9    S    
C3    C5    A    
H8    N13   S    
O7    Zn1   S    
C6    C7    A    
C38   N2    S    
C23   C38   S    
C16   O6    A    
C8    C17   A    
C28   O8    A    
C32   C33   S    
C4    O3    A    
H5    N11   S    
C35   C40   T    
C25   C26   A    
C37   Cl8   S    
C11   C13   A    
C31   N1    A    
C38   C39   S    
O2    Zn2   S    
C3    C17   A    
C30   N9    S    
H20   N7    S    
C29   N12   S    
H22   N8    S    
C10   C11   A    
C8    C13   A    
C20   C21   A    
C28   C36   S    
C21   H19   S    
C13   Cl4   S    
H3    N10   S    
C18   C31   A    
C12   C33   S    
C19   N6    A    
H23   N8    S    
C4    O4    A    
H13   N3    S    
