data_mof_unit_5751.cif
_audit_creation_date              2012-12-10T19:09:35-0500
_audit_creation_method            fapswitch 2.2
_symmetry_space_group_name_H-M    P1
_symmetry_Int_Tables_number       1
_space_group_crystal_system       triclinic
_cell_length_a                    9.560302
_cell_length_b                    10.83024
_cell_length_c                    17.136308
_cell_angle_alpha                 89.049932
_cell_angle_beta                  95.019475
_cell_angle_gamma                 89.841146
_cell_volume                      1767.23630388

loop_
_atom_site_label
_atom_site_type_symbol
_atom_type_description
_atom_site_fract_x
_atom_site_fract_y
_atom_site_fract_z
_atom_type_partial_charge
C1    C     C_R   0.500080 0.262439 0.500148 0.801832
C2    C     C_R   0.653812 0.463111 0.784818 -0.037784
C3    C     C_R   0.573833 0.467754 0.141914 -0.157277
C4    C     C_R   0.583819 0.466369 0.223273 -0.239416
C5    C     C_R   0.447349 0.504142 0.098639 0.384163
C6    C     C_R   0.468558 0.500990 0.263213 -0.022347
C7    C     C_R   0.342272 0.535493 0.220348 -0.230450
C8    C     C_R   0.332064 0.537125 0.138699 -0.195217
C9    C     C_R   0.619753 0.063696 0.483199 0.132342
C10   C     C_R   0.498420 0.129278 0.496500 -0.094214
C11   C     C_R   0.372946 0.064502 0.503751 -0.225699
C12   C     C_R   0.518952 0.498814 0.651166 0.787776
C13   C     C_R   0.373683 0.936127 0.505468 -0.225493
C14   C     C_R   0.498598 0.870968 0.497865 -0.095041
C15   C     C_R   0.619668 0.936316 0.483846 0.123756
C16   C     C_3   0.762227 0.928964 0.526858 -0.469979
C17   C     C_3   0.762849 0.069011 0.525713 -0.480409
C18   C     C_R   0.067673 0.592726 0.462261 0.245257
C19   C     C_R   0.080656 0.411300 0.538960 -0.082858
C20   C     C_R   0.932149 0.411753 0.539426 -0.051196
C21   C     C_R   0.919582 0.591746 0.461843 0.212871
C22   C     C_3   0.898207 0.618808 0.376102 -0.474286
C23   C     C_R   0.499960 0.737550 0.500760 0.791830
C24   C     C_3   0.056921 0.619358 0.375715 -0.115951
C25   C     C_R   0.481275 0.501331 0.349141 0.790371
C26   C     C_R   0.530364 0.498923 0.737809 -0.082360
C27   C     C_R   0.411023 0.532848 0.775066 -0.263000
C28   C     C_R   0.411250 0.527641 0.856228 -0.156528
C29   C     C_R   0.532629 0.488812 0.902388 0.363969
C30   C     C_R   0.652251 0.457612 0.866278 -0.233890
Cu1   Cu    Cu3+1 0.640670 0.499980 0.500000 0.940930
Cu2   Cu    Cu3+1 0.359330 0.500020 0.500000 0.928279
H1    H     H_    0.681653 0.437182 0.254810 0.149397
H2    H     H_    0.278350 0.888253 0.516598 0.171144
H3    H     H_    0.760828 0.887819 0.586693 0.197424
H4    H     H_    0.840160 0.887849 0.490597 0.196804
H5    H     H_    0.762350 0.109455 0.584944 0.195150
H6    H     H_    0.841587 0.109033 0.488573 0.197601
H7    H     H_    0.141269 0.338107 0.569480 0.137992
H8    H     H_    0.881710 0.339554 0.570925 0.150172
H9    H     H_    0.850136 0.540381 0.342809 0.187240
H10   H     H_    0.843635 0.708167 0.363151 0.202802
H11   H     H_    0.094792 0.539616 0.343310 0.150178
H12   H     H_    0.665467 0.440627 0.113336 0.150737
H13   H     H_    0.746405 0.430284 0.902486 0.146604
H14   H     H_    0.252101 0.562990 0.249650 0.141100
H15   H     H_    0.316857 0.554318 0.882371 0.157440
H16   H     H_    0.234334 0.565192 0.106453 0.137706
H17   H     H_    0.316962 0.564766 0.741225 0.160870
H18   H     H_    0.275833 0.112348 0.512043 0.161547
N1    N     N_2   0.542050 0.482263 0.985255 -0.266396
N2    N     N_2   0.432627 0.510174 0.015468 -0.264959
N3    N     N_R   0.147870 0.500930 0.499500 -0.205548
N4    N     N_R   0.851960 0.500890 0.499500 -0.189399
O1    O     O_R   0.618810 0.319640 0.500000 -0.582827
O2    O     O_R   0.381230 0.319680 0.499990 -0.588512
O3    O     O_R   0.631790 0.498830 0.613930 -0.573521
O4    O     O_R   0.394210 0.498870 0.613920 -0.585975
O5    O     O_R   0.618770 0.680320 0.500010 -0.576669
O6    O     O_R   0.381190 0.680360 0.500000 -0.587552
O7    O     O_R   0.605790 0.501130 0.386080 -0.583912
O8    O     O_R   0.368210 0.501170 0.386070 -0.591895
C31   C     C_3   0.123339 0.742250 0.350800 -0.333163
C32   C     C_3   0.069491 0.858651 0.388205 -0.845223
H19   H     H_    0.963887 0.885152 0.361047 0.240980
H20   H     H_    0.065208 0.844731 0.452122 0.236831
H21   H     H_    0.141186 0.936689 0.378193 0.246488
H22   H     H_    0.238693 0.735791 0.364933 0.220852
H23   H     H_    0.104830 0.752995 0.286129 0.194297
C33   C     C_R   0.789041 0.435256 0.753816 0.144246
C34   C     C_R   0.875517 0.532608 0.732939 -0.095793
C35   C     C_R   0.014327 0.509263 0.718162 -0.145794
C36   C     C_R   0.067970 0.388866 0.724932 -0.130033
C37   C     C_R   0.981367 0.291148 0.743893 -0.168370
C38   C     C_R   0.842305 0.314169 0.758663 -0.170663
H24   H     H_    0.836636 0.626766 0.730464 0.115115
H25   H     H_    0.080006 0.584820 0.701801 0.123306
H26   H     H_    0.175963 0.370848 0.714300 0.141447
H27   H     H_    0.022664 0.197916 0.748415 0.133344
H28   H     H_    0.777563 0.238541 0.776347 0.127409

loop_
_geom_bond_atom_site_label_1
_geom_bond_atom_site_label_2
_ccdc_geom_bond_type
C28   H15   S    
C18   C21   A    
C36   C37   A    
Cu1   O7    S    
C30   H13   S    
C19   C20   A    
Cu2   O4    S    
Cu2   N3    S    
C7    C8    A    
C23   O5    A    
C32   H21   S    
C26   C27   A    
C29   C30   A    
C18   C24   S    
C21   C22   S    
C28   C29   A    
C1    O2    A    
C16   H3    S    
C29   N1    S    
C21   N4    A    
C20   H8    S    
C22   H9    S    
C15   C16   S    
Cu1   O5    S    
C18   N3    A    
C4    H1    S    
C31   H23   S    
C16   C17   S    
C36   H26   S    
C5    N2    S    
C33   C34   A    
C9    C10   A    
C17   H6    S    
C12   O4    A    
C19   N3    A    
C13   C14   A    
C23   O6    A    
C3    H12   S    
C37   C38   A    
N1    N2    D    
C7    H14   S    
C20   N4    A    
C17   H5    S    
C12   C26   S    
C32   H20   S    
C14   C23   S    
C8    H16   S    
C35   H25   S    
Cu1   Cu2   S    
C2    C26   A    
C25   O7    A    
C19   H7    S    
C12   O3    A    
C9    C17   S    
C24   C31   S    
C37   H27   S    
C22   C24   S    
C4    C6    A    
Cu2   O6    S    
C3    C4    A    
C34   H24   S    
C33   C38   A    
C38   H28   S    
C31   H22   S    
C1    C10   S    
C35   C36   A    
C3    C5    A    
C5    C8    A    
C6    C7    A    
C2    C30   A    
C32   H19   S    
Cu1   O3    S    
C9    C15   A    
Cu2   O8    S    
C13   H2    S    
C11   H18   S    
C16   H4    S    
C11   C13   A    
C22   H10   S    
C25   O8    A    
Cu1   N4    S    
C1    O1    A    
C10   C11   A    
C31   C32   S    
C6    C25   S    
C34   C35   A    
C27   C28   A    
C24   H11   S    
C14   C15   A    
Cu1   O1    S    
C2    C33   S    
Cu2   O2    S    
C27   H17   S    
