data_mof_unit_16781.cif
_audit_creation_date              2012-10-26T18:52:10-0400
_audit_creation_method            fapswitch 2.2
_symmetry_space_group_name_H-M    P1
_symmetry_Int_Tables_number       1
_space_group_crystal_system       triclinic
_cell_length_a                    13.816768
_cell_length_b                    14.789216
_cell_length_c                    14.770524
_cell_angle_alpha                 115.28708
_cell_angle_beta                  106.509391
_cell_angle_gamma                 72.893511
_cell_volume                      2563.99799506

loop_
_atom_site_label
_atom_site_type_symbol
_atom_type_description
_atom_site_fract_x
_atom_site_fract_y
_atom_site_fract_z
_atom_type_partial_charge
C1    C     C_R   0.518259 0.118407 0.688003 0.537737
C2    C     C_R   0.510724 0.507360 0.876378 -0.140481
C3    C     C_R   0.577388 0.382981 0.102615 -0.135060
C4    C     C_R   0.497801 0.611690 0.903343 -0.132658
C5    C     C_R   0.324920 0.297293 0.328671 0.248399
C6    C     C_R   0.670912 0.704077 0.674976 0.236855
C7    C     C_R   0.346055 0.220267 0.368103 0.391851
C8    C     C_R   0.654950 0.776735 0.630593 0.387229
C9    C     C_R   0.498842 0.277093 0.474780 0.347643
C10   C     C_R   0.502004 0.721357 0.524151 0.340532
C11   C     C_R   0.465803 0.370525 0.457518 -0.057024
C12   C     C_R   0.484560 0.881452 0.312129 0.525176
C13   C     C_R   0.536380 0.627328 0.539730 -0.054539
C14   C     C_R   0.383481 0.374643 0.375916 -0.039998
C15   C     C_R   0.613288 0.626485 0.625772 -0.039210
C16   C     C_R   0.686612 0.986588 0.503105 0.545833
C17   C     C_R   0.313272 0.013295 0.496413 0.539271
C18   C     C_R   0.512705 0.458076 0.516109 0.022187
C19   C     C_R   0.488884 0.540132 0.481516 0.028586
C20   C     C_R   0.418343 0.532429 0.389946 -0.140520
C21   C     C_R   0.577803 0.468852 0.611174 -0.157296
C22   C     C_R   0.361674 0.455504 0.342663 -0.134127
C23   C     C_R   0.536219 0.358350 0.923322 0.029507
C24   C     C_R   0.628682 0.550161 0.663734 -0.138419
C25   C     C_1   0.208015 0.022794 0.496922 -0.023282
C26   C     C_1   0.791318 0.976792 0.500592 -0.030734
C27   C     C_2   0.014322 0.039754 0.500192 -0.121640
C28   C     C_2   0.983949 0.959347 0.493551 -0.129064
C29   C     C_1   0.879392 0.968090 0.497483 -0.066285
C30   C     C_1   0.119390 0.031324 0.498096 -0.054669
C31   C     C_R   0.534545 0.185416 0.796181 -0.004133
C32   C     C_R   0.483298 0.813566 0.204754 -0.007282
C33   C     C_R   0.585237 0.212023 0.975142 -0.140572
C34   C     C_R   0.506452 0.638739 0.079626 0.029600
C35   C     C_R   0.479970 0.783401 0.029589 -0.129854
C36   C     C_R   0.569840 0.146083 0.873414 -0.135525
C37   C     C_R   0.476494 0.850663 0.129890 -0.146852
C38   C     C_R   0.517252 0.290783 0.821729 -0.131956
C39   C     C_R   0.495617 0.708612 0.178554 -0.133052
C40   C     C_3   0.260150 0.272180 0.154923 -0.010656
C41   C     C_3   0.370687 0.215003 0.135806 -0.306347
C42   C     C_3   0.374009 0.168394 0.022235 -0.472586
C43   C     C_3   0.830468 0.700879 0.786952 0.017139
C44   C     C_3   0.877275 0.589035 0.727931 -0.293477
C45   C     C_R   0.566461 0.317758 0.000681 0.051590
C46   C     C_3   0.993936 0.573228 0.741333 -0.480625
C47   C     C_3   0.339652 0.792285 0.562242 0.031620
C48   C     C_3   0.298327 0.713141 0.574372 -0.292815
C49   C     C_3   0.218861 0.764684 0.644242 -0.490715
C50   C     C_3   0.671808 0.239143 0.463485 0.009902
C51   C     C_3   0.652456 0.168114 0.349948 -0.272167
C52   C     C_3   0.739450 0.154645 0.297946 -0.486343
C53   C     C_3   0.802642 0.777164 0.593987 -0.114339
C54   C     C_3   0.264174 0.091793 0.245030 -0.060413
C55   C     C_R   0.494404 0.677974 0.003819 0.052784
C56   C     C_R   0.523744 0.465115 0.949945 0.031994
C57   C     C_R   0.527871 0.531336 0.053970 0.031352
C58   C     C_R   0.556894 0.487901 0.129071 -0.141002
Cu1   Cu    Cu3+1 0.526370 0.916390 0.524860 1.013437
Cu2   Cu    Cu3+1 0.473630 0.083610 0.475140 1.019645
H1    H     H_    0.037290 0.886915 0.485292 0.123711
H2    H     H_    0.584689 0.064724 0.855390 0.148079
H3    H     H_    0.611154 0.180449 0.034049 0.104887
H4    H     H_    0.472919 0.813667 0.972363 0.110630
H5    H     H_    0.568869 0.532751 0.209612 0.102640
H6    H     H_    0.514542 0.461334 0.797527 0.103129
H7    H     H_    0.301390 0.459744 0.278665 0.145374
H8    H     H_    0.680520 0.552663 0.734755 0.158716
H9    H     H_    0.239419 0.339774 0.133499 0.137673
H10   H     H_    0.205631 0.222184 0.100858 0.146815
H11   H     H_    0.424804 0.268649 0.175020 0.151341
H12   H     H_    0.960952 0.112187 0.508276 0.125984
H13   H     H_    0.398160 0.152565 0.164992 0.135173
H14   H     H_    0.317762 0.117207 0.979791 0.140728
H15   H     H_    0.451907 0.122112 0.010253 0.148323
H16   H     H_    0.356321 0.229452 0.991693 0.162213
H17   H     H_    0.861559 0.716449 0.869133 0.151197
H18   H     H_    0.856748 0.756001 0.771919 0.169673
H19   H     H_    0.859912 0.538491 0.756765 0.160137
H20   H     H_    0.844224 0.566054 0.645348 0.151850
H21   H     H_    0.013720 0.621456 0.711295 0.142668
H22   H     H_    0.025776 0.491994 0.698777 0.157334
H23   H     H_    0.403460 0.587137 0.354867 0.165789
H24   H     H_    0.029840 0.593053 0.823128 0.149587
H25   H     H_    0.271425 0.845678 0.539884 0.164777
H26   H     H_    0.381245 0.838610 0.637236 0.128482
H27   H     H_    0.261691 0.664045 0.498722 0.184852
H28   H     H_    0.361959 0.665001 0.608941 0.169481
H29   H     H_    0.253779 0.813824 0.720830 0.146222
H30   H     H_    0.191506 0.705617 0.652560 0.152152
H31   H     H_    0.151624 0.811910 0.611754 0.143467
H32   H     H_    0.748686 0.207451 0.499829 0.151537
H33   H     H_    0.677371 0.314904 0.469606 0.126869
H34   H     H_    0.590447 0.414655 0.646350 0.159569
H35   H     H_    0.579386 0.200819 0.309050 0.127277
H36   H     H_    0.646588 0.091923 0.342148 0.192443
H37   H     H_    0.745984 0.229673 0.302604 0.147308
H38   H     H_    0.723054 0.104411 0.216405 0.148006
H39   H     H_    0.813733 0.118957 0.334571 0.156166
H40   H     H_    0.859151 0.824656 0.610482 0.139619
H41   H     H_    0.767713 0.754269 0.511567 0.132256
H42   H     H_    0.845843 0.706416 0.606834 0.070864
H43   H     H_    0.202637 0.124217 0.193955 0.140722
H44   H     H_    0.240653 0.025148 0.242657 0.129578
H45   H     H_    0.600766 0.352785 0.162499 0.104764
H46   H     H_    0.337518 0.062423 0.216095 0.087019
H47   H     H_    0.489771 0.640674 0.844849 0.118599
H48   H     H_    0.495038 0.683060 0.236555 0.128458
H49   H     H_    0.485927 0.319009 0.761036 0.131457
H50   H     H_    0.469677 0.931161 0.148737 0.110229
N1    N     N_R   0.433980 0.209250 0.437830 -0.246368
N2    N     N_R   0.566020 0.790750 0.562170 -0.250894
O1    O     O_R   0.534760 0.019630 0.662610 -0.484049
O2    O     O_3   0.721902 0.720781 0.775094 -0.574198
O3    O     O_3   0.399459 0.748693 0.483715 -0.554759
O4    O     O_3   0.598992 0.248052 0.520182 -0.543297
O5    O     O_3   0.728107 0.834397 0.657665 -0.530542
O6    O     O_3   0.272605 0.163598 0.346018 -0.511084
O7    O     O_R   0.465240 0.980370 0.337390 -0.518806
O8    O     O_R   0.490220 0.160840 0.620610 -0.485808
O9    O     O_R   0.509780 0.839160 0.379390 -0.492181
O10   O     O_R   0.663260 0.919400 0.523940 -0.471332
O11   O     O_R   0.336740 0.080600 0.476060 -0.439363
O12   O     O_R   0.618720 0.060610 0.481950 -0.459512
O13   O     O_R   0.381280 0.939390 0.518050 -0.480198
O14   O     O_3   0.238285 0.303491 0.254273 -0.567582

loop_
_geom_bond_atom_site_label_1
_geom_bond_atom_site_label_2
_ccdc_geom_bond_type
C9    N1    A    
C11   C18   A    
Cu1   O9    S    
C23   C45   A    
C18   C21   A    
C33   C45   A    
C41   C42   S    
C19   C20   A    
C49   H30   S    
C23   C56   A    
C3    H45   S    
C43   H18   S    
C47   O3    S    
C42   H15   S    
C40   H10   S    
C47   H25   S    
C54   H44   S    
C28   C29   S    
C35   C37   A    
C8    N2    A    
C43   O2    S    
C11   C14   A    
C53   O5    S    
C21   H34   S    
C12   O7    A    
C52   H37   S    
C1    C31   S    
C33   C36   A    
C56   C57   A    
Cu2   O7    S    
C18   C19   A    
C32   C39   A    
Cu2   O12   S    
C16   O10   A    
C6    O2    S    
C6    C15   A    
C46   H22   S    
C17   O11   A    
C12   O9    A    
C53   H41   S    
C5    O14   S    
C34   C57   A    
C48   H28   S    
C10   N2    A    
C35   H4    S    
Cu1   O1    S    
C51   H36   S    
C41   H11   S    
C28   H1    S    
Cu1   O10   S    
C34   C55   A    
C12   C32   S    
C27   C30   S    
C7    O6    S    
C1    O1    A    
C49   H31   S    
C36   H2    S    
C44   C46   S    
C8    O5    S    
C50   C51   S    
C53   H40   S    
C16   C26   S    
C39   H48   S    
C4    H47   S    
C42   H14   S    
C40   H9    S    
C13   C19   A    
C35   C55   A    
C51   C52   S    
C47   H26   S    
C54   H43   S    
C44   H20   S    
C5    C7    A    
C54   H46   S    
C6    C8    A    
C3    C45   A    
C34   C39   A    
C1    O8    A    
Cu2   O11   S    
C2    C4    A    
C43   C44   S    
C46   H21   S    
C58   H5    S    
C47   C48   S    
C53   H42   S    
C33   H3    S    
C40   O14   S    
Cu1   N2    S    
C37   H50   S    
C48   H27   S    
C32   C37   A    
C38   H49   S    
C9    C11   A    
C5    C14   A    
C46   H24   S    
C50   H32   S    
C15   C24   A    
C20   C22   A    
C54   O6    S    
C4    C55   A    
C21   C24   A    
Cu1   O13   S    
C25   C30   T    
C48   C49   S    
C9    O4    S    
C44   H19   S    
C49   H29   S    
C2    H6    S    
C10   C13   A    
C27   H12   S    
C50   H33   S    
C43   H17   S    
C23   C38   A    
C52   H39   S    
C42   H16   S    
C31   C38   A    
C17   C25   S    
C14   C22   A    
C13   C15   A    
C16   O12   A    
Cu2   N1    S    
C2    C56   A    
C17   O13   A    
C57   C58   A    
C52   H38   S    
C7    N1    A    
Cu2   O8    S    
C50   O4    S    
C22   H7    S    
C24   H8    S    
C41   H13   S    
C3    C58   A    
Cu1   Cu2   S    
C26   C29   T    
C20   H23   S    
C27   C28   D    
C31   C36   A    
C40   C41   S    
C10   O3    S    
C51   H35   S    
