data_mof_unit_63680.cif
_audit_creation_date              2012-12-10T18:44:22-0500
_audit_creation_method            fapswitch 2.2
_symmetry_space_group_name_H-M    P1
_symmetry_Int_Tables_number       1
_space_group_crystal_system       triclinic
_cell_length_a                    18.110552
_cell_length_b                    18.112605
_cell_length_c                    22.09059
_cell_angle_alpha                 114.192904
_cell_angle_beta                  114.196424
_cell_angle_gamma                 89.999618
_cell_volume                      5905.08435206

loop_
_atom_site_label
_atom_site_type_symbol
_atom_type_description
_atom_site_fract_x
_atom_site_fract_y
_atom_site_fract_z
_atom_type_partial_charge
C1    C     C_R   0.349763 0.349743 0.699518 0.502643
C2    C     C_1   0.889520 0.889484 0.778994 -0.005554
C3    C     C_3   0.082312 0.014437 0.024759 -0.099154
C4    C     C_3   0.917688 0.985563 0.975240 -0.099154
C5    C     C_3   0.036472 0.036490 0.072969 0.049647
C6    C     C_3   0.963527 0.963509 0.927031 0.049647
C7    C     C_1   0.077063 0.077096 0.154170 -0.061057
C8    C     C_1   0.922937 0.922904 0.845830 -0.061057
C9    C     C_3   0.038896 0.504043 0.568082 -0.124829
C10   C     C_3   0.961104 0.495957 0.431918 -0.124829
C11   C     C_3   0.944261 0.479161 0.518769 -0.125373
C12   C     C_R   0.650237 0.650257 0.300482 0.502642
C13   C     C_3   0.055739 0.520839 0.481231 -0.125374
C14   C     C_3   0.949298 0.551253 0.500211 0.065709
C15   C     C_3   0.050702 0.448747 0.499789 0.065709
C16   C     C_R   0.150235 0.150266 0.300507 0.502649
C17   C     C_R   0.849765 0.849734 0.699493 0.502649
C18   C     C_3   0.043106 0.577078 0.549571 -0.108137
C19   C     C_3   0.956894 0.422922 0.450429 -0.108137
C20   C     C_3   0.571292 0.550094 0.024737 -0.100261
C21   C     C_3   0.428708 0.449906 0.975263 -0.100261
C22   C     C_3   0.549761 0.455462 0.975253 -0.100430
C23   C     C_3   0.564045 0.538846 0.568065 -0.124826
C24   C     C_3   0.450239 0.544538 0.024746 -0.100430
C25   C     C_1   0.389507 0.389488 0.779011 -0.005530
C26   C     C_1   0.610493 0.610512 0.220989 -0.005530
C27   C     C_3   0.484403 0.557495 0.975227 -0.099160
C28   C     C_3   0.515597 0.442504 0.024773 -0.099160
C29   C     C_3   0.463517 0.463509 0.927035 0.049646
C30   C     C_3   0.536483 0.536491 0.072965 0.049646
C31   C     C_1   0.422922 0.422906 0.845843 -0.061070
C32   C     C_1   0.577078 0.577093 0.154157 -0.061070
C33   C     C_3   0.077038 0.006713 0.549798 -0.108128
C34   C     C_3   0.435955 0.461154 0.431935 -0.124826
C35   C     C_3   0.922962 0.993287 0.450202 -0.108128
C36   C     C_3   0.021060 0.925605 0.481505 -0.125305
C37   C     C_3   0.978939 0.074394 0.518495 -0.125305
C38   C     C_3   0.948734 0.949052 0.499739 0.065716
C39   C     C_3   0.051266 0.050948 0.500261 0.065716
C40   C     C_R   0.391796 0.108289 0.499968 0.504949
C41   C     C_R   0.608204 0.891711 0.500032 0.504949
C42   C     C_3   0.003769 0.029284 0.567985 -0.124893
C43   C     C_3   0.996231 0.970716 0.432015 -0.124893
C44   C     C_3   0.528947 0.063779 0.568193 -0.124670
C45   C     C_3   0.020809 0.049202 0.975234 -0.100409
C46   C     C_3   0.471053 0.936221 0.431807 -0.124670
C47   C     C_3   0.574636 0.039722 0.519180 -0.125465
C48   C     C_3   0.425364 0.960278 0.480820 -0.125465
C49   C     C_3   0.550906 0.948952 0.500210 0.065710
C50   C     C_3   0.449094 0.051048 0.499790 0.065710
C51   C     C_3   0.506091 0.972113 0.549269 -0.108108
C52   C     C_3   0.493909 0.027887 0.450731 -0.108108
C53   C     C_R   0.108177 0.391682 0.499970 0.504967
C54   C     C_R   0.891823 0.608318 0.500029 0.504967
C55   C     C_R   0.108332 0.108261 0.500103 0.504936
C56   C     C_3   0.979191 0.950797 0.024766 -0.100409
C57   C     C_R   0.891667 0.891738 0.499897 0.504936
C58   C     C_R   0.391725 0.391804 0.500020 0.505003
C59   C     C_R   0.608274 0.608196 0.499980 0.505004
C60   C     C_3   0.472511 0.543061 0.549602 -0.108126
C61   C     C_3   0.527489 0.456939 0.450398 -0.108126
C62   C     C_3   0.460395 0.555761 0.481289 -0.125371
C63   C     C_3   0.539605 0.444239 0.518711 -0.125371
C64   C     C_3   0.551034 0.550720 0.499800 0.065691
C65   C     C_3   0.448966 0.449280 0.500200 0.065690
C66   C     C_3   0.975613 0.071901 0.024733 -0.100283
C67   C     C_3   0.024386 0.928099 0.975267 -0.100283
C68   C     C_1   0.110480 0.110516 0.221006 -0.005554
H1    H     H_    0.429025 0.602530 0.465971 0.109081
H2    H     H_    0.962751 0.136419 0.533638 0.109104
H3    H     H_    0.141154 0.013090 0.590692 0.127198
H4    H     H_    0.858846 0.986910 0.409308 0.127198
H5    H     H_    0.005777 0.052203 0.623683 0.110155
H6    H     H_    0.994223 0.947797 0.376316 0.110155
H7    H     H_    0.636862 0.071189 0.534894 0.108936
H8    H     H_    0.363138 0.928811 0.465106 0.108936
H9    H     H_    0.551585 0.117105 0.624066 0.110453
H10   H     H_    0.448415 0.882895 0.375933 0.110453
H11   H     H_    0.511941 0.948344 0.589717 0.127145
H12   H     H_    0.570975 0.397469 0.534029 0.109081
H13   H     H_    0.488059 0.051656 0.410283 0.127145
H14   H     H_    0.449079 0.577561 0.590331 0.127174
H15   H     H_    0.550921 0.422438 0.409668 0.127174
H16   H     H_    0.617592 0.571750 0.623832 0.110470
H17   H     H_    0.382408 0.428250 0.376168 0.110470
H18   H     H_    0.956065 0.131497 0.046056 0.104618
H19   H     H_    0.043935 0.868503 0.953944 0.104618
H20   H     H_    0.037417 0.089147 0.953883 0.104288
H21   H     H_    0.962583 0.910852 0.046117 0.104288
H22   H     H_    0.849534 0.973199 0.953894 0.106895
H23   H     H_    0.590162 0.418354 0.953915 0.104285
H24   H     H_    0.150466 0.026801 0.046106 0.106895
H25   H     H_    0.897513 0.463157 0.534139 0.109040
H26   H     H_    0.102487 0.536843 0.465860 0.109040
H27   H     H_    0.071839 0.506281 0.623862 0.110369
H28   H     H_    0.928161 0.493719 0.376138 0.110369
H29   H     H_    0.077644 0.641228 0.590273 0.127175
H30   H     H_    0.922356 0.358772 0.409727 0.127174
H31   H     H_    0.409838 0.581646 0.046085 0.104285
H32   H     H_    0.630388 0.591767 0.046067 0.104633
H33   H     H_    0.369612 0.408233 0.953933 0.104633
H34   H     H_    0.528917 0.395746 0.046133 0.106882
H35   H     H_    0.471083 0.604254 0.953867 0.106882
H36   H     H_    0.037248 0.863581 0.466362 0.109104
O1    O     O_3   0.250010 0.250010 0.500010 -0.436034
O2    O     O_R   0.893710 0.832180 0.664370 -0.538782
O3    O     O_R   0.332200 0.393690 0.664400 -0.538914
O4    O     O_R   0.667800 0.606310 0.335600 -0.538914
O5    O     O_R   0.229300 0.167820 0.335610 -0.538881
O6    O     O_R   0.770700 0.832180 0.664390 -0.538881
O7    O     O_R   0.358130 0.123520 0.543120 -0.543618
O8    O     O_R   0.641870 0.876480 0.456880 -0.543618
O9    O     O_R   0.080390 0.314990 0.456920 -0.548084
O10   O     O_R   0.919610 0.685010 0.543080 -0.548084
O11   O     O_R   0.185040 0.123520 0.543150 -0.548087
O12   O     O_3   0.749990 0.749990 0.499990 -0.436034
O13   O     O_R   0.814960 0.876480 0.456850 -0.548087
O14   O     O_R   0.358080 0.419590 0.543080 -0.548107
O15   O     O_R   0.641920 0.580410 0.456920 -0.548108
O16   O     O_R   0.080420 0.141920 0.456950 -0.543627
O17   O     O_R   0.919580 0.858080 0.543050 -0.543627
O18   O     O_R   0.376490 0.315000 0.456880 -0.543643
O19   O     O_R   0.623510 0.685000 0.543120 -0.543643
O20   O     O_R   0.376520 0.141930 0.456900 -0.548106
O21   O     O_R   0.623480 0.858070 0.543100 -0.548106
O22   O     O_R   0.184990 0.419580 0.543110 -0.543647
O23   O     O_R   0.815010 0.580420 0.456890 -0.543647
O24   O     O_R   0.332220 0.270690 0.664420 -0.538814
O25   O     O_R   0.667780 0.729310 0.335580 -0.538814
O26   O     O_R   0.106290 0.167820 0.335630 -0.538782
Zn1   Zn    Zn3+2 0.307090 0.219220 0.438420 0.929796
Zn2   Zn    Zn3+2 0.692910 0.780780 0.561580 0.929796
Zn3   Zn    Zn3+2 0.280820 0.192930 0.561610 0.929868
Zn4   Zn    Zn3+2 0.719180 0.807070 0.438390 0.929868
Zn5   Zn    Zn3+2 0.131340 0.219220 0.438450 0.929878
Zn6   Zn    Zn3+2 0.868660 0.780780 0.561550 0.929878
Zn7   Zn    Zn3+2 0.280790 0.368660 0.561580 0.929778
Zn8   Zn    Zn3+2 0.719210 0.631340 0.438420 0.929778

loop_
_geom_bond_atom_site_label_1
_geom_bond_atom_site_label_2
_ccdc_geom_bond_type
C25   C31   T    
C4    C66   S    
C63   C65   S    
O22   Zn7   S    
C26   C32   T    
C6    C45   S    
O19   Zn2   S    
C27   C29   S    
C24   H31   S    
C14   C18   S    
C5    C56   S    
O26   Zn5   S    
C24   C27   S    
C58   O14   A    
C17   O6    A    
C47   C49   S    
C20   C30   S    
C15   C19   S    
C46   C49   S    
C11   C19   S    
C59   C64   S    
C33   C39   S    
C13   C18   S    
C33   C42   S    
C15   C53   S    
O1    Zn3   S    
C44   H9    S    
C22   C29   S    
C38   C42   S    
C11   C14   S    
O12   Zn4   S    
C46   C52   S    
C34   C62   S    
C33   C36   S    
C60   C62   S    
C27   H35   S    
C37   C42   S    
C61   C63   S    
C48   H8    S    
C62   C64   S    
C7    C68   T    
C60   H14   S    
C48   C51   S    
C39   C55   S    
C49   C51   S    
C41   O8    A    
C20   H32   S    
O5    Zn1   S    
C50   C52   S    
C22   H23   S    
C1    O24   A    
O6    Zn2   S    
C16   C68   S    
O23   Zn8   S    
O14   Zn7   S    
C16   O26   A    
C9    H27   S    
O12   Zn8   S    
C44   C47   S    
O1    Zn5   S    
C21   H33   S    
C11   H25   S    
C43   H6    S    
C23   C63   S    
C14   C54   S    
C22   C28   S    
C37   H2    S    
C4    C56   S    
C2    C17   S    
C1    C25   S    
O13   Zn4   S    
C34   C65   S    
C41   C49   S    
C19   H30   S    
C53   O9    A    
C16   O5    A    
C40   O7    A    
C4    H22   S    
C55   O16   A    
C59   O19   A    
C23   C60   S    
C40   O20   A    
C46   C48   S    
C58   O18   A    
C12   O25   A    
C41   O21   A    
C45   H20   S    
O1    Zn1   S    
C61   H15   S    
C12   O4    A    
O7    Zn3   S    
C57   O17   A    
C39   C43   S    
C23   H16   S    
O11   Zn3   S    
C21   C29   S    
C3    C45   S    
C34   C61   S    
C62   H1    S    
C12   C26   S    
C3    H24   S    
C34   H17   S    
O3    Zn7   S    
C61   C64   S    
C46   H10   S    
C66   H18   S    
C38   C57   S    
C5    C7    S    
C58   C65   S    
O12   Zn2   S    
C10   H28   S    
C10   C19   S    
C35   C38   S    
C48   C50   S    
C9    C11   S    
C1    O3    A    
C44   C51   S    
C4    C6    S    
C23   C64   S    
C18   H29   S    
C21   C28   S    
C20   C22   S    
C60   C65   S    
C13   C15   S    
C10   C14   S    
C24   C30   S    
O18   Zn1   S    
C35   C43   S    
C57   O13   A    
C44   C50   S    
C56   H21   S    
C42   H5    S    
C59   O15   A    
C35   C37   S    
O15   Zn8   S    
C3    C67   S    
O8    Zn4   S    
C5    C66   S    
C3    C5    S    
C10   C13   S    
C35   H4    S    
C6    C8    S    
C47   C52   S    
O12   Zn6   S    
C20   C27   S    
C63   H12   S    
C56   C67   S    
C54   O23   A    
C67   H19   S    
C13   H26   S    
C36   H36   S    
O16   Zn5   S    
C36   C38   S    
C9    C15   S    
C47   H7    S    
C28   C30   S    
C37   C39   S    
C6    C67   S    
C17   O2    A    
C30   C32   S    
O21   Zn2   S    
C55   O11   A    
C40   C50   S    
C54   O10   A    
O2    Zn6   S    
O17   Zn6   S    
C52   H13   S    
C51   H11   S    
C53   O22   A    
C33   H3    S    
O1    Zn7   S    
O25   Zn4   S    
C28   H34   S    
C9    C18   S    
O20   Zn1   S    
C29   C31   S    
O9    Zn5   S    
C21   C24   S    
C2    C8    T    
C45   C66   S    
O10   Zn6   S    
C36   C43   S    
O24   Zn3   S    
O4    Zn8   S    
