data_mof_unit_23406.cif
_audit_creation_date              2012-12-10T17:03:25-0500
_audit_creation_method            fapswitch 2.2
_symmetry_space_group_name_H-M    P1
_symmetry_Int_Tables_number       1
_space_group_crystal_system       triclinic
_cell_length_a                    14.980298
_cell_length_b                    11.056475
_cell_length_c                    9.876357
_cell_angle_alpha                 112.214603
_cell_angle_beta                  98.124434
_cell_angle_gamma                 90.945275
_cell_volume                      1494.82483089

loop_
_atom_site_label
_atom_site_type_symbol
_atom_type_description
_atom_site_fract_x
_atom_site_fract_y
_atom_site_fract_z
_atom_type_partial_charge
C1    C     C_R   0.494444 0.253107 0.438870 0.816494
C2    C     C_R   0.506817 0.746838 0.561083 0.819767
C3    C     C_R   0.040715 0.265648 0.459037 0.170723
C4    C     C_R   0.959283 0.734345 0.540854 0.171515
C5    C     C_2   0.494662 0.111345 0.401515 0.009697
C6    C     C_2   0.511579 0.888634 0.598427 -0.007975
C7    C     C_2   0.518679 0.070063 0.512364 -0.156053
C8    C     C_2   0.518184 0.931276 0.489270 -0.161165
C9    C     C_2   0.504917 0.514390 0.082986 0.116148
C10   C     C_2   0.490676 0.492451 0.919115 0.105175
C11   C     C_R   0.329230 0.500928 0.501599 0.790953
C12   C     C_R   0.670772 0.499084 0.498397 0.785472
C13   C     C_R   0.815500 0.613832 0.518256 -0.225159
C14   C     C_R   0.184493 0.386154 0.481601 -0.239549
C15   C     C_R   0.766653 0.498302 0.494936 -0.046514
C16   C     C_R   0.233349 0.501702 0.505020 -0.056669
C17   C     C_R   0.808527 0.382551 0.469802 -0.209290
C18   C     C_R   0.191477 0.617454 0.530167 -0.223934
C19   C     C_R   0.902052 0.380133 0.468596 0.077630
C20   C     C_R   0.097948 0.619863 0.531323 0.078334
C21   C     C_R   0.953012 0.499385 0.497768 -0.039141
C22   C     C_R   0.046985 0.500606 0.502117 -0.038201
C23   C     C_R   0.909172 0.616694 0.518667 0.083428
C24   C     C_R   0.090824 0.383294 0.481201 0.082266
C25   C     C_R   0.945137 0.261671 0.440224 0.170318
C26   C     C_R   0.054862 0.738326 0.559704 0.170376
Cu1   Cu    Cu3+1 0.515770 0.521810 0.644910 0.963660
Cu2   Cu    Cu3+1 0.484230 0.478190 0.355090 0.965243
H1    H     H_    0.779272 0.701430 0.539873 0.132579
H2    H     H_    0.220715 0.298547 0.459931 0.135832
H3    H     H_    0.767096 0.295895 0.454757 0.139217
H4    H     H_    0.232914 0.704119 0.545264 0.140670
H5    H     H_    0.521289 0.861057 0.378283 0.165226
H6    H     H_    0.537455 0.141226 0.624979 0.180161
H7    H     H_    0.432993 0.428493 0.847348 0.126283
H8    H     H_    0.549687 0.597333 0.159868 0.121908
N1    N     N_2   0.460520 0.445420 0.137370 -0.005490
N2    N     N_2   0.539480 0.554580 0.862630 -0.006898
O1    O     O_R   0.508410 0.332340 0.577400 -0.602259
O2    O     O_R   0.491590 0.667660 0.422600 -0.616254
O3    O     O_R   0.481780 0.295500 0.332650 -0.555303
O4    O     O_R   0.518220 0.704500 0.667350 -0.596458
O5    O     O_R   0.383570 0.518390 0.622380 -0.592934
O6    O     O_R   0.616430 0.481610 0.377620 -0.574306
O7    O     O_R   0.356940 0.481550 0.377630 -0.596309
O8    O     O_R   0.643060 0.518450 0.622370 -0.553441
C27   C     C_3   0.888713 0.131613 0.382556 -0.890873
H9    H     H_    0.831849 0.129155 0.296021 0.228204
H10   H     H_    0.926547 0.046805 0.325386 0.245287
H11   H     H_    0.861746 0.117197 0.474907 0.237002
C28   C     C_3   0.111282 0.868390 0.617429 -0.894868
H12   H     H_    0.168145 0.870828 0.703957 0.227712
H13   H     H_    0.138250 0.882847 0.525103 0.236694
H14   H     H_    0.073444 0.953183 0.674629 0.244360
C29   C     C_3   0.089912 0.147755 0.463352 -0.892976
H15   H     H_    0.047411 0.077358 0.486169 0.241580
H16   H     H_    0.115391 0.097226 0.357307 0.233401
H17   H     H_    0.147193 0.178880 0.556811 0.228539
C30   C     C_3   0.910092 0.852253 0.536575 -0.888213
H18   H     H_    0.952601 0.922669 0.513802 0.240970
H19   H     H_    0.852815 0.821154 0.443109 0.231705
H20   H     H_    0.884603 0.902755 0.642618 0.233219
C31   C     C_3   0.506498 0.981827 0.755364 -0.844821
H21   H     H_    0.495368 0.929189 0.828122 0.233420
H22   H     H_    0.570617 0.044802 0.804020 0.238600
H23   H     H_    0.449124 0.044215 0.755396 0.251591
C32   C     C_3   0.467692 0.016386 0.242225 -0.881893
H24   H     H_    0.446265 0.067045 0.166517 0.254404
H25   H     H_    0.525874 0.959647 0.203045 0.225783
H26   H     H_    0.410016 0.948124 0.233759 0.235023
O9    O     O_3   0.619537 0.610177 0.947764 -0.508301
C33   C     C_3   0.632735 0.735443 0.945634 -0.115416
H27   H     H_    0.569880 0.788407 0.955799 0.130122
H28   H     H_    0.660690 0.729727 0.845555 0.185976
H29   H     H_    0.683650 0.794219 0.042830 0.120650
O10   O     O_3   0.423978 0.328017 0.036317 -0.519238
C34   C     C_3   0.337025 0.307453 0.065046 -0.131609
H30   H     H_    0.299030 0.397141 0.090348 0.146949
H31   H     H_    0.340309 0.269636 0.154539 0.181957
H32   H     H_    0.298294 0.231006 0.963889 0.119284

loop_
_geom_bond_atom_site_label_1
_geom_bond_atom_site_label_2
_ccdc_geom_bond_type
C29   H15   S    
C31   H22   S    
C5    C32   S    
C7    C8    S    
C27   H10   S    
C34   H30   S    
C1    C5    S    
C13   H1    S    
C19   C21   A    
Cu2   O2    S    
Cu1   N2    S    
Cu2   O3    S    
C13   C23   A    
C14   C24   A    
C3    C29   S    
Cu1   O1    S    
C9    H8    S    
C11   O5    A    
C10   H7    S    
C9    C10   S    
C25   C27   S    
C18   C20   A    
C31   H23   S    
C30   H18   S    
C21   C22   A    
C3    C24   A    
C2    C6    S    
C14   H2    S    
C33   H29   S    
C27   H11   S    
C34   H31   S    
Cu2   O7    S    
C30   H19   S    
C32   H24   S    
C3    C25   A    
O10   C34   S    
C33   H28   S    
C5    C7    D    
C4    C23   A    
C6    C8    D    
Cu2   O6    S    
C28   H12   S    
C28   H13   S    
C12   O8    A    
C6    C31   S    
C2    O2    A    
C11   C16   S    
C27   H9    S    
C12   C15   S    
C9    N1    D    
Cu1   O8    S    
C1    O3    A    
N1    O10   S    
C20   C22   A    
C21   C23   A    
C13   C15   A    
C17   H3    S    
C7    H6    S    
C22   C24   A    
C11   O7    A    
C18   H4    S    
C34   H32   S    
C15   C17   A    
N2    O9    S    
C30   H20   S    
C33   H27   S    
C4    C26   A    
C10   N2    D    
C28   H14   S    
C32   H26   S    
C29   H16   S    
O9    C33   S    
C12   O6    A    
C26   C28   S    
Cu1   O4    S    
C20   C26   A    
Cu2   N1    S    
C2    O4    A    
C4    C30   S    
C17   C19   A    
C14   C16   A    
C8    H5    S    
C19   C25   A    
C1    O1    A    
C31   H21   S    
Cu1   O5    S    
C16   C18   A    
C29   H17   S    
Cu1   Cu2   S    
C32   H25   S    
