data_mof_unit_46169.cif
_audit_creation_date              2013-03-05T15:51:15-0500
_audit_creation_method            fapswitch 2.2
_symmetry_space_group_name_H-M    P1
_symmetry_Int_Tables_number       1
_space_group_crystal_system       triclinic
_cell_length_a                    19.000358
_cell_length_b                    11.017263
_cell_length_c                    18.745083
_cell_angle_alpha                 90.014173
_cell_angle_beta                  89.24028
_cell_angle_gamma                 89.354441
_cell_volume                      3923.3503149

loop_
_atom_site_label
_atom_site_type_symbol
_atom_site_description
_atom_site_fract_x
_atom_site_fract_y
_atom_site_fract_z
_atom_type_partial_charge
O1    O     O_R   0.787520 0.042810 0.170440 -0.532294
O2    O     O_R   0.212480 0.042810 0.829560 -0.516030
O3    O     O_R   0.287520 0.542810 0.170440 -0.533911
O4    O     O_R   0.712480 0.542810 0.829560 -0.519566
O5    O     O_R   0.765640 0.292100 0.175020 -0.498145
O6    O     O_R   0.234360 0.292100 0.824980 -0.499021
O7    O     O_R   0.265640 0.792100 0.175020 -0.497655
O8    O     O_R   0.734360 0.792100 0.824980 -0.501853
C1    C     C_R   0.711514 0.329001 0.138695 0.553120
C2    C     C_R   0.269404 0.375966 0.854029 0.543063
C3    C     C_R   0.211593 0.829065 0.138691 0.554974
C4    C     C_R   0.769238 0.876887 0.853752 0.542773
O9    O     O_R   0.670190 0.408840 0.168540 -0.507330
O10   O     O_R   0.329810 0.408840 0.831460 -0.517410
O11   O     O_R   0.170190 0.908840 0.168540 -0.508186
O12   O     O_R   0.829810 0.908840 0.831460 -0.519033
O13   O     O_R   0.556620 0.251410 0.175160 -0.530620
O14   O     O_R   0.443380 0.251410 0.824840 -0.504044
O15   O     O_R   0.056620 0.751410 0.175160 -0.530050
O16   O     O_R   0.943380 0.751410 0.824840 -0.504469
C5    C     C_R   0.532481 0.154904 0.146369 0.520412
C6    C     C_R   0.468769 0.156222 0.852776 0.542060
C7    C     C_R   0.031507 0.655168 0.146947 0.521433
C8    C     C_R   0.968422 0.656193 0.853089 0.540454
O17   O     O_R   0.545960 0.049620 0.170320 -0.518654
O18   O     O_R   0.454040 0.049620 0.829680 -0.521373
O19   O     O_R   0.045960 0.549620 0.170320 -0.522384
O20   O     O_R   0.954040 0.549620 0.829680 -0.521947
O21   O     O_R   0.681390 0.958010 0.176690 -0.492263
O22   O     O_R   0.318610 0.958010 0.823310 -0.498619
O23   O     O_R   0.181390 0.458010 0.176690 -0.498086
O24   O     O_R   0.818610 0.458010 0.823310 -0.497781
C9    C     C_R   0.740665 0.974273 0.145763 0.535980
C10   C     C_R   0.257899 0.967597 0.851958 0.546341
C11   C     C_R   0.242188 0.470280 0.147570 0.538947
C12   C     C_R   0.757727 0.467153 0.851769 0.537500
O25   O     O_R   0.787510 0.044390 0.330970 -0.502990
O26   O     O_R   0.212490 0.044390 0.669030 -0.487052
O27   O     O_R   0.287510 0.544390 0.330970 -0.503440
O28   O     O_R   0.712490 0.544390 0.669030 -0.486173
O29   O     O_R   0.765630 0.293570 0.323840 -0.491616
O30   O     O_R   0.234370 0.293570 0.676160 -0.490783
O31   O     O_R   0.265630 0.793570 0.323840 -0.491514
O32   O     O_R   0.734370 0.793570 0.676160 -0.489913
C13   C     C_R   0.729425 0.377997 0.352617 0.583045
C14   C     C_R   0.270105 0.377104 0.646966 0.546257
C15   C     C_R   0.229424 0.877995 0.352618 0.583463
C16   C     C_R   0.770103 0.877108 0.646968 0.546867
O33   O     O_R   0.670190 0.410420 0.329080 -0.477940
O34   O     O_R   0.329810 0.410420 0.670920 -0.497791
O35   O     O_R   0.170190 0.910420 0.329080 -0.477941
O36   O     O_R   0.829810 0.910420 0.670920 -0.497477
O37   O     O_R   0.556610 0.252880 0.323980 -0.489042
O38   O     O_R   0.443390 0.252880 0.676020 -0.446292
O39   O     O_R   0.056610 0.752880 0.323980 -0.489304
O40   O     O_R   0.943390 0.752880 0.676020 -0.445815
C17   C     C_R   0.529811 0.158067 0.351881 0.545701
C18   C     C_R   0.434858 0.153866 0.639513 0.545797
C19   C     C_R   0.029809 0.658068 0.351879 0.545495
C20   C     C_R   0.934859 0.653866 0.639513 0.546174
O41   O     O_R   0.545950 0.051210 0.330860 -0.458502
O42   O     O_R   0.454050 0.051210 0.669140 -0.457668
O43   O     O_R   0.045950 0.551210 0.330860 -0.458454
O44   O     O_R   0.954050 0.551210 0.669140 -0.457442
O45   O     O_R   0.681390 0.959480 0.325510 -0.438255
O46   O     O_R   0.318610 0.959480 0.674490 -0.464215
O47   O     O_R   0.181390 0.459480 0.325510 -0.438270
O48   O     O_R   0.818610 0.459480 0.674490 -0.463608
C21   C     C_R   0.742117 0.969100 0.353613 0.559411
C22   C     C_R   0.260042 0.970620 0.645215 0.556444
C23   C     C_R   0.242117 0.469098 0.353612 0.559042
C24   C     C_R   0.760042 0.470621 0.645216 0.557206
Cr1   Cr    Cr6+3 0.772010 0.169670 0.250090 1.057651
Cr2   Cr    Cr6+3 0.227990 0.169670 0.749910 1.061977
Cr3   Cr    Cr6+3 0.272010 0.669670 0.250090 1.058024
Cr4   Cr    Cr6+3 0.727990 0.669670 0.749910 1.059297
Cr5   Cr    Cr6+3 0.615000 0.323260 0.249260 1.066459
Cr6   Cr    Cr6+3 0.385000 0.323260 0.750740 1.080856
Cr7   Cr    Cr6+3 0.115000 0.823260 0.249260 1.066108
Cr8   Cr    Cr6+3 0.885000 0.823260 0.750740 1.079228
Cr9   Cr    Cr6+3 0.616710 0.010760 0.250840 1.103883
Cr10  Cr    Cr6+3 0.383290 0.010760 0.749160 1.092588
Cr11  Cr    Cr6+3 0.116710 0.510760 0.250840 1.099110
Cr12  Cr    Cr6+3 0.883290 0.510760 0.749160 1.091005
O49   O     O_3   0.667900 0.167900 0.250060 -0.304743
O50   O     O_3   0.332100 0.167900 0.749940 -0.305947
O51   O     O_3   0.167900 0.667900 0.250060 -0.302744
O52   O     O_3   0.832100 0.667900 0.749940 -0.306085
H1    H     H_    0.540012 0.971996 0.053576 0.152366
H2    H     H_    0.528566 0.979109 0.927753 0.141231
H3    H     H_    0.025021 0.469023 0.056673 0.139199
H4    H     H_    0.019788 0.476294 0.930822 0.133750
C25   C     C_R   0.499749 0.169565 0.923624 -0.002060
C26   C     C_R   0.508168 0.160376 0.072682 -0.001345
C27   C     C_R   0.997671 0.669037 0.924817 -0.001224
C28   C     C_R   0.004330 0.661293 0.074191 -0.001056
C29   C     C_R   0.491245 0.278666 0.964383 0.024244
C30   C     C_R   0.488381 0.270702 0.039808 0.005490
C31   C     C_R   0.990604 0.779093 0.965034 0.023613
C32   C     C_R   0.987543 0.772463 0.040605 0.005797
C33   C     C_R   0.523309 0.057572 0.030499 -0.151482
C34   C     C_R   0.519497 0.062315 0.957530 -0.165780
C35   C     C_R   0.014314 0.556341 0.032808 -0.154872
C36   C     C_R   0.013145 0.560796 0.959808 -0.168304
C37   C     C_R   0.486403 0.395478 0.932968 -0.085191
C38   C     C_R   0.468087 0.374225 0.080016 -0.092413
C39   C     C_R   0.987404 0.895561 0.932997 -0.087829
C40   C     C_R   0.969328 0.877587 0.080287 -0.094381
C41   C     C_R   0.973867 0.999400 0.973718 -0.141542
C42   C     C_R   0.963076 0.989980 0.046924 -0.128258
C43   C     C_R   0.471394 0.498097 0.974243 -0.139101
C44   C     C_R   0.460438 0.486953 0.047336 -0.125578
H5    H     H_    0.497960 0.410739 0.877180 0.152152
H6    H     H_    0.458190 0.369198 0.136865 0.147675
H7    H     H_    0.999050 0.909533 0.877119 0.152562
H8    H     H_    0.959615 0.873853 0.137212 0.147772
H9    H     H_    0.971480 0.087543 0.948279 0.107619
H10   H     H_    0.951013 0.070329 0.078190 0.115890
H11   H     H_    0.467805 0.586543 0.949307 0.106820
H12   H     H_    0.447028 0.566226 0.079031 0.117000
C45   C     C_R   0.745273 0.924003 0.921900 0.019963
C46   C     C_R   0.221772 0.842799 0.061925 0.011852
C47   C     C_R   0.250917 0.407978 0.926266 0.020027
C48   C     C_R   0.721379 0.342597 0.061845 0.010621
C49   C     C_R   0.697174 0.859708 0.964468 0.004332
C50   C     C_R   0.286981 0.822120 0.028632 0.000398
C51   C     C_R   0.223503 0.317484 0.971075 0.032597
C52   C     C_R   0.786265 0.320572 0.028270 0.004990
C53   C     C_R   0.695997 0.874189 0.037781 0.009525
C54   C     C_R   0.297357 0.849912 0.957383 0.005428
C55   C     C_R   0.224087 0.330396 0.044335 0.008074
C56   C     C_R   0.796510 0.347855 0.956898 0.007510
C57   C     C_R   0.786323 0.024897 0.027043 -0.143023
C58   C     C_R   0.174565 0.902078 0.946988 -0.155456
C59   C     C_R   0.289583 0.515028 0.029956 -0.141176
C60   C     C_R   0.674144 0.403202 0.947101 -0.152261
C61   C     C_R   0.784482 0.016018 0.953439 -0.139212
C62   C     C_R   0.164336 0.874523 0.019145 -0.158469
C63   C     C_R   0.286318 0.505026 0.956771 -0.143632
C64   C     C_R   0.663996 0.375774 0.019308 -0.154073
C65   C     C_3   0.684529 0.726254 0.970512 -0.249478
C66   C     C_3   0.358299 0.865085 0.048582 -0.263516
C67   C     C_3   0.151928 0.262287 0.973522 -0.271276
C68   C     C_3   0.857838 0.362615 0.047875 -0.267247
C69   C     C_3   0.682342 0.742893 0.050746 -0.270906
C70   C     C_3   0.369675 0.896168 0.970484 -0.257841
C71   C     C_3   0.153864 0.273854 0.054274 -0.273583
C72   C     C_3   0.869027 0.393021 0.969697 -0.262718
C73   C     C_R   0.745349 0.948145 0.070287 0.019725
C74   C     C_R   0.242760 0.899857 0.917057 0.017562
C75   C     C_R   0.254079 0.432573 0.074722 0.024864
C76   C     C_R   0.742203 0.399135 0.916784 0.012355
H13   H     H_    0.821381 0.090245 0.050003 0.143709
H14   H     H_    0.130614 0.936940 0.916859 0.137932
H15   H     H_    0.316713 0.592333 0.051179 0.144260
H16   H     H_    0.630352 0.439542 0.917297 0.140687
H17   H     H_    0.820193 0.071373 0.922183 0.144542
H18   H     H_    0.112768 0.887451 0.042807 0.153433
H19   H     H_    0.313384 0.571368 0.924036 0.140815
H20   H     H_    0.612608 0.390051 0.043188 0.153657
H21   H     H_    0.152780 0.166534 0.954982 0.159257
H22   H     H_    0.892181 0.286971 0.066399 0.129952
H23   H     H_    0.730470 0.670647 0.952212 0.157439
H24   H     H_    0.392877 0.789713 0.067072 0.130448
H25   H     H_    0.633006 0.699801 0.948171 0.141614
H26   H     H_    0.356330 0.946208 0.083920 0.161574
H27   H     H_    0.111260 0.320958 0.948457 0.126840
H28   H     H_    0.856374 0.444001 0.083016 0.157557
H29   H     H_    0.629282 0.727808 0.074609 0.149087
H30   H     H_    0.373793 0.995398 0.960758 0.160396
H31   H     H_    0.113727 0.337256 0.076657 0.153873
H32   H     H_    0.873264 0.492118 0.959701 0.157194
H33   H     H_    0.726356 0.695958 0.078421 0.150118
H34   H     H_    0.411038 0.839142 0.944081 0.136412
H35   H     H_    0.157574 0.184697 0.081833 0.161345
H36   H     H_    0.910000 0.335295 0.943198 0.135613
C77   C     C_R   0.455730 0.169855 0.565686 0.090363
C78   C     C_R   0.500925 0.171658 0.423136 0.064092
C79   C     C_R   0.955731 0.669857 0.565685 0.090247
C80   C     C_R   0.000923 0.671658 0.423134 0.064214
C81   C     C_R   0.525753 0.191938 0.548180 0.116365
C82   C     C_R   0.547945 0.187417 0.478386 0.008659
C83   C     C_R   0.025755 0.691932 0.548179 0.116330
C84   C     C_R   0.047945 0.687406 0.478383 0.008738
C85   C     C_R   0.428408 0.175034 0.438956 -0.082808
C86   C     C_R   0.405650 0.172633 0.510841 -0.110020
C87   C     C_R   0.928407 0.675043 0.438956 -0.082861
C88   C     C_R   0.905650 0.672642 0.510841 -0.110003
C89   C     C_3   0.591631 0.134700 0.574507 -0.245009
C90   C     C_3   0.613624 0.120036 0.496685 -0.288844
C91   C     C_3   0.091628 0.634665 0.574499 -0.245094
C92   C     C_3   0.113619 0.620008 0.496676 -0.288725
H37   H     H_    0.390209 0.171323 0.396680 0.133284
H38   H     H_    0.350002 0.165824 0.523338 0.088921
H39   H     H_    0.890207 0.671337 0.396680 0.133045
H40   H     H_    0.850002 0.665839 0.523339 0.088918
H41   H     H_    0.081119 0.550787 0.604115 0.193200
H42   H     H_    0.162775 0.667325 0.482008 0.123068
H43   H     H_    0.581133 0.050822 0.604128 0.193237
H44   H     H_    0.662778 0.167358 0.482015 0.123066
H45   H     H_    0.624954 0.199441 0.603783 0.177967
H46   H     H_    0.610846 0.025668 0.477553 0.204685
H47   H     H_    0.124964 0.699382 0.603777 0.177912
H48   H     H_    0.110834 0.525643 0.477540 0.204796
C93   C     C_R   0.755228 0.903124 0.572385 -0.042371
C94   C     C_R   0.242404 0.902124 0.426958 -0.022975
C95   C     C_R   0.255233 0.403111 0.572381 -0.042243
C96   C     C_R   0.742406 0.402130 0.426957 -0.022954
C97   C     C_R   0.812424 0.944567 0.533631 -0.055811
C98   C     C_R   0.183408 0.898647 0.471847 -0.102145
C99   C     C_R   0.312430 0.444551 0.533626 -0.055762
C100  C     C_R   0.683409 0.398664 0.471844 -0.102104
C101  C     C_R   0.813777 0.947465 0.460726 -0.004430
C102  C     C_R   0.189356 0.906392 0.544215 -0.057573
C103  C     C_R   0.313781 0.447454 0.460721 -0.004394
C104  C     C_R   0.689354 0.406410 0.544212 -0.057646
C105  C     C_R   0.700951 0.847882 0.459057 0.144733
C106  C     C_R   0.316042 0.886841 0.532455 0.140375
C107  C     C_R   0.200957 0.347868 0.459051 0.144870
C108  C     C_R   0.816042 0.386844 0.532454 0.140379
C109  C     C_R   0.698056 0.851978 0.535004 0.009866
C110  C     C_R   0.309883 0.888634 0.456973 0.027297
C111  C     C_R   0.198061 0.351963 0.534998 0.009882
C112  C     C_R   0.809884 0.388636 0.456972 0.027380
C113  C     C_3   0.846527 0.063924 0.541224 -0.178959
C114  C     C_3   0.117172 0.972623 0.470993 -0.160659
C115  C     C_3   0.346540 0.563903 0.541220 -0.178981
C116  C     C_3   0.617179 0.472651 0.470983 -0.160616
C117  C     C_3   0.852557 0.065903 0.460942 0.118383
C118  C     C_3   0.126736 0.987906 0.550525 0.127306
C119  C     C_3   0.352565 0.565888 0.460939 0.118377
C120  C     C_3   0.626741 0.487945 0.550514 0.127272
C121  C     C_R   0.755296 0.910775 0.422321 -0.031239
C122  C     C_R   0.254595 0.912344 0.575637 -0.040516
C123  C     C_R   0.255299 0.410767 0.422316 -0.031013
C124  C     C_R   0.754594 0.412351 0.575636 -0.040732
H49   H     H_    0.896752 0.058594 0.569996 0.264562
H50   H     H_    0.070898 0.918805 0.455596 0.211310
H51   H     H_    0.396767 0.558565 0.569989 0.264547
H52   H     H_    0.570907 0.418831 0.455582 0.211380
H53   H     H_    0.808332 0.132493 0.562435 0.124677
H54   H     H_    0.122748 0.058249 0.441168 0.222108
H55   H     H_    0.308349 0.632475 0.562436 0.124620
H56   H     H_    0.622761 0.558269 0.441152 0.222110
H57   H     H_    0.824403 0.144312 0.437266 0.136298
H58   H     H_    0.141995 0.079192 0.565579 0.170010
H59   H     H_    0.324412 0.644302 0.437268 0.136277
H60   H     H_    0.642012 0.579229 0.565562 0.169949
N1    N     N_R   0.647665 0.787498 0.419022 0.072891
O53   O     O_R   0.666165 0.722239 0.363822 -0.344337
O54   O     O_R   0.581426 0.814219 0.428825 -0.237954
N2    N     N_R   0.383325 0.860812 0.564430 0.107382
O55   O     O_R   0.387942 0.784977 0.617407 -0.324710
O56   O     O_R   0.440842 0.908611 0.539720 -0.272978
N3    N     N_R   0.147675 0.287477 0.419015 0.072958
O57   O     O_R   0.166180 0.222213 0.363818 -0.344280
O58   O     O_R   0.081435 0.314193 0.428813 -0.237888
N4    N     N_R   0.883324 0.360815 0.564430 0.107401
O59   O     O_R   0.887941 0.284981 0.617408 -0.324629
O60   O     O_R   0.940842 0.408613 0.539721 -0.272907
I1    I     I_    0.602465 0.806528 0.591272 -0.168203
I2    I     I_    0.400831 0.875722 0.387455 -0.143297
I3    I     I_    0.102470 0.306505 0.591262 -0.168946
I4    I     I_    0.900833 0.375719 0.387455 -0.144289
N5    N     N_R   0.925304 0.051790 0.435417 0.111469
O61   O     O_R   0.940665 0.976919 0.383635 -0.333845
O62   O     O_R   0.973146 0.125982 0.457417 -0.233896
N6    N     N_R   0.070888 0.937802 0.595299 0.086483
O63   O     O_R   0.084147 0.908393 0.661022 -0.326913
O64   O     O_R   0.005784 0.951265 0.576477 -0.327389
N7    N     N_R   0.425310 0.551774 0.435409 0.111492
O65   O     O_R   0.440680 0.476836 0.383668 -0.333720
O66   O     O_R   0.473150 0.625985 0.457386 -0.233918
N8    N     N_R   0.570884 0.437873 0.595290 0.086513
O67   O     O_R   0.584110 0.408607 0.661038 -0.326433
O68   O     O_R   0.505790 0.451170 0.576409 -0.327518

loop_
_geom_bond_atom_site_label_1
_geom_bond_atom_site_label_2
_geom_bond_distance
_ccdc_geom_bond_type
C18   O42   1.310311 A    
C115  C119  1.507908 S    
O4    C12   1.265188 A    
C57   C61   1.384096 A    
C33   C34   1.371664 A    
C114  H50   1.107376 S    
C81   C89   1.485506 S    
O39   C19   1.276377 A    
O32   C16   1.269618 A    
O20   Cr12  2.082059 S    
C113  H49   1.103362 S    
O29   C13   1.266833 A    
C66   C70   1.516803 S    
C99   C103  1.366894 A    
C43   C44   1.388818 A    
C108  C112  1.421409 A    
C68   C72   1.516094 S    
C42   H10   1.082250 S    
N3    O58   1.299962 A    
C29   C30   1.416964 A    
C10   C74   1.457669 S    
O1    C9    1.265933 A    
C66   H26   1.112332 S    
C112  I4    2.153893 S    
C118  N6    1.457716 S    
C81   C82   1.369963 A    
O45   C21   1.280202 A    
C20   C79   1.445895 S    
O7    C3    1.301307 A    
C93   C109  1.422090 A    
C91   H41   1.097039 S    
N1    O53   1.302098 A    
C72   H36   1.111622 S    
C107  N3    1.437325 S    
C68   H28   1.112360 S    
C57   H13   1.079599 S    
O24   C12   1.270395 A    
Cr1   O49   1.978451 S    
C37   H5    1.079299 S    
C19   C80   1.444407 S    
O40   C20   1.300432 A    
C116  H52   1.107375 S    
C109  I1    2.152197 S    
C66   H24   1.111401 S    
C17   C78   1.444408 S    
C60   H16   1.081517 S    
C27   C31   1.431693 A    
C114  H54   1.102122 S    
O47   C23   1.280204 A    
C54   C70   1.494233 S    
C5    C26   1.463313 S    
C50   C54   1.382378 A    
C113  H53   1.111438 S    
N7    O65   1.301634 A    
C58   C74   1.405109 A    
C47   C63   1.395959 A    
O8    Cr4   1.954862 S    
C1    C48   1.458213 S    
O23   Cr11  1.928268 S    
C7    C28   1.465998 S    
C43   H11   1.082694 S    
N8    O67   1.301021 A    
O30   C14   1.269620 A    
C45   C61   1.400209 A    
O32   Cr4   1.946641 S    
C77   C81   1.390237 A    
C1    O9    1.294496 A    
O44   Cr12  2.053407 S    
C88   H40   1.083371 S    
C21   C121  1.462775 S    
C60   C76   1.405841 A    
C45   C49   1.403293 A    
C78   C85   1.405618 A    
C3    O11   1.294955 A    
O41   Cr9   2.046660 S    
H2    C34   1.084069 S    
C4    C45   1.444837 S    
C4    O12   1.272611 A    
C26   C33   1.406065 A    
C49   C65   1.496550 S    
C119  N7    1.463281 S    
C16   C93   1.457895 S    
C54   C74   1.399437 A    
C58   H14   1.081320 S    
C80   C84   1.388821 A    
C89   H43   1.097044 S    
C84   C92   1.488844 S    
O6    Cr2   1.954862 S    
C100  C104  1.365459 A    
C115  H55   1.111436 S    
C7    O19   1.271154 A    
O3    Cr3   2.060941 S    
N5    O61   1.301715 A    
Cr4   O52   1.978009 S    
C53   C69   1.491898 S    
O2    Cr2   2.065939 S    
C60   C64   1.398255 A    
C48   C52   1.395534 A    
C117  H57   1.106989 S    
C46   C50   1.396254 A    
O2    C10   1.265434 A    
C37   C43   1.394491 A    
C32   C40   1.413567 A    
Cr5   O49   1.975313 S    
O21   C9    1.274325 A    
C99   C115  1.480158 S    
Cr8   O52   1.994836 S    
C5    O17   1.268554 A    
C95   C99   1.381184 A    
C39   C41   1.394750 A    
C11   C75   1.441438 S    
C102  C122  1.381647 A    
C91   H47   1.109033 S    
C101  C121  1.395546 A    
C52   C56   1.383028 A    
Cr7   O51   1.975313 S    
C96   C100  1.393546 A    
C110  I2    2.153879 S    
C104  C120  1.486047 S    
C48   C64   1.404410 A    
C106  C110  1.421408 A    
C79   C83   1.390246 A    
O31   Cr3   1.944244 S    
C14   C95   1.457904 S    
O24   Cr12  1.936803 S    
C69   H29   1.111729 S    
O30   Cr2   1.946641 S    
N1    O54   1.299960 A    
O22   C10   1.269237 A    
O26   C22   1.284031 A    
C90   H44   1.106302 S    
C91   C92   1.520183 S    
O48   Cr12  1.962015 S    
C107  C123  1.420569 A    
C57   C73   1.405930 A    
C94   C98   1.393553 A    
C106  C122  1.436903 A    
C105  C109  1.424652 A    
C2    C47   1.437246 S    
C2    O10   1.274366 A    
C59   H15   1.079128 S    
C105  C121  1.420579 A    
C44   H12   1.082305 S    
O16   Cr8   1.951409 S    
C95   C111  1.422102 A    
C90   H46   1.101767 S    
C15   O35   1.262211 A    
C79   C88   1.410177 A    
C55   C75   1.392531 A    
C89   H45   1.109039 S    
O27   C23   1.272271 A    
C98   C102  1.365455 A    
O29   Cr1   1.944244 S    
O11   Cr7   2.063735 S    
C50   C66   1.492616 S    
O13   C5    1.284271 A    
C77   C86   1.410177 A    
C24   C124  1.458984 S    
O43   Cr11  2.046660 S    
O48   C24   1.252075 A    
C120  H60   1.088022 S    
C56   C72   1.492566 S    
C41   H9    1.082719 S    
C108  N4    1.444977 S    
C83   C84   1.369970 A    
C71   H31   1.106762 S    
O6    C2    1.271544 A    
O21   Cr9   1.928268 S    
C111  I3    2.152184 S    
C80   C87   1.405618 A    
C120  N8    1.457732 S    
O46   Cr10  1.962015 S    
O39   Cr7   1.942309 S    
O3    C11   1.260681 A    
C62   H18   1.078107 S    
C47   C51   1.404054 A    
C31   C32   1.418948 A    
C116  H56   1.102105 S    
C93   C97   1.381176 A    
O40   Cr8   1.932024 S    
O8    C4    1.275070 A    
C39   H7    1.079115 S    
O13   Cr5   1.961245 S    
Cr12  O52   1.976138 S    
C92   H48   1.101773 S    
C68   H22   1.111227 S    
C103  C123  1.395542 A    
C51   C67   1.496127 S    
O47   Cr11  1.954225 S    
Cr2   O50   1.978009 S    
C55   C71   1.488366 S    
C70   H34   1.111643 S    
C52   C68   1.492082 S    
O35   Cr7   2.079432 S    
C46   C62   1.403897 A    
C78   C82   1.388826 A    
C118  H58   1.088004 S    
C115  H51   1.103373 S    
Cr3   O51   1.978451 S    
O14   Cr6   1.951409 S    
C38   H6    1.081202 S    
C65   H23   1.111233 S    
C13   C96   1.443525 S    
C23   C123  1.462761 S    
C70   H30   1.111843 S    
C49   C53   1.383296 A    
O37   Cr5   1.942309 S    
C104  C124  1.381660 A    
O25   C21   1.272273 A    
O23   C11   1.279660 A    
C8    C27   1.469068 S    
C3    C46   1.457521 S    
C108  C124  1.436913 A    
N3    O57   1.302098 A    
C105  N1    1.437319 S    
C117  N5    1.463279 S    
C25   C29   1.430572 A    
N4    O60   1.298389 A    
C116  C120  1.513837 S    
C101  C117  1.505768 S    
C27   C36   1.391539 A    
O15   C7    1.284316 A    
N2    O56   1.298387 A    
O26   Cr2   2.076134 S    
N7    O66   1.300367 A    
O25   Cr1   2.072217 S    
O37   C17   1.276375 A    
O22   Cr10  1.936803 S    
O28   C24   1.284023 A    
C15   C94   1.443525 S    
H1    C33   1.083435 S    
N6    O64   1.297738 A    
C25   C34   1.391983 A    
C106  N2    1.444975 S    
C86   H38   1.083371 S    
O5    Cr1   1.953460 S    
C119  H59   1.106991 S    
C8    O20   1.286851 A    
H3    C35   1.079441 S    
O17   Cr9   2.075975 S    
C83   C91   1.485524 S    
Cr11  O51   1.995253 S    
C58   C62   1.397856 A    
O7    Cr3   1.953460 S    
C40   C42   1.391965 A    
C17   O41   1.274249 A    
C65   C69   1.515039 S    
C96   C112  1.413270 A    
C31   C39   1.417904 A    
C14   O34   1.282993 A    
C19   O43   1.274251 A    
C30   C38   1.414037 A    
C61   H17   1.083764 S    
C97   C101  1.366895 A    
C20   O44   1.310316 A    
C22   C122  1.458993 S    
O1    Cr1   2.060941 S    
C65   H25   1.111732 S    
C40   H8    1.081356 S    
C56   C76   1.398915 A    
O14   C6    1.265822 A    
N4    O59   1.301156 A    
C69   H33   1.112540 S    
C87   H39   1.082759 S    
C29   C37   1.417966 A    
C67   C71   1.519997 S    
C97   C113  1.480149 S    
N5    O62   1.300399 A    
C114  C118  1.513835 S    
C41   C42   1.388882 A    
C64   H20   1.078594 S    
O9    Cr5   2.063735 S    
Cr10  O50   1.976138 S    
C63   H19   1.084233 S    
Cr6   O50   1.994836 S    
C85   C86   1.410048 A    
O46   C22   1.252070 A    
C38   C44   1.391940 A    
O31   C15   1.266836 A    
C67   H27   1.110924 S    
C94   C110  1.413276 A    
C59   C75   1.408429 A    
C28   C32   1.412472 A    
O34   Cr6   2.068834 S    
O19   Cr11  2.075975 S    
C72   H32   1.111419 S    
C9    C73   1.445118 S    
O33   Cr5   2.079432 S    
C13   O33   1.262216 A    
C59   C63   1.378514 A    
C18   C77   1.445882 S    
C71   H35   1.111908 S    
O10   Cr6   2.052567 S    
O42   Cr10  2.053407 S    
C89   C90   1.520196 S    
O16   C8    1.266087 A    
C51   C55   1.380782 A    
O4    Cr4   2.065939 S    
C6    C25   1.467791 S    
C98   C114  1.491902 S    
H4    C36   1.083124 S    
C107  C111  1.424650 A    
C92   H42   1.106309 S    
C100  C116  1.491875 S    
O28   Cr4   2.076134 S    
C16   O36   1.282992 A    
O38   C18   1.300433 A    
N6    O63   1.301069 A    
C87   C88   1.410048 A    
O18   Cr10  2.082059 S    
O27   Cr3   2.072217 S    
C6    O18   1.286658 A    
C28   C35   1.401934 A    
C35   C36   1.369747 A    
C26   C30   1.412340 A    
O45   Cr9   1.954225 S    
C103  C119  1.505766 S    
C85   H37   1.082758 S    
O5    C1    1.302242 A    
C82   C90   1.488853 S    
O12   Cr8   2.052567 S    
C53   C73   1.395202 A    
O36   Cr8   2.068834 S    
C113  C117  1.507907 S    
C67   H21   1.110496 S    
Cr9   O49   1.995253 S    
C12   C76   1.459355 S    
O15   Cr7   1.961245 S    
N2    O55   1.301156 A    
O38   Cr6   1.932024 S    
N8    O68   1.297680 A    
C102  C118  1.486024 S    
