data_mof_unit_48550.cif
_audit_creation_date              2013-03-05T16:01:15-0500
_audit_creation_method            fapswitch 2.2
_symmetry_space_group_name_H-M    P1
_symmetry_Int_Tables_number       1
_space_group_crystal_system       triclinic
_cell_length_a                    14.707031
_cell_length_b                    14.765078
_cell_length_c                    17.24341
_cell_angle_alpha                 105.911787
_cell_angle_beta                  72.742939
_cell_angle_gamma                 114.904742
_cell_volume                      3194.834224

loop_
_atom_site_label
_atom_site_type_symbol
_atom_site_description
_atom_site_fract_x
_atom_site_fract_y
_atom_site_fract_z
_atom_type_partial_charge
O1    O     O_R   0.020090 0.662480 0.528530 -0.583764
O2    O     O_R   0.979910 0.337520 0.471470 -0.588512
O3    O     O_R   0.160710 0.620650 0.491980 -0.606079
O4    O     O_R   0.839290 0.379350 0.508020 -0.604498
C1    C     C_R   0.118644 0.687887 0.514159 0.775915
C2    C     C_R   0.881377 0.312146 0.486093 0.767427
O5    O     O_R   0.921540 0.523360 0.633990 -0.545664
O6    O     O_R   0.078460 0.476640 0.366010 -0.551483
O7    O     O_R   0.062170 0.481520 0.597440 -0.539195
O8    O     O_R   0.937830 0.518480 0.402560 -0.541300
C3    C     C_R   0.988296 0.501873 0.652671 0.871756
C4    C     C_R   0.011461 0.497858 0.347461 0.887007
Cu1   Cu    Cu3+1 0.916740 0.524770 0.521640 0.977633
Cu2   Cu    Cu3+1 0.083260 0.475230 0.478360 0.974716
C5    C     C_R   0.976700 0.496351 0.738603 -0.333434
C6    C     C_R   0.020463 0.500910 0.261692 -0.305468
C7    C     C_R   0.999857 0.422224 0.757532 0.364242
C8    C     C_R   0.002111 0.577945 0.242776 0.331272
C9    C     C_R   0.987840 0.416780 0.839958 0.444082
C10   C     C_R   0.004068 0.577278 0.160516 0.435391
C11   C     C_R   0.954261 0.486943 0.903193 -0.116176
C12   C     C_R   0.034044 0.504947 0.097781 -0.101332
C13   C     C_R   0.925695 0.555839 0.884141 -0.277421
C14   C     C_R   0.058851 0.433167 0.116667 -0.303422
C15   C     C_R   0.938584 0.562655 0.802426 0.436977
C16   C     C_R   0.049103 0.428450 0.198353 0.438000
C17   C     C_2   0.953938 0.494690 0.989494 -0.119322
C18   C     C_2   0.035839 0.499533 0.011536 -0.053409
H1    H     H_    0.102058 0.491896 0.965195 0.190714
H2    H     H_    0.887195 0.500962 0.035621 0.162716
H3    H     H_    0.898099 0.608245 0.932912 0.193819
H4    H     H_    0.081799 0.377804 0.067943 0.199723
C19   C     C_R   0.185332 0.795350 0.524005 -0.060284
C20   C     C_R   0.814386 0.205020 0.482164 -0.056280
C21   C     C_R   0.211317 0.973164 0.552882 -0.178523
C22   C     C_R   0.786228 0.029778 0.475110 -0.181213
C23   C     C_R   0.145564 0.871922 0.544951 -0.202210
C24   C     C_R   0.852991 0.129899 0.472967 -0.207638
C25   C     C_R   0.290815 0.820905 0.512291 -0.257029
C26   C     C_R   0.709153 0.178981 0.492081 -0.251799
C27   C     C_R   0.358543 0.922323 0.522343 0.090446
C28   C     C_R   0.639691 0.079606 0.498499 0.091198
C29   C     C_R   0.317266 0.998869 0.541096 0.160920
C30   C     C_R   0.680153 0.004162 0.488048 0.162262
C31   C     C_R   0.465979 0.949499 0.512487 0.069892
C32   C     C_R   0.531662 0.053234 0.514422 0.067022
C33   C     C_R   0.487038 0.127275 0.534168 -0.223912
C34   C     C_R   0.509696 0.876744 0.502323 -0.221376
C35   C     C_R   0.381925 0.100293 0.547723 -0.209399
C36   C     C_R   0.614566 0.904004 0.490980 -0.212492
H5    H     H_    0.351109 0.159502 0.562874 0.158143
H6    H     H_    0.644557 0.845890 0.484054 0.151049
H7    H     H_    0.683542 0.237943 0.493848 0.143633
H8    H     H_    0.318505 0.759845 0.493278 0.152212
H9    H     H_    0.934388 0.148574 0.464956 0.163428
H10   H     H_    0.064040 0.853657 0.554300 0.167462
H11   H     H_    0.179385 0.031480 0.567948 0.148795
H12   H     H_    0.817406 0.972472 0.467666 0.145728
H13   H     H_    0.530703 0.207568 0.542107 0.144641
H14   H     H_    0.465080 0.797853 0.504997 0.133288
N1    N     N_R   0.208390 0.438070 0.445820 -0.227664
N2    N     N_R   0.791610 0.561930 0.554180 -0.226807
C37   C     C_R   0.299014 0.335197 0.355456 0.260483
C38   C     C_R   0.699614 0.663725 0.644078 0.262840
C39   C     C_R   0.212107 0.360530 0.382868 0.022163
C40   C     C_R   0.787478 0.639959 0.616510 0.028367
C41   C     C_R   0.286184 0.489800 0.487227 0.088953
C42   C     C_R   0.713440 0.508396 0.513394 0.078204
C43   C     C_R   0.372418 0.461301 0.469252 -0.043199
C44   C     C_R   0.625909 0.534873 0.531470 -0.045640
C45   C     C_R   0.380654 0.386787 0.398327 -0.060281
C46   C     C_R   0.617256 0.609822 0.602082 -0.058373
C47   C     C_R   0.452157 0.507307 0.516315 -0.057899
C48   C     C_R   0.545507 0.487040 0.484871 -0.060078
C49   C     C_R   0.555144 0.420302 0.407941 0.465194
C50   C     C_R   0.441024 0.571875 0.594040 0.463620
C51   C     C_R   0.471243 0.367812 0.369360 -0.217033
C52   C     C_R   0.525356 0.626411 0.632027 -0.222549
H15   H     H_    0.480330 0.316034 0.312472 0.203575
H16   H     H_    0.515896 0.677587 0.689205 0.203070
H17   H     H_    0.719960 0.442877 0.470076 0.186172
H18   H     H_    0.280670 0.555414 0.531275 0.178083
H19   H     H_    0.851006 0.680538 0.647708 0.175844
H20   H     H_    0.148916 0.321429 0.351204 0.182261
O9    O     O_3   0.039514 0.358052 0.695713 -0.510522
C53   C     C_3   0.957765 0.271717 0.669470 -0.202838
H21   H     H_    0.902949 0.291881 0.651333 0.116658
H22   H     H_    0.916644 0.223379 0.717746 0.159671
H23   H     H_    0.989747 0.226013 0.614352 0.181524
O10   O     O_3   0.981055 0.653152 0.304796 -0.559014
C54   C     C_3   0.074293 0.734395 0.314571 -0.236781
H24   H     H_    0.112843 0.768603 0.257701 0.189302
H25   H     H_    0.126668 0.710372 0.332194 0.134444
H26   H     H_    0.057616 0.794022 0.365196 0.184863
N3    N     N_R   0.303271 0.258722 0.283629 0.113525
O11   O     O_R   0.225484 0.173258 0.278168 -0.361378
O12   O     O_R   0.372449 0.282612 0.217397 -0.343173
N4    N     N_R   0.695127 0.740972 0.715243 0.111038
O13   O     O_R   0.771527 0.827719 0.719030 -0.374289
O14   O     O_R   0.628035 0.717194 0.782458 -0.339503
O15   O     O_3   0.650633 0.419342 0.363612 -0.582635
C55   C     C_3   0.649689 0.319295 0.339131 -0.375673
H27   H     H_    0.626290 0.284516 0.278884 0.195134
H28   H     H_    0.600275 0.270301 0.386356 0.151417
H29   H     H_    0.728907 0.322796 0.330347 0.185559
O16   O     O_3   0.343811 0.566796 0.639197 -0.562663
C56   C     C_3   0.339934 0.664263 0.672804 -0.335305
H30   H     H_    0.389600 0.720873 0.631583 0.136712
H31   H     H_    0.359806 0.690866 0.734563 0.198195
H32   H     H_    0.260015 0.658705 0.681461 0.188284
O17   O     O_3   0.071317 0.354830 0.215639 -0.539124
C57   C     C_3   0.980452 0.268536 0.225524 -0.264361
H33   H     H_    0.920550 0.285896 0.277465 0.119678
H34   H     H_    0.997830 0.209892 0.240548 0.204662
H35   H     H_    0.950712 0.236025 0.167586 0.157357
O18   O     O_3   0.912062 0.633573 0.785518 -0.541022
C58   C     C_3   0.998852 0.724282 0.780513 -0.254257
H36   H     H_    0.977986 0.780819 0.765936 0.202020
H37   H     H_    0.063098 0.712977 0.730214 0.124175
H38   H     H_    0.024201 0.756276 0.840344 0.164412
O19   O     O_3   0.988002 0.652686 0.139194 -0.572117
C59   C     C_3   0.887584 0.650568 0.175889 -0.227021
H39   H     H_    0.887073 0.703530 0.235612 0.218205
H40   H     H_    0.830209 0.573226 0.184492 0.147229
H41   H     H_    0.862552 0.677665 0.134839 0.169463
O20   O     O_3   0.014294 0.345532 0.856773 -0.550057
C60   C     C_3   0.925072 0.269801 0.891615 -0.279946
H42   H     H_    0.858113 0.249641 0.863823 0.137689
H43   H     H_    0.904571 0.293032 0.959337 0.169724
H44   H     H_    0.941457 0.200027 0.880624 0.202551

loop_
_geom_bond_atom_site_label_1
_geom_bond_atom_site_label_2
_geom_bond_distance
_ccdc_geom_bond_type
C37   C39   1.394368 A    
O15   C55   1.415916 S    
C56   H31   1.110146 S    
C47   C48   1.443538 A    
N3    O11   1.301118 A    
C60   H43   1.109409 S    
C33   C35   1.386053 A    
C31   C32   1.423097 A    
O5    C3    1.293955 A    
O20   C60   1.413486 S    
O1    C1    1.297270 A    
C42   H17   1.068829 S    
C12   C14   1.395639 A    
C18   H1    1.086756 S    
C9    C11   1.413534 A    
C14   C16   1.391027 A    
C22   H12   1.083954 S    
C58   H37   1.113612 S    
C52   H16   1.077509 S    
C5    C15   1.410398 A    
C25   H8    1.074282 S    
O16   C56   1.415044 S    
C37   N3    1.435133 S    
O18   C58   1.410210 S    
C55   H29   1.109895 S    
C28   C32   1.424783 A    
O4    Cu1   1.945558 S    
C43   C45   1.416816 A    
C46   C52   1.395982 A    
C50   O16   1.391838 S    
C40   H19   1.082282 S    
C23   H10   1.083084 S    
C3    C5    1.461483 S    
C24   H9    1.083024 S    
C4    C6    1.456773 S    
C35   H5    1.084494 S    
C1    C19   1.465872 S    
C44   C48   1.446347 A    
C36   H6    1.084606 S    
C56   H30   1.113958 S    
C43   C47   1.444557 A    
C21   C29   1.403444 A    
C38   N4    1.434925 S    
C11   C17   1.459630 S    
C12   C18   1.460156 S    
Cu1   Cu2   2.686012 S    
C17   H2    1.085210 S    
C27   C29   1.418262 A    
O2    C2    1.296785 A    
C28   C30   1.418463 A    
C57   H34   1.109442 S    
C57   H33   1.113620 S    
C34   H14   1.075764 S    
C51   H15   1.077803 S    
C6    C16   1.407422 A    
C48   C49   1.428321 A    
N2    C40   1.351829 A    
C53   H22   1.109790 S    
C8    O10   1.383708 S    
O4    C2    1.297466 A    
C58   H38   1.113190 S    
C54   H24   1.112971 S    
C53   H21   1.113182 S    
C29   C35   1.389686 A    
C39   H20   1.082325 S    
O9    C53   1.411008 S    
Cu2   N1    2.017795 S    
C53   H23   1.109205 S    
C19   C23   1.399448 A    
C2    C20   1.464743 S    
C41   C43   1.423502 A    
C13   H3    1.084368 S    
O7    Cu2   1.965421 S    
C14   H4    1.084219 S    
C54   H25   1.113394 S    
C49   C51   1.401691 A    
N1    C41   1.360818 A    
O6    C4    1.293565 A    
O19   C59   1.414183 S    
C19   C25   1.397392 A    
C55   H28   1.115200 S    
C34   C36   1.385783 A    
O7    C3    1.296865 A    
C10   O19   1.388611 S    
O3    Cu2   1.945560 S    
O8    C4    1.294865 A    
Cu1   N2    2.017795 S    
C42   C44   1.423425 A    
C37   C45   1.419834 A    
N4    O13   1.301102 A    
N4    O14   1.301152 A    
C11   C13   1.394392 A    
C56   H32   1.109902 S    
C7    O9    1.384547 S    
C15   O18   1.382922 S    
O1    Cu1   1.957162 S    
C10   C12   1.408989 A    
C59   H40   1.115869 S    
C60   H42   1.114888 S    
C45   C51   1.394922 A    
C31   C34   1.417627 A    
C30   C36   1.389461 A    
C5    C7    1.412883 A    
C32   C33   1.417527 A    
O6    Cu2   1.965461 S    
O17   C57   1.410032 S    
C21   C23   1.391874 A    
C20   C24   1.399389 A    
C50   C52   1.402645 A    
O3    C1    1.297429 A    
O8    Cu1   1.965421 S    
N3    O12   1.301178 A    
C9    O20   1.386000 S    
N2    C42   1.360389 A    
C21   H11   1.083949 S    
C59   H41   1.109326 S    
C22   C24   1.391667 A    
C60   H44   1.109182 S    
C58   H36   1.109405 S    
C54   H26   1.109385 S    
O10   C54   1.410176 S    
C26   C28   1.402961 A    
C7    C9    1.399807 A    
C8    C10   1.407580 A    
C38   C46   1.420373 A    
C55   H27   1.110004 S    
O2    Cu2   1.957163 S    
C22   C30   1.403346 A    
C33   H13   1.076380 S    
N1    C39   1.352088 A    
O5    Cu1   1.965460 S    
C13   C15   1.390935 A    
C47   C50   1.425701 A    
C25   C27   1.403001 A    
C41   H18   1.071536 S    
C6    C8    1.409675 A    
C26   H7    1.074956 S    
C17   C18   1.335905 D    
C49   O15   1.389467 S    
C27   C31   1.425000 A    
C20   C26   1.396505 A    
C44   C46   1.418174 A    
C59   H39   1.109458 S    
C16   O17   1.382622 S    
C57   H35   1.113241 S    
C38   C40   1.394600 A    
