data_mof_unit_29207.cif
_audit_creation_date              2012-12-10T18:55:58-0500
_audit_creation_method            fapswitch 2.2
_symmetry_space_group_name_H-M    P1
_symmetry_Int_Tables_number       1
_space_group_crystal_system       triclinic
_cell_length_a                    10.701488
_cell_length_b                    9.823389
_cell_length_c                    14.971561
_cell_angle_alpha                 89.987535
_cell_angle_beta                  89.93322
_cell_angle_gamma                 89.99766
_cell_volume                      1573.88243852

loop_
_atom_site_label
_atom_site_type_symbol
_atom_type_description
_atom_site_fract_x
_atom_site_fract_y
_atom_site_fract_z
_atom_type_partial_charge
C1    C     C_R   0.259814 0.500002 0.500004 0.854255
C2    C     C_R   0.936107 0.624055 0.496841 -0.205455
C3    C     C_R   0.936113 0.375951 0.503281 -0.201174
C4    C     C_R   0.063867 0.624101 0.497831 -0.204454
C5    C     C_R   0.435412 0.598261 0.092359 -0.274100
C6    C     C_R   0.434764 0.400689 0.907542 -0.270825
C7    C     C_R   0.572695 0.597303 0.906640 -0.275586
C8    C     C_R   0.573226 0.401542 0.093432 -0.272391
C9    C     C_R   0.430753 0.597070 0.184908 0.407555
C10   C     C_R   0.429058 0.403311 0.815039 0.411939
C11   C     C_R   0.574431 0.596367 0.814021 0.408431
C12   C     C_R   0.740181 0.499999 0.500016 0.853621
C13   C     C_R   0.576018 0.403916 0.186028 0.412596
C14   C     C_R   0.502313 0.500232 0.231728 -0.259862
C15   C     C_R   0.500987 0.500008 0.768271 -0.259841
C16   C     C_R   0.504549 0.499448 0.047694 0.022729
C17   C     C_R   0.504732 0.498564 0.952286 0.022704
C18   C     C_R   0.872573 0.500001 0.500053 -0.016962
C19   C     C_R   0.127412 0.500003 0.500018 -0.018260
C20   C     C_3   0.234372 0.655364 0.228800 0.084306
C21   C     C_3   0.156942 0.766184 0.274273 -0.290350
C22   C     C_3   0.017666 0.732710 0.272172 -1.002653
C23   C     C_R   0.500574 0.500053 0.327774 0.935924
C24   C     C_3   0.230612 0.354319 0.771783 0.078349
C25   C     C_3   0.147750 0.245996 0.728811 -0.315292
C26   C     C_3   0.010084 0.286475 0.731960 -0.977924
C27   C     C_3   0.769740 0.654885 0.767801 0.084623
C28   C     C_3   0.845729 0.764633 0.719990 -0.290992
C29   C     C_3   0.985195 0.731985 0.721199 -0.999966
C30   C     C_3   0.773368 0.354325 0.231543 0.078850
C31   C     C_3   0.854580 0.247208 0.277367 -0.317637
C32   C     C_3   0.992557 0.286527 0.274982 -0.973994
C33   C     C_R   0.499887 0.500012 0.672227 0.935690
C34   C     C_R   0.569986 0.071993 0.439450 -0.071932
C35   C     C_R   0.429820 0.927963 0.560460 -0.060255
C36   C     C_R   0.430003 0.071966 0.560545 -0.071269
C37   C     C_R   0.570175 0.927992 0.439538 -0.060656
C38   C     C_R   0.063868 0.375903 0.502220 -0.199295
H1    H     H_    0.625607 0.126619 0.390974 0.155660
H2    H     H_    0.887687 0.720795 0.493835 0.159475
H3    H     H_    0.887689 0.279213 0.506321 0.158913
H4    H     H_    0.112268 0.720922 0.496610 0.160119
H5    H     H_    0.221643 0.558015 0.266065 0.128730
H6    H     H_    0.199629 0.642740 0.159107 0.130200
H7    H     H_    0.187865 0.777218 0.344701 0.227805
H8    H     H_    0.172534 0.864879 0.239663 0.226342
H9    H     H_    0.983943 0.727717 0.202114 0.263528
H10   H     H_    0.964627 0.813161 0.307954 0.264642
H11   H     H_    0.999543 0.633648 0.305311 0.273289
H12   H     H_    0.373686 0.873273 0.608719 0.132748
H13   H     H_    0.221298 0.450903 0.733200 0.129038
H14   H     H_    0.197412 0.371076 0.841565 0.133896
H15   H     H_    0.176435 0.231398 0.658197 0.214408
H16   H     H_    0.159999 0.147715 0.764577 0.224243
H17   H     H_    0.978180 0.296580 0.802274 0.260713
H18   H     H_    0.952953 0.207058 0.698577 0.267275
H19   H     H_    0.995380 0.384632 0.696855 0.270958
H20   H     H_    0.781819 0.556577 0.731538 0.128417
H21   H     H_    0.806249 0.644251 0.837169 0.130857
H22   H     H_    0.813424 0.773176 0.649720 0.229489
H23   H     H_    0.374356 0.126581 0.609003 0.154403
H24   H     H_    0.830328 0.864352 0.753333 0.226157
H25   H     H_    0.020291 0.729494 0.790970 0.262735
H26   H     H_    0.037156 0.811520 0.683743 0.264751
H27   H     H_    0.003150 0.631946 0.689321 0.274188
H28   H     H_    0.782123 0.452214 0.268740 0.128719
H29   H     H_    0.808460 0.368414 0.161989 0.134733
H30   H     H_    0.824329 0.235810 0.347910 0.216739
H31   H     H_    0.842449 0.147561 0.243278 0.223761
H32   H     H_    0.026010 0.293427 0.204868 0.260020
H33   H     H_    0.048456 0.208124 0.310426 0.267497
H34   H     H_    0.626301 0.873326 0.391275 0.132629
H35   H     H_    0.007150 0.386017 0.308437 0.271599
H36   H     H_    0.383383 0.674315 0.055359 0.164672
H37   H     H_    0.382107 0.324952 0.944452 0.165255
H38   H     H_    0.625545 0.673490 0.942893 0.164505
H39   H     H_    0.626608 0.325587 0.057277 0.165040
H40   H     H_    0.112277 0.279082 0.503390 0.158380
N1    N     N_R   0.500000 0.857200 0.500000 -0.081714
N2    N     N_R   0.500000 0.142800 0.500000 -0.086293
O1    O     O_R   0.316770 0.614620 0.499990 -0.635139
O2    O     O_3   0.355974 0.309107 0.770461 -0.628844
O3    O     O_3   0.642662 0.693739 0.768315 -0.617038
O4    O     O_3   0.647804 0.309749 0.231749 -0.629087
O5    O     O_R   0.683230 0.385380 0.500010 -0.633680
O6    O     O_R   0.683230 0.614620 0.500010 -0.635499
O7    O     O_R   0.316770 0.385380 0.499990 -0.633210
O8    O     O_R   0.499990 0.614660 0.369060 -0.586437
O9    O     O_R   0.500010 0.385340 0.630940 -0.586213
O10   O     O_R   0.500010 0.614660 0.630940 -0.586098
O11   O     O_R   0.499990 0.385340 0.369060 -0.585815
O12   O     O_3   0.361348 0.694569 0.229540 -0.617249
Zn1   Zn    Zn3+2 0.500000 0.653120 0.500000 0.967517
Zn2   Zn    Zn3+2 0.500000 0.346880 0.500000 0.967817

loop_
_geom_bond_atom_site_label_1
_geom_bond_atom_site_label_2
_ccdc_geom_bond_type
C1    O7    A    
C22   H10   S    
C29   H25   S    
C24   H14   S    
C8    C13   A    
C2    C18   A    
C34   C37   A    
C35   C36   A    
C26   H17   S    
C6    H37   S    
C7    C11   A    
C20   O12   S    
C13   O4    S    
C12   O5    A    
C28   C29   S    
C19   C38   A    
C25   H15   S    
N1    Zn1   S    
C10   C15   A    
C30   C31   S    
C1    O1    A    
O7    Zn2   S    
O9    Zn2   S    
C3    C18   A    
C5    H36   S    
C24   O2    S    
C5    C16   A    
C34   N2    A    
C4    C19   A    
C11   C15   A    
C3    C38   A    
C16   C17   S    
C37   N1    A    
C30   H29   S    
C24   H13   S    
C22   H9    S    
C29   H26   S    
C8    C16   A    
C21   C22   S    
C9    O12   S    
C20   H6    S    
C32   H33   S    
C21   H7    S    
C28   H22   S    
C31   H30   S    
C1    C19   S    
C34   H1    S    
C25   H16   S    
C36   N2    A    
C32   H35   S    
C32   H32   S    
C38   H40   S    
C11   O3    S    
C25   C26   S    
C10   O2    S    
C26   H18   S    
C14   C23   S    
C2    C4    A    
C9    C14   A    
C5    C9    A    
O6    Zn1   S    
C33   O9    A    
O1    Zn1   S    
O5    Zn2   S    
C31   C32   S    
C35   H12   S    
C24   C25   S    
C30   H28   S    
C22   H11   S    
C29   H27   S    
C23   O8    A    
C8    H39   S    
C23   O11   A    
N2    Zn2   S    
C36   H23   S    
C20   H5    S    
O10   Zn1   S    
C21   H8    S    
C6    C17   A    
O8    Zn1   S    
C3    H3    S    
C27   H20   S    
C7    C17   A    
C6    C10   A    
C7    H38   S    
C12   O6    A    
C27   O3    S    
C27   H21   S    
C33   O10   A    
O11   Zn2   S    
C4    H4    S    
C35   N1    A    
C30   O4    S    
C26   H19   S    
C2    H2    S    
C31   H31   S    
C20   C21   S    
C37   H34   S    
C12   C18   S    
C27   C28   S    
C13   C14   A    
C15   C33   S    
C28   H24   S    
