data_mof_unit_63039.cif
_audit_creation_date              2012-12-10T19:05:00-0500
_audit_creation_method            fapswitch 2.2
_symmetry_space_group_name_H-M    P1
_symmetry_Int_Tables_number       1
_space_group_crystal_system       triclinic
_cell_length_a                    13.068578
_cell_length_b                    13.665114
_cell_length_c                    15.78356
_cell_angle_alpha                 90.040477
_cell_angle_beta                  92.621338
_cell_angle_gamma                 85.597655
_cell_volume                      2807.41700035

loop_
_atom_site_label
_atom_site_type_symbol
_atom_type_description
_atom_site_fract_x
_atom_site_fract_y
_atom_site_fract_z
_atom_type_partial_charge
C1    C     C_R   0.481095 0.684942 0.499072 0.894458
C2    C     C_3   0.392435 0.539984 0.045896 -0.229044
C3    C     C_3   0.498619 0.493677 0.082793 0.112630
C4    C     C_3   0.514613 0.385204 0.050841 -0.235321
C5    C     C_3   0.508772 0.383055 0.950986 0.085862
C6    C     C_1   0.501413 0.496111 0.174601 -0.019600
C7    C     C_1   0.496926 0.495115 0.825325 -0.029949
C8    C     C_1   0.497936 0.497684 0.750338 -0.136517
C9    C     C_1   0.534178 0.212317 0.501670 -0.144728
C10   C     C_2   0.544712 0.021431 0.502159 -0.040565
C11   C     C_2   0.455272 0.978588 0.497558 -0.041380
C12   C     C_R   0.499270 0.499934 0.661846 0.901112
C13   C     C_1   0.456860 0.874828 0.497700 -0.016486
C14   C     C_1   0.543128 0.125187 0.502104 -0.010598
C15   C     C_1   0.465818 0.787694 0.498223 -0.152793
C16   C     C_2   0.033897 0.471796 0.473243 -0.064244
C17   C     C_2   0.967100 0.524095 0.522641 -0.280932
C18   C     C_1   0.854681 0.518577 0.516851 0.184239
C19   C     C_1   0.145522 0.479988 0.481689 0.120586
C20   C     C_R   0.518904 0.315061 0.500914 0.901623
C21   C     C_R   0.500713 0.499926 0.338160 0.900900
C22   C     C_3   0.395278 0.548359 0.947764 -0.239124
C23   C     C_3   0.586933 0.548564 0.952814 -0.440743
C24   C     C_3   0.586144 0.553503 0.050451 0.006817
C25   C     C_1   0.502055 0.498146 0.249670 -0.128288
C26   C     C_3   0.495826 0.492007 0.916862 0.132075
H1    H     H_    0.331936 0.491505 0.063357 0.169320
H2    H     H_    0.592565 0.355935 0.073606 0.204808
H3    H     H_    0.997309 0.573447 0.569859 0.170611
H4    H     H_    0.397482 0.626846 0.929041 0.159993
H5    H     H_    0.661230 0.513870 0.932228 0.241537
H6    H     H_    0.581244 0.624698 0.926890 0.172619
H7    H     H_    0.571569 0.631653 0.069302 0.158200
N1    N     N_1   0.234540 0.484780 0.486630 -0.083608
N2    N     N_1   0.765460 0.515220 0.513370 -0.084197
O1    O     O_R   0.402510 0.634760 0.495110 -0.608373
O2    O     O_R   0.572960 0.644530 0.503690 -0.602172
O3    O     O_R   0.414740 0.495110 0.618560 -0.608072
O4    O     O_R   0.585180 0.504880 0.627150 -0.603647
O5    O     O_R   0.427040 0.355470 0.496310 -0.600013
O6    O     O_R   0.597490 0.365240 0.504890 -0.604397
O7    O     O_R   0.414820 0.495120 0.372850 -0.608401
O8    O     O_R   0.585260 0.504890 0.381440 -0.597812
Zn1   Zn    Zn3+2 0.386190 0.493480 0.494270 1.004838
Zn2   Zn    Zn3+2 0.613810 0.506520 0.505730 1.014073
C27   C     C_1   0.363376 0.637244 0.082894 0.177771
N3    N     N_1   0.340694 0.713224 0.111845 -0.169645
C28   C     C_1   0.299657 0.516555 0.906281 0.194660
N4    N     N_1   0.224675 0.492052 0.873791 -0.156183
C29   C     C_1   0.356049 0.033939 0.492435 0.223365
N5    N     N_1   0.276829 0.078187 0.488345 -0.171781
C30   C     C_1   0.643938 0.966092 0.507257 0.225221
N6    N     N_1   0.723166 0.921858 0.511324 -0.175162
C31   C     C_1   0.996970 0.405421 0.409578 0.236285
N7    N     N_1   0.967362 0.352265 0.358566 -0.157555
I1    I     I_    0.737200 0.510087 0.106370 -0.317435
C32   C     C_1   0.425597 0.325057 0.915258 0.225873
N8    N     N_1   0.361062 0.279464 0.887321 -0.156773
I2    I     I_    0.647246 0.304292 0.907572 -0.326166
C33   C     C_1   0.444169 0.320124 0.090462 0.180110
N9    N     N_1   0.389365 0.269503 0.121458 -0.157883

loop_
_geom_bond_atom_site_label_1
_geom_bond_atom_site_label_2
_ccdc_geom_bond_type
C2    C22   S    
C22   C28   S    
C9    C14   T    
O3    Zn1   S    
C2    H1    S    
C1    C15   S    
C5    C32   S    
C8    C12   S    
C24   I1    S    
C17   H3    S    
C18   N2    T    
C9    C20   S    
C24   H7    S    
C1    O2    A    
C23   C24   S    
C3    C6    S    
C10   C30   S    
C23   H6    S    
C4    C33   S    
C12   O4    A    
C17   C18   S    
C32   N8    T    
C7    C8    T    
C11   C29   S    
C21   O8    A    
C2    C27   S    
O8    Zn2   S    
C3    C24   S    
C16   C17   D    
C7    C26   S    
O7    Zn1   S    
C16   C19   S    
C28   N4    T    
C4    H2    S    
O5    Zn1   S    
C20   O6    A    
C2    C3    S    
C13   C15   T    
C12   O3    A    
C20   O5    A    
C16   C31   S    
O1    Zn1   S    
C6    C25   T    
C10   C11   D    
C5    I2    S    
O2    Zn2   S    
C5    C26   S    
N2    Zn2   S    
C11   C13   S    
N1    Zn1   S    
C30   N6    T    
C22   C26   S    
C23   C26   S    
C21   C25   S    
C27   N3    T    
C33   N9    T    
O6    Zn2   S    
C22   H4    S    
C29   N5    T    
C31   N7    T    
O4    Zn2   S    
C3    C4    S    
C21   O7    A    
C1    O1    A    
C10   C14   S    
C4    C5    S    
C19   N1    T    
C23   H5    S    
