data_mof_unit_21400.cif
_audit_creation_date              2012-12-11T16:07:25-0500
_audit_creation_method            fapswitch 2.2
_symmetry_space_group_name_H-M    P1
_symmetry_Int_Tables_number       1
_space_group_crystal_system       triclinic
_cell_length_a                    6.925504
_cell_length_b                    14.376266
_cell_length_c                    15.926425
_cell_angle_alpha                 90.213977
_cell_angle_beta                  90.081646
_cell_angle_gamma                 90.038371
_cell_volume                      1585.66783441

loop_
_atom_site_label
_atom_site_type_symbol
_atom_type_description
_atom_site_fract_x
_atom_site_fract_y
_atom_site_fract_z
_atom_type_partial_charge
O1    O     O_R   0.494320 0.415010 0.412140 -0.513367
O2    O     O_R   0.824010 0.404260 0.587250 -0.552193
O3    O     O_R   0.994320 0.584990 0.587860 -0.538858
C1    C     C_R   0.655180 0.381397 0.615950 0.698407
O4    O     O_R   0.824040 0.403870 0.412760 -0.545383
O5    O     O_R   0.994350 0.584590 0.412130 -0.519087
C2    C     C_R   0.654945 0.381053 0.383897 0.752396
O6    O     O_R   0.494300 0.415410 0.587870 -0.548825
O7    O     O_3   0.660800 0.559290 0.500000 -0.358323
V1    V     V_3+5 0.935650 0.489000 0.500000 1.482574
O8    O     O_R   0.324060 0.595740 0.412750 -0.538303
C3    C     C_R   0.154775 0.617674 0.383135 0.746195
O9    O     O_R   0.324040 0.596130 0.587240 -0.519084
C4    C     C_R   0.155208 0.618523 0.616220 0.706073
V2    V     V_3+5 0.435660 0.511000 0.500000 1.526547
O10   O     O_3   0.160640 0.440710 0.500000 -0.382016
C5    C     C_3   0.067348 0.666517 0.775463 -0.194126
C6    C     C_3   0.241033 0.719675 0.814606 -0.182997
H1    H     H_    0.331211 0.695599 0.867942 0.163660
H2    H     H_    0.012461 0.597845 0.796398 0.162383
C7    C     C_3   0.122181 0.810389 0.812087 -0.124845
C8    C     C_3   0.948475 0.757965 0.773963 -0.009478
C9    C     C_3   0.025624 0.779266 0.684613 -0.169250
C10   C     C_3   0.199189 0.832702 0.723527 -0.218778
C11   C     C_3   0.314860 0.741202 0.725510 0.674092
C12   C     C_3   0.144184 0.688462 0.686794 -0.126199
H3    H     H_    0.796942 0.765392 0.795415 0.186141
H4    H     H_    0.936548 0.803376 0.630943 0.166670
H5    H     H_    0.255333 0.901105 0.702504 0.169853
C13   C     C_3   0.224392 0.852977 0.264386 -0.437698
H6    H     H_    0.373260 0.875256 0.247480 0.159875
H7    H     H_    0.145666 0.916029 0.285824 0.228726
C14   C     C_3   0.234666 0.781788 0.337484 -0.467657
H8    H     H_    0.158440 0.810418 0.393342 0.163123
H9    H     H_    0.388275 0.771229 0.355716 0.190431
H10   H     H_    0.386161 0.743039 0.140632 0.064245
H11   H     H_    0.405464 0.638941 0.248177 0.152976
C15   C     C_3   0.237415 0.722324 0.159250 0.498696
C16   C     C_3   0.916733 0.778861 0.214290 -0.319822
C17   C     C_3   0.121769 0.810255 0.186380 -0.069671
H12   H     H_    0.836908 0.748609 0.159962 0.216775
H13   H     H_    0.832548 0.840234 0.236289 0.112025
C18   C     C_3   0.142367 0.687498 0.311473 -0.086966
C19   C     C_3   0.250873 0.651189 0.232556 -0.272033
C20   C     C_3   0.928250 0.706646 0.285827 0.517923
H14   H     H_    0.847394 0.733938 0.341028 0.049185
H15   H     H_    0.189607 0.583049 0.212552 0.248696
C21   C     C_3   0.519618 0.225707 0.660960 -0.365936
H16   H     H_    0.371721 0.248936 0.643429 0.114600
H17   H     H_    0.583232 0.191875 0.604461 0.181852
C22   C     C_3   0.505328 0.154390 0.733967 0.461242
H18   H     H_    0.350843 0.145742 0.751443 0.096153
H19   H     H_    0.405770 0.381920 0.750499 0.169904
C23   C     C_3   0.552912 0.355947 0.766002 -0.367583
C24   C     C_3   0.848573 0.274863 0.711262 -0.333934
C25   C     C_3   0.644623 0.310949 0.686789 -0.073144
H20   H     H_    0.941054 0.333976 0.732164 0.182039
H21   H     H_    0.919667 0.242595 0.655694 0.163260
C26   C     C_3   0.622994 0.188291 0.811798 -0.139807
C27   C     C_3   0.539766 0.284887 0.839595 0.817349
C28   C     C_3   0.836086 0.202494 0.782424 -0.349935
H22   H     H_    0.897015 0.135313 0.759794 0.198763
H23   H     H_    0.928640 0.225557 0.835702 0.231605
H24   H     H_    0.639319 0.417959 0.784710 0.167443
C29   C     C_3   0.563576 0.355593 0.231604 0.509573
H25   H     H_    0.657879 0.414874 0.213355 0.116362
C30   C     C_3   0.557086 0.283767 0.158464 -0.346967
H26   H     H_    0.651320 0.308394 0.106772 0.210912
H27   H     H_    0.407826 0.279148 0.132766 0.248872
H28   H     H_    0.365553 0.252234 0.354474 0.206502
H29   H     H_    0.340325 0.155268 0.241053 0.242985
C31   C     C_3   0.511839 0.226981 0.336767 -0.307860
C32   C     C_3   0.847753 0.270637 0.292777 -0.454843
C33   C     C_3   0.644185 0.310218 0.312980 -0.129124
H30   H     H_    0.911961 0.240540 0.350736 0.177084
H31   H     H_    0.945053 0.328379 0.273364 0.217777
C34   C     C_3   0.625575 0.186381 0.188137 -0.136903
C35   C     C_3   0.493248 0.157257 0.262420 -0.378857
C36   C     C_3   0.838293 0.196651 0.221872 0.902457
H32   H     H_    0.572407 0.190630 0.392457 0.147826
H33   H     H_    0.529462 0.085920 0.284040 0.180821
O11   O     O_R   0.771990 0.083520 0.910980 -0.544012
O12   O     O_R   0.442180 0.095020 0.086060 -0.535223
O13   O     O_R   0.271950 0.914280 0.086680 -0.560167
C37   C     C_R   0.611675 0.116575 0.116087 0.781022
O14   O     O_R   0.442270 0.094630 0.911580 -0.524612
O15   O     O_R   0.272040 0.913890 0.910940 -0.545262
C38   C     C_R   0.611389 0.117147 0.882480 0.801116
O16   O     O_R   0.771900 0.083910 0.086710 -0.491645
O17   O     O_3   0.605520 0.939610 0.998840 -0.394885
V3    V     V_3+5 0.330640 0.009880 0.998810 1.578943
O18   O     O_R   0.942330 0.902710 0.911540 -0.547664
C39   C     C_R   0.111202 0.880333 0.882600 0.725586
O19   O     O_R   0.942240 0.903100 0.086030 -0.540683
C40   C     C_R   0.111143 0.880817 0.115341 0.766799
V4    V     V_3+5 0.830640 0.987830 0.998780 1.564441
O20   O     O_3   0.105630 0.058150 0.998800 -0.336736
F1    F     F_    0.838824 0.624902 0.260116 -0.680614
F2    F     F_    0.150865 0.680784 0.090056 -0.661263
F3    F     F_    0.571868 0.068312 0.707109 -0.698457
F4    F     F_    0.347532 0.275036 0.862324 -0.681332
Cl1   Cl    Cl    0.665325 0.329839 0.929628 -0.609930
F5    F     F_    0.379701 0.390662 0.245357 -0.664558
F6    F     F_    0.959199 0.224862 0.157314 -0.648043
Cl2   Cl    Cl    0.930402 0.088021 0.260736 -0.754502
F7    F     F_    0.504256 0.732402 0.699531 -0.701517

loop_
_geom_bond_atom_site_label_1
_geom_bond_atom_site_label_2
_ccdc_geom_bond_type
C13   H7    S    
C24   C25   S    
O15   V3    S    
C6    C7    S    
C32   C33   S    
C30   C34   S    
C1    O6    A    
C16   H12   S    
C23   C27   S    
C34   C35   S    
C23   H24   S    
C5    C12   S    
C3    C18   S    
O14   V3    S    
O5    C3    A    
C13   H6    S    
O14   C38   A    
V2    O10   S    
O15   C39   A    
O18   V4    S    
C5    H2    S    
C36   Cl2   S    
C6    H1    S    
C9    C12   S    
C28   H23   S    
C26   C38   S    
C31   C35   S    
C10   H5    S    
O8    V2    S    
C21   C22   S    
C29   C30   S    
C9    C10   S    
O1    V2    S    
O13   V3    S    
C16   H13   S    
O7    V1    S    
C19   H15   S    
C16   C20   S    
C21   H17   S    
C34   C37   S    
C26   C27   S    
O9    C4    A    
C1    C25   S    
C32   H30   S    
C28   H22   S    
C6    C11   S    
C27   Cl1   S    
C11   F7    S    
C14   H8    S    
C2    C33   S    
C34   C36   S    
C23   C25   S    
C26   C28   S    
O11   V4    S    
C22   H18   S    
C14   C18   S    
C10   C11   S    
C31   C33   S    
C16   C17   S    
O4    C2    A    
C37   O16   A    
C11   C12   S    
H19   C23   S    
C4    C12   S    
C29   C33   S    
C30   H26   S    
C30   H27   S    
O13   C40   A    
O2    C1    A    
C18   C19   S    
C15   C19   S    
V4    O20   S    
C5    C6    S    
C32   C36   S    
C13   C17   S    
C9    H4    S    
V3    O20   S    
O19   V4    S    
C18   C20   S    
O3    C4    A    
C21   H16   S    
O12   C37   A    
O6    V2    S    
C8    H3    S    
O9    V2    S    
C32   H31   S    
C36   F6    S    
C7    C10   S    
C22   C26   S    
C29   F5    S    
C17   C40   S    
C27   F4    S    
O2    V1    S    
C22   F3    S    
C21   C25   S    
C13   C14   S    
O1    C2    A    
C15   F2    S    
O5    V1    S    
O8    C3    A    
O17   V4    S    
O12   V3    S    
C5    C8    S    
C20   F1    S    
H11   C19   S    
C24   H20   S    
O7    V2    S    
O4    V1    S    
C31   H32   S    
O3    V1    S    
V1    O10   S    
C15   C17   S    
C35   H33   S    
O17   V3    S    
C7    C39   S    
O16   V4    S    
O11   C38   A    
C24   C28   S    
H10   C15   S    
O18   C39   A    
C14   H9    S    
O19   C40   A    
C20   H14   S    
C29   H25   S    
C24   H21   S    
C8    C9    S    
H28   C31   S    
C7    C8    S    
H29   C35   S    
