data_mof_unit_58544.cif
_audit_creation_date              2012-12-11T15:09:00-0500
_audit_creation_method            fapswitch 2.2
_symmetry_space_group_name_H-M    P1
_symmetry_Int_Tables_number       1
_space_group_crystal_system       triclinic
_cell_length_a                    19.41934
_cell_length_b                    11.314496
_cell_length_c                    18.702101
_cell_angle_alpha                 90.051677
_cell_angle_beta                  90.266704
_cell_angle_gamma                 90.048819
_cell_volume                      4109.17877216

loop_
_atom_site_label
_atom_site_type_symbol
_atom_type_description
_atom_site_fract_x
_atom_site_fract_y
_atom_site_fract_z
_atom_type_partial_charge
C1    C     C_R   0.271537 0.045059 0.853111 0.579624
C2    C     C_R   0.726496 0.040979 0.145102 0.583459
C3    C     C_R   0.772693 0.543139 0.854073 0.584493
C4    C     C_R   0.227265 0.542312 0.145315 0.591058
C5    C     C_3   0.511994 0.715693 0.969589 -0.109668
C6    C     C_3   0.473479 0.736980 0.039910 -0.090897
C7    C     C_3   0.019716 0.221474 0.964940 -0.111927
C8    C     C_3   0.979858 0.224382 0.035491 -0.099197
C9    C     C_3   0.308136 0.513204 0.040349 -0.224250
C10   C     C_3   0.688558 0.528194 0.956100 -0.215114
C11   C     C_3   0.810587 0.025643 0.043415 -0.209114
C12   C     C_3   0.182820 0.040572 0.953072 -0.219638
C13   C     C_3   0.311436 0.520850 0.958027 -0.257903
C14   C     C_3   0.680465 0.547933 0.036967 -0.248355
C15   C     C_3   0.820310 0.050892 0.963383 -0.242887
C16   C     C_3   0.174672 0.061869 0.034307 -0.245834
C17   C     C_3   0.176046 0.535942 0.026409 -0.273173
C18   C     C_3   0.821466 0.526428 0.973792 -0.275861
C19   C     C_3   0.678179 0.025920 0.024366 -0.275555
C20   C     C_3   0.312115 0.013815 0.973373 -0.285189
C21   C     C_3   0.250043 0.704417 0.056955 0.202283
C22   C     C_3   0.760278 0.707290 0.941789 0.204822
C23   C     C_3   0.740673 0.205787 0.059379 0.206202
C24   C     C_3   0.265729 0.207864 0.942628 0.209723
C25   C     C_3   0.241353 0.572820 0.069416 0.097474
C26   C     C_3   0.759494 0.574786 0.929415 0.099079
C27   C     C_3   0.739961 0.072770 0.070032 0.097402
C28   C     C_3   0.256396 0.076602 0.928280 0.098482
C29   C     C_3   0.255110 0.607101 0.931157 0.024620
C30   C     C_3   0.745105 0.610985 0.067308 0.017645
C31   C     C_3   0.755856 0.114161 0.933191 0.016297
C32   C     C_3   0.242288 0.113558 0.066329 0.012951
C33   C     C_3   0.184085 0.553913 0.945881 -0.262491
C34   C     C_3   0.807280 0.530493 0.054684 -0.273271
C35   C     C_3   0.692996 0.035040 0.943961 -0.267892
C36   C     C_3   0.298971 0.023205 0.054280 -0.275515
C37   C     C_3   0.263379 0.721877 0.975803 -0.196614
C38   C     C_3   0.759158 0.726610 0.024043 -0.184791
C39   C     C_3   0.742371 0.228445 0.977615 -0.186922
C40   C     C_3   0.262661 0.226641 0.024300 -0.184303
C41   C     C_3   0.495226 0.699852 0.458293 -0.234218
C42   C     C_3   0.492578 0.700136 0.538293 -0.228095
C43   C     C_3   0.003283 0.201263 0.460220 -0.227854
C44   C     C_3   0.996492 0.201216 0.539597 -0.228018
C45   C     C_R   0.445675 0.817498 0.862530 0.542483
C46   C     C_R   0.556893 0.817228 0.137918 0.539685
C47   C     C_R   0.945118 0.317238 0.862325 0.538371
C48   C     C_R   0.056116 0.317070 0.137714 0.539192
C49   C     C_3   0.567618 0.884112 0.473232 -0.226292
C50   C     C_3   0.436813 0.909490 0.526489 -0.216181
C51   C     C_3   0.065503 0.403943 0.474345 -0.219291
C52   C     C_3   0.935919 0.404727 0.525915 -0.219119
C53   C     C_3   0.443821 0.898518 0.444483 -0.254863
C54   C     C_3   0.558422 0.882524 0.555387 -0.261274
C55   C     C_3   0.942564 0.388720 0.443874 -0.260656
C56   C     C_3   0.059444 0.386534 0.556271 -0.261621
C57   C     C_3   0.508298 0.827212 0.430049 0.058064
C58   C     C_3   0.488228 0.828494 0.568606 0.063196
C59   C     C_3   0.011461 0.328897 0.431085 0.061157
C60   C     C_3   0.989524 0.328939 0.569128 0.061723
C61   C     C_3   0.179448 0.647247 0.459153 -0.228277
C62   C     C_3   0.823139 0.641684 0.539350 -0.228086
C63   C     C_3   0.684080 0.161582 0.456772 -0.235225
C64   C     C_3   0.320079 0.146738 0.540795 -0.228972
C65   C     C_3   0.184285 0.659797 0.538437 -0.227830
C66   C     C_3   0.821023 0.646698 0.459306 -0.234251
C67   C     C_3   0.685975 0.165890 0.536785 -0.228204
C68   C     C_3   0.315222 0.159272 0.461574 -0.228694
C69   C     C_3   0.252234 0.454916 0.473098 -0.218614
C70   C     C_3   0.744615 0.454760 0.526873 -0.216076
C71   C     C_3   0.740614 0.961317 0.472359 -0.226017
C72   C     C_3   0.247170 0.955102 0.526962 -0.217924
C73   C     C_3   0.304046 0.647369 0.442034 -0.261850
C74   C     C_3   0.698401 0.648946 0.557401 -0.261867
C75   C     C_3   0.809860 0.136627 0.442735 -0.254842
C76   C     C_3   0.195220 0.147916 0.557718 -0.261919
C77   C     C_3   0.240080 0.572362 0.429962 0.064131
C78   C     C_3   0.760616 0.570917 0.569443 0.066060
C79   C     C_3   0.741212 0.077298 0.428943 0.060323
C80   C     C_3   0.259199 0.072569 0.570082 0.064336
C81   C     C_3   0.252633 0.606448 0.567457 0.064029
C82   C     C_3   0.749574 0.604119 0.431599 0.060476
C83   C     C_3   0.753124 0.108423 0.566979 0.064956
C84   C     C_3   0.246751 0.106356 0.432512 0.063340
C85   C     C_3   0.247041 0.473469 0.554815 -0.262781
C86   C     C_3   0.744614 0.472558 0.445158 -0.255924
C87   C     C_3   0.745301 0.976896 0.554243 -0.262503
C88   C     C_3   0.251454 0.973519 0.445143 -0.261758
C89   C     C_R   0.261754 0.639849 0.854211 0.551758
C90   C     C_R   0.737642 0.642875 0.144599 0.546249
C91   C     C_R   0.763363 0.146497 0.856308 0.546722
C92   C     C_R   0.236648 0.145111 0.143837 0.545191
C93   C     C_3   0.316960 0.648943 0.523802 -0.220399
C94   C     C_3   0.692415 0.664655 0.475620 -0.229440
C95   C     C_3   0.819248 0.144499 0.524647 -0.217041
C96   C     C_3   0.182397 0.148925 0.475947 -0.219474
C97   C     C_R   0.273029 0.043312 0.645800 0.546068
C98   C     C_R   0.727691 0.045837 0.353199 0.546203
C99   C     C_R   0.773567 0.542269 0.645343 0.548253
C100  C     C_R   0.226685 0.542943 0.354308 0.548601
C101  C     C_R   0.468103 0.822938 0.645072 0.547926
C102  C     C_R   0.529860 0.822823 0.353726 0.547433
C103  C     C_R   0.968492 0.323020 0.645313 0.547554
C104  C     C_R   0.032014 0.322955 0.354887 0.548813
C105  C     C_R   0.261001 0.640607 0.643440 0.544982
C106  C     C_R   0.739886 0.638580 0.355667 0.543870
C107  C     C_R   0.761149 0.141231 0.643211 0.546091
C108  C     C_R   0.238894 0.140571 0.356543 0.545816
C109  C     C_3   0.492495 0.926998 0.031204 -0.122509
C110  C     C_3   0.531210 0.905536 0.960182 -0.093781
C111  C     C_3   0.982132 0.417720 0.034687 -0.102302
C112  C     C_3   0.023032 0.414829 0.963633 -0.104975
C113  C     C_3   0.435089 0.842114 0.006926 -0.165863
C114  C     C_3   0.569339 0.799767 0.994507 -0.146605
C115  C     C_3   0.932940 0.321420 0.005678 -0.155850
C116  C     C_3   0.069579 0.315666 0.993744 -0.166641
C117  C     C_3   0.473863 0.821449 0.936360 0.052782
C118  C     C_3   0.530094 0.821841 0.064217 0.037793
C119  C     C_3   0.973641 0.320175 0.935572 0.048929
C120  C     C_3   0.028726 0.320107 0.063923 0.047764
Cr1   Cr    Cr6+3 0.229620 0.836040 0.749110 0.998853
Cr2   Cr    Cr6+3 0.770380 0.836040 0.250890 1.001088
Cr3   Cr    Cr6+3 0.729620 0.336040 0.749110 1.001629
Cr4   Cr    Cr6+3 0.270380 0.336040 0.250890 1.002966
Cr5   Cr    Cr6+3 0.387630 0.990680 0.750730 1.005610
Cr6   Cr    Cr6+3 0.612370 0.990680 0.249270 1.004015
Cr7   Cr    Cr6+3 0.887630 0.490680 0.750730 1.003097
Cr8   Cr    Cr6+3 0.112370 0.490680 0.249270 1.003951
Cr9   Cr    Cr6+3 0.386020 0.676590 0.749210 1.005145
Cr10  Cr    Cr6+3 0.613980 0.676590 0.250790 1.003391
Cr11  Cr    Cr6+3 0.886020 0.176590 0.749210 1.002394
Cr12  Cr    Cr6+3 0.113980 0.176590 0.250790 1.003162
H1    H     H_    0.383953 0.853024 0.028413 0.183886
H2    H     H_    0.623419 0.777059 0.990290 0.181386
H3    H     H_    0.878422 0.309610 0.016000 0.182946
H4    H     H_    0.124399 0.301302 0.984285 0.176726
H5    H     H_    0.202980 0.753708 0.073016 0.125622
H6    H     H_    0.807689 0.748403 0.919554 0.133713
H7    H     H_    0.693715 0.247594 0.082082 0.133177
H8    H     H_    0.316931 0.237543 0.923002 0.130747
H9    H     H_    0.317374 0.745945 0.967677 0.125789
H10   H     H_    0.724002 0.795588 0.040123 0.113481
H11   H     H_    0.779043 0.295872 0.963402 0.113932
H12   H     H_    0.227978 0.298991 0.038121 0.124162
H13   H     H_    0.228629 0.790829 0.955359 0.099849
H14   H     H_    0.812007 0.754106 0.039082 0.088947
H15   H     H_    0.690215 0.258876 0.962561 0.086862
H16   H     H_    0.316124 0.247447 0.041299 0.089354
H17   H     H_    0.631526 0.080178 0.035460 0.119628
H18   H     H_    0.363919 0.052091 0.962366 0.125942
H19   H     H_    0.130475 0.588429 0.043601 0.127727
H20   H     H_    0.868107 0.581563 0.963978 0.121676
H21   H     H_    0.142955 0.614810 0.926782 0.126125
H22   H     H_    0.853523 0.563980 0.083551 0.135373
H23   H     H_    0.647760 0.073733 0.916083 0.130082
H24   H     H_    0.347353 0.049085 0.082412 0.141140
H25   H     H_    0.534261 0.634048 0.442537 0.135410
H26   H     H_    0.451317 0.642143 0.555564 0.137257
H27   H     H_    0.045493 0.142634 0.445713 0.135482
H28   H     H_    0.953784 0.143960 0.553876 0.135689
H29   H     H_    0.446976 0.665518 0.435722 0.117189
H30   H     H_    0.539348 0.655935 0.559761 0.115312
H31   H     H_    0.957403 0.158919 0.435667 0.118093
H32   H     H_    0.041721 0.156886 0.564008 0.115929
H33   H     H_    0.608794 0.826891 0.460310 0.110667
H34   H     H_    0.384069 0.899149 0.544097 0.110792
H35   H     H_    0.117374 0.395745 0.454505 0.111351
H36   H     H_    0.883406 0.395719 0.544869 0.111620
H37   H     H_    0.599208 0.829777 0.581943 0.109987
H38   H     H_    0.398957 0.852472 0.420858 0.108905
H39   H     H_    0.101242 0.330105 0.577136 0.112707
H40   H     H_    0.899653 0.336496 0.421625 0.111547
H41   H     H_    0.484536 0.014576 0.056659 0.119867
H42   H     H_    0.551637 0.974947 0.924694 0.127653
H43   H     H_    0.967555 0.499254 0.063817 0.120388
H44   H     H_    0.039689 0.493652 0.933093 0.121094
H45   H     H_    0.448135 0.987219 0.419454 0.117038
H46   H     H_    0.561420 0.973330 0.577766 0.113046
H47   H     H_    0.942850 0.474816 0.415834 0.111960
H48   H     H_    0.062575 0.472573 0.584675 0.111612
H49   H     H_    0.451587 0.001262 0.539832 0.120168
H50   H     H_    0.576667 0.975252 0.454831 0.129852
H51   H     H_    0.950513 0.497244 0.536641 0.118583
H52   H     H_    0.051847 0.497100 0.464412 0.117231
H53   H     H_    0.129002 0.611785 0.445327 0.134652
H54   H     H_    0.873061 0.608857 0.556468 0.136249
H55   H     H_    0.631109 0.136481 0.441074 0.135866
H56   H     H_    0.370240 0.110070 0.554182 0.135164
H57   H     H_    0.179521 0.736080 0.433976 0.116604
H58   H     H_    0.822389 0.733185 0.561081 0.115247
H59   H     H_    0.691674 0.250329 0.433990 0.117634
H60   H     H_    0.320725 0.235558 0.566126 0.116628
H61   H     H_    0.178039 0.752868 0.551865 0.135046
H62   H     H_    0.834566 0.738028 0.443830 0.134622
H63   H     H_    0.677831 0.256447 0.553813 0.136385
H64   H     H_    0.321814 0.252437 0.448297 0.134895
H65   H     H_    0.139498 0.615983 0.563810 0.116596
H66   H     H_    0.861656 0.591470 0.436211 0.117718
H67   H     H_    0.640342 0.118751 0.558303 0.115093
H68   H     H_    0.359740 0.114798 0.436073 0.118075
H69   H     H_    0.691160 0.928309 0.459721 0.111500
H70   H     H_    0.278396 0.882002 0.545727 0.112143
H71   H     H_    0.222206 0.380785 0.453758 0.111824
H72   H     H_    0.776561 0.380464 0.543197 0.111145
H73   H     H_    0.698647 0.942653 0.581146 0.109301
H74   H     H_    0.299892 0.938508 0.423392 0.110560
H75   H     H_    0.197866 0.439218 0.575710 0.112727
H76   H     H_    0.788289 0.425432 0.420070 0.108615
H77   H     H_    0.347294 0.605982 0.412977 0.113614
H78   H     H_    0.651189 0.607467 0.579393 0.114238
H79   H     H_    0.851860 0.083740 0.418368 0.118221
H80   H     H_    0.150632 0.109273 0.586346 0.112763
H81   H     H_    0.297313 0.737795 0.420720 0.113472
H82   H     H_    0.705116 0.735090 0.584975 0.109758
H83   H     H_    0.809760 0.225111 0.417911 0.106609
H84   H     H_    0.203304 0.238307 0.578588 0.112371
H85   H     H_    0.520015 0.627596 0.944832 0.124096
H86   H     H_    0.450229 0.667155 0.073497 0.159504
H87   H     H_    0.032776 0.138733 0.936365 0.126619
H88   H     H_    0.962955 0.144673 0.065034 0.135858
H89   H     H_    0.338648 0.731847 0.542608 0.111911
H90   H     H_    0.701712 0.754804 0.464590 0.111842
H91   H     H_    0.839536 0.229546 0.541257 0.111315
H92   H     H_    0.161370 0.231441 0.456865 0.112202
H93   H     H_    0.356748 0.581390 0.533639 0.118520
H94   H     H_    0.641475 0.634966 0.457050 0.129281
H95   H     H_    0.858530 0.077803 0.538613 0.120664
H96   H     H_    0.141821 0.082542 0.465822 0.118420
H97   H     H_    0.306153 0.429110 0.462576 0.118192
H98   H     H_    0.691137 0.431234 0.540882 0.120828
H99   H     H_    0.781894 0.901906 0.454012 0.130943
H100  H     H_    0.193447 0.928944 0.538153 0.119605
H101  H     H_    0.289310 0.426358 0.583015 0.112431
H102  H     H_    0.695858 0.439447 0.421164 0.117293
H103  H     H_    0.790004 0.927532 0.576341 0.113372
H104  H     H_    0.208496 0.927203 0.417468 0.112627
H105  H     H_    0.314602 0.423805 0.059350 0.114736
H106  H     H_    0.681589 0.435171 0.943047 0.110653
H107  H     H_    0.815900 0.931834 0.053912 0.106443
H108  H     H_    0.170662 0.947506 0.940541 0.110966
H109  H     H_    0.353938 0.558080 0.063191 0.170221
H110  H     H_    0.645858 0.573313 0.927283 0.179317
H111  H     H_    0.853220 0.066738 0.074382 0.176793
H112  H     H_    0.144383 0.093321 0.923038 0.171337
H113  H     H_    0.363723 0.551829 0.942606 0.129961
H114  H     H_    0.633397 0.600314 0.047548 0.131929
H115  H     H_    0.866649 0.107097 0.955877 0.134512
H116  H     H_    0.131032 0.122068 0.044542 0.133184
H117  H     H_    0.303923 0.433459 0.933331 0.172196
H118  H     H_    0.673157 0.461426 0.064071 0.125179
H119  H     H_    0.829243 0.966584 0.934243 0.128000
H120  H     H_    0.161793 0.976873 0.061020 0.121626
H121  H     H_    0.662461 0.938201 0.040900 0.107214
H122  H     H_    0.314337 0.923807 0.954594 0.102994
H123  H     H_    0.163532 0.445535 0.040272 0.108476
H124  H     H_    0.836940 0.441424 0.952892 0.100971
H125  H     H_    0.702578 0.948528 0.920289 0.230296
H126  H     H_    0.282051 0.938171 0.076341 0.209082
H127  H     H_    0.177268 0.469610 0.916727 0.213174
H128  H     H_    0.796102 0.442684 0.075521 0.224607
O1    O     O_R   0.214130 0.708570 0.829890 -0.528042
O2    O     O_R   0.785870 0.708570 0.170110 -0.526662
O3    O     O_R   0.714130 0.208570 0.829890 -0.526435
O4    O     O_R   0.285870 0.208570 0.170110 -0.525595
O5    O     O_R   0.446360 0.919990 0.675230 -0.507095
O6    O     O_R   0.553640 0.919990 0.324770 -0.506558
O7    O     O_R   0.946360 0.419990 0.675230 -0.507395
O8    O     O_R   0.053640 0.419990 0.324770 -0.507210
O9    O     O_R   0.457170 0.717300 0.668380 -0.528069
O10   O     O_R   0.542830 0.717300 0.331620 -0.527397
O11   O     O_R   0.957170 0.217300 0.668380 -0.528603
O12   O     O_R   0.042830 0.217300 0.331620 -0.527823
O13   O     O_R   0.320870 0.624890 0.673130 -0.509582
O14   O     O_R   0.679130 0.624890 0.326870 -0.509550
O15   O     O_R   0.820870 0.124890 0.673130 -0.508783
O16   O     O_R   0.179130 0.124890 0.326870 -0.509270
O17   O     O_3   0.334430 0.834430 0.749680 -0.291601
O18   O     O_3   0.665570 0.834430 0.250320 -0.293626
O19   O     O_3   0.834430 0.334430 0.749680 -0.294483
O20   O     O_3   0.165570 0.334430 0.250320 -0.296542
O21   O     O_R   0.236050 0.959150 0.825270 -0.517648
O22   O     O_R   0.763950 0.959150 0.174730 -0.514166
O23   O     O_R   0.736050 0.459150 0.825270 -0.514936
O24   O     O_R   0.263950 0.459150 0.174730 -0.512673
O25   O     O_R   0.332100 0.076650 0.832310 -0.535937
O26   O     O_R   0.667900 0.076650 0.167690 -0.540517
O27   O     O_R   0.832100 0.576650 0.832310 -0.539275
O28   O     O_R   0.167900 0.576650 0.167690 -0.537977
O29   O     O_R   0.446500 0.918620 0.826240 -0.502390
O30   O     O_R   0.553500 0.918620 0.173760 -0.499364
O31   O     O_R   0.946500 0.418620 0.826240 -0.501836
O32   O     O_R   0.053500 0.418620 0.173760 -0.500752
O33   O     O_R   0.457310 0.715830 0.831280 -0.512610
O34   O     O_R   0.542690 0.715830 0.168720 -0.515400
O35   O     O_R   0.957310 0.215830 0.831280 -0.517055
O36   O     O_R   0.042690 0.215830 0.168720 -0.514377
O37   O     O_R   0.321000 0.623520 0.824130 -0.514355
O38   O     O_R   0.679000 0.623520 0.175870 -0.514950
O39   O     O_R   0.821000 0.123520 0.824130 -0.513068
O40   O     O_R   0.179000 0.123520 0.175870 -0.514201
O41   O     O_R   0.213990 0.710040 0.667000 -0.532324
O42   O     O_R   0.786010 0.710040 0.333000 -0.531870
O43   O     O_R   0.713990 0.210040 0.667000 -0.531890
O44   O     O_R   0.286010 0.210040 0.333000 -0.531356
O45   O     O_R   0.235920 0.960520 0.674260 -0.510802
O46   O     O_R   0.764080 0.960520 0.325740 -0.509318
O47   O     O_R   0.735920 0.460520 0.674260 -0.509963
O48   O     O_R   0.264080 0.460520 0.325740 -0.509405
O49   O     O_R   0.331960 0.078120 0.669410 -0.530564
O50   O     O_R   0.668040 0.078120 0.330590 -0.530374
O51   O     O_R   0.831960 0.578120 0.669410 -0.530810
O52   O     O_R   0.168040 0.578120 0.330590 -0.530434
F1    F     F_    0.304535 0.744512 0.098415 -0.700327
F2    F     F_    0.705170 0.756258 0.905918 -0.706259
F3    F     F_    0.796599 0.251454 0.095819 -0.705306
F4    F     F_    0.216340 0.272111 0.906288 -0.705516

loop_
_geom_bond_atom_site_label_1
_geom_bond_atom_site_label_2
_ccdc_geom_bond_type
C82   C94   S    
C55   C59   S    
C35   H125  S    
C83   C87   S    
C73   C93   S    
C47   O31   A    
C42   C58   S    
C29   C89   S    
C16   H120  S    
C89   O37   A    
C48   C120  S    
C24   H8    S    
C57   C102  S    
Cr6   O18   S    
Cr7   O7    S    
C85   H101  S    
C59   C104  S    
C63   H55   S    
Cr1   O17   S    
C5    C6    S    
Cr10  O10   S    
C109  H41   S    
Cr4   O4    S    
Cr12  O16   S    
C29   C33   S    
C87   H103  S    
C30   C38   S    
C77   C100  S    
C9    C13   S    
C87   H73   S    
C11   C15   S    
C5    H85   S    
C12   C16   S    
C98   O50   A    
C99   O47   A    
C19   H17   S    
C21   H5    S    
C60   C103  S    
C107  O15   A    
Cr4   O24   S    
C83   C107  S    
C113  H1    S    
C74   H82   S    
C61   H57   S    
C54   H37   S    
C17   H19   S    
C18   H20   S    
C64   H60   S    
C109  C118  S    
C16   H116  S    
C70   H72   S    
Cr5   O25   S    
C50   C53   S    
C75   C95   S    
C7    C119  S    
Cr8   O28   S    
C62   H58   S    
C62   C66   S    
Cr2   O2    S    
C20   C28   S    
C18   H124  S    
Cr12  O36   S    
C43   C44   S    
C66   C82   S    
Cr9   O33   S    
C58   C101  S    
C105  O41   A    
C92   O4    A    
C107  O43   A    
C53   H38   S    
C116  H4    S    
C108  O44   A    
C56   H39   S    
C89   O1    A    
Cr5   O49   S    
C55   H40   S    
C91   O3    A    
Cr1   O45   S    
Cr5   O5    S    
Cr2   O42   S    
C3    C26   S    
C84   C88   S    
C31   C91   S    
C53   H45   S    
Cr12  O12   S    
C13   H117  S    
Cr10  O34   S    
C17   C25   S    
C19   C35   S    
C76   C96   S    
C1    O21   A    
C32   C92   S    
C75   H83   S    
Cr3   O19   S    
C95   H95   S    
C22   C26   S    
C61   C65   S    
C12   H108  S    
C78   C99   S    
C45   O29   A    
C75   C79   S    
Cr5   O29   S    
C22   C38   S    
C67   C83   S    
C80   C97   S    
C11   H111  S    
C69   C77   S    
C111  C112  S    
C24   F4    S    
C9    H109  S    
C71   C79   S    
C4    C25   S    
Cr4   O20   S    
C7    C8    S    
Cr10  O38   S    
Cr4   O44   S    
C96   H96   S    
C73   H77   S    
C35   H23   S    
C43   H27   S    
C64   C68   S    
C100  O52   A    
C33   H21   S    
C49   C57   S    
Cr11  O11   S    
Cr9   O37   S    
C38   H14   S    
C52   C60   S    
C19   H121  S    
C61   C77   S    
C12   H112  S    
C11   C27   S    
C93   H93   S    
C36   H126  S    
C47   O35   A    
C110  C114  S    
C48   O36   A    
C43   C59   S    
C62   H54   S    
C76   H80   S    
C10   H106  S    
C6    H86   S    
Cr1   O21   S    
Cr2   O18   S    
C110  H42   S    
Cr12  O20   S    
C81   C105  S    
C30   C34   S    
C10   C14   S    
C101  O9    A    
C95   H91   S    
C116  C120  S    
C103  O11   A    
C7    C116  S    
C69   H97   S    
C33   H127  S    
C61   H53   S    
C114  H2    S    
C34   H128  S    
C64   H56   S    
C66   H66   S    
C113  C117  S    
C112  H44   S    
C115  C119  S    
Cr6   O26   S    
C9    H105  S    
Cr4   O48   S    
C112  C116  S    
C69   C85   S    
C85   H75   S    
C72   H70   S    
C56   H48   S    
C45   C117  S    
C21   C25   S    
C73   C77   S    
Cr12  O40   S    
C55   H47   S    
C62   C78   S    
C76   C80   S    
C42   H30   S    
C15   C31   S    
C16   C32   S    
C97   O45   A    
C105  O13   A    
C106  O42   A    
C72   C80   S    
C115  H3    S    
C4    O24   A    
C20   H18   S    
C103  O7    A    
C82   C106  S    
C90   O2    A    
Cr6   O50   S    
Cr8   O32   S    
C94   H90   S    
Cr6   O6    S    
C46   O34   A    
Cr7   O19   S    
Cr8   O20   S    
C81   C85   S    
C13   H113  S    
C21   F1    S    
C41   H29   S    
C41   C42   S    
C74   C94   S    
Cr9   O13   S    
C18   C26   S    
C30   C90   S    
Cr11  O39   S    
C1    O25   A    
C9    C25   S    
C2    O22   A    
C3    O27   A    
C75   H79   S    
C86   H102  S    
C37   H9    S    
C12   C28   S    
C13   C29   S    
C67   H67   S    
C98   O46   A    
C92   O40   A    
C46   C118  S    
C66   H62   S    
Cr6   O30   S    
C51   H35   S    
C106  O14   A    
C50   H34   S    
C1    C28   S    
C2    C27   S    
Cr10  O14   S    
C72   H100  S    
Cr11  O19   S    
C52   C55   S    
C64   C80   S    
C73   H81   S    
C42   H26   S    
C17   C33   S    
C110  C117  S    
C65   H61   S    
C34   H22   S    
C40   H16   S    
C68   C84   S    
C24   C28   S    
C51   H52   S    
C86   H76   S    
C53   C57   S    
C82   C86   S    
C56   C60   S    
C50   C58   S    
C104  O12   A    
C49   H33   S    
C48   O32   A    
Cr7   O27   S    
C76   H84   S    
C65   C81   S    
C91   O39   A    
Cr8   O8    S    
C68   H64   S    
C20   H122  S    
Cr2   O22   S    
C41   H25   S    
C15   H115  S    
C44   H28   S    
C31   C35   S    
C32   C36   S    
C36   H24   S    
C101  O5    A    
C102  O10   A    
C108  O16   A    
C112  C119  S    
C14   H118  S    
C22   H6    S    
C41   C57   S    
C109  C110  S    
Cr5   O17   S    
C44   C60   S    
C63   H59   S    
C84   C108  S    
C94   H94   S    
C20   C36   S    
C54   H46   S    
C21   C37   S    
C74   C78   S    
C29   C37   S    
C44   H32   S    
C43   H31   S    
C97   O49   A    
C5    C114  S    
C70   C78   S    
C79   C98   S    
C99   O51   A    
C10   H110  S    
C52   H51   S    
C63   C79   S    
C4    O28   A    
C74   H78   S    
C111  H43   S    
C23   H7    S    
C46   O30   A    
C11   H107  S    
C49   C54   S    
Cr3   O47   S    
C51   C56   S    
C84   C96   S    
C8    C115  S    
Cr1   O1    S    
Cr3   O3    S    
C96   H92   S    
C22   F2    S    
Cr9   O17   S    
C23   C27   S    
C19   C27   S    
C109  C113  S    
C2    O26   A    
C7    H87   S    
C10   C26   S    
C47   C119  S    
C38   H10   S    
C14   C30   S    
C67   H63   S    
C72   C88   S    
C88   H104  S    
C63   C67   S    
Cr7   O31   S    
Cr1   O41   S    
C5    C117  S    
C111  C120  S    
Cr10  O18   S    
Cr3   O43   S    
C70   H98   S    
C6    C113  S    
Cr11  O15   S    
C8    H88   S    
C81   C93   S    
C83   C95   S    
Cr11  O35   S    
C23   F3    S    
C18   C34   S    
C114  C118  S    
C65   H65   S    
C39   H11   S    
C69   H71   S    
C40   H12   S    
C71   C87   S    
C50   H49   S    
C51   C59   S    
C70   C86   S    
C8    C120  S    
Cr2   O46   S    
C54   C58   S    
C71   H69   S    
C17   H123  S    
C45   O33   A    
C104  O8    A    
C88   H74   S    
C111  C115  S    
Cr7   O51   S    
Cr8   O52   S    
C68   H68   S    
C71   H99   S    
Cr3   O23   S    
C52   H36   S    
C90   O38   A    
C15   H119  S    
C23   C39   S    
C3    O23   A    
C24   C40   S    
C31   C39   S    
C32   C40   S    
Cr9   O9    S    
C49   H50   S    
C100  O48   A    
C102  O6    A    
C39   H15   S    
C93   H89   S    
C37   H13   S    
C6    C118  S    
C14   H114  S    
