data_mof_unit_62359.cif
_audit_creation_date              2012-12-10T20:01:42-0500
_audit_creation_method            fapswitch 2.2
_symmetry_space_group_name_H-M    P1
_symmetry_Int_Tables_number       1
_space_group_crystal_system       triclinic
_cell_length_a                    14.1058
_cell_length_b                    14.903949
_cell_length_c                    16.817646
_cell_angle_alpha                 89.505528
_cell_angle_beta                  95.276042
_cell_angle_gamma                 89.97059
_cell_volume                      3520.49575231

loop_
_atom_site_label
_atom_site_type_symbol
_atom_type_description
_atom_site_fract_x
_atom_site_fract_y
_atom_site_fract_z
_atom_type_partial_charge
C1    C     C_R   0.500518 0.327095 0.504334 1.011558
C2    C     C_R   0.581024 0.908636 0.465142 0.354630
C3    C     C_R   0.502466 0.045582 0.518955 -0.202563
C4    C     C_R   0.498288 0.954558 0.482797 -0.201240
C5    C     C_R   0.110317 0.436381 0.546675 0.350411
C6    C     C_R   0.898771 0.571329 0.535612 0.344001
C7    C     C_R   0.209944 0.438331 0.545338 0.016988
C8    C     C_R   0.798883 0.569150 0.534644 0.064898
C9    C     C_R   0.198915 0.561270 0.455135 0.113386
C10   C     C_R   0.792504 0.431282 0.465850 0.073397
C11   C     C_R   0.099260 0.562376 0.455116 -0.207571
C12   C     C_R   0.499521 0.672921 0.495793 1.012824
C13   C     C_R   0.892173 0.430201 0.466015 -0.205644
C14   C     C_R   0.053356 0.499515 0.501127 0.028075
C15   C     C_R   0.946954 0.500686 0.501040 0.028730
C16   C     C_R   0.513088 0.497431 0.653651 0.991266
C17   C     C_R   0.486907 0.502557 0.346338 0.986476
C18   C     C_R   0.522443 0.488678 0.740049 -0.346919
C19   C     C_R   0.477561 0.511080 0.259902 -0.344275
C20   C     C_R   0.444880 0.456148 0.777790 -0.344236
C21   C     C_R   0.555363 0.542894 0.222071 -0.354065
C22   C     C_R   0.450633 0.449322 0.860030 0.663280
C23   C     C_R   0.589351 0.184331 0.529269 0.541988
C24   C     C_R   0.549701 0.549365 0.139821 0.655342
C25   C     C_R   0.533989 0.476772 0.905604 -0.003635
C26   C     C_R   0.466193 0.522206 0.094291 0.003188
C27   C     C_R   0.613958 0.503696 0.868112 0.268765
C28   C     C_R   0.386007 0.496030 0.131839 0.266846
C29   C     C_R   0.608160 0.510255 0.785217 0.588841
C30   C     C_R   0.391697 0.489892 0.214762 0.575584
C31   C     C_R   0.589161 0.091498 0.535693 0.352214
C32   C     C_R   0.411490 0.908855 0.465785 0.354442
C33   C     C_R   0.411065 0.816007 0.471749 0.546695
C34   C     C_R   0.502142 0.230557 0.517654 -0.486602
C35   C     C_R   0.498124 0.769541 0.483011 -0.484243
C36   C     C_R   0.417815 0.184270 0.530017 0.551446
C37   C     C_R   0.582602 0.815760 0.470996 0.548689
C38   C     C_R   0.419689 0.091455 0.536512 0.355612
Cl1   Cl    Cl    0.719789 0.535183 0.924721 -0.289491
Cl2   Cl    Cl    0.279969 0.465018 0.075284 -0.296340
Cl3   Cl    Cl    0.690671 0.038942 0.585153 -0.327425
Cl4   Cl    Cl    0.310049 0.961782 0.416562 -0.346710
Cl5   Cl    Cl    0.329835 0.038857 0.586851 -0.330986
Cl6   Cl    Cl    0.671107 0.961318 0.415142 -0.351773
Cl7   Cl    Cl    0.059889 0.356220 0.607563 -0.405448
Cl8   Cl    Cl    0.961030 0.661624 0.582480 -0.409904
F1    F     F_    0.625988 0.580689 0.104415 -0.558056
F2    F     F_    0.374572 0.417424 0.895403 -0.550851
F3    F     F_    0.684650 0.540684 0.749466 -0.564145
F4    F     F_    0.314922 0.460272 0.250570 -0.573046
F5    F     F_    0.673844 0.228537 0.538263 -0.565404
F6    F     F_    0.326449 0.772050 0.462699 -0.578964
F7    F     F_    0.335396 0.228392 0.539651 -0.571997
F8    F     F_    0.664877 0.771512 0.461004 -0.570609
H1    H     H_    0.620901 0.562569 0.256112 0.245566
H2    H     H_    0.379477 0.436190 0.743686 0.243207
H3    H     H_    0.253713 0.390605 0.580957 0.207185
H4    H     H_    0.762147 0.622828 0.562006 0.211578
H5    H     H_    0.233551 0.609588 0.419201 0.201030
H6    H     H_    0.751059 0.376916 0.438339 0.189787
H7    H     H_    0.058119 0.611778 0.419112 0.210342
H8    H     H_    0.926373 0.374827 0.438634 0.210774
N1    N     N_2   0.536945 0.482339 0.989010 -0.014195
N2    N     N_2   0.463181 0.516450 0.010883 -0.012353
N3    N     N_R   0.252470 0.499980 0.500000 -0.141454
N4    N     N_R   0.747530 0.500020 0.500000 -0.142052
O1    O     O_R   0.579480 0.369070 0.499990 -0.580516
O2    O     O_R   0.420520 0.630930 0.500010 -0.575951
O3    O     O_R   0.420520 0.369060 0.499990 -0.570325
O4    O     O_R   0.579480 0.630940 0.500010 -0.581410
O5    O     O_R   0.588340 0.499180 0.616130 -0.557025
O6    O     O_R   0.411660 0.500820 0.383870 -0.566460
O7    O     O_R   0.429390 0.499170 0.616130 -0.637897
O8    O     O_R   0.570610 0.500830 0.383870 -0.638422
Zn1   Zn    Zn3+2 0.606140 0.500010 0.500000 1.060102
Zn2   Zn    Zn3+2 0.393860 0.499990 0.500000 1.061059

loop_
_geom_bond_atom_site_label_1
_geom_bond_atom_site_label_2
_ccdc_geom_bond_type
C22   F2    S    
C8    N4    A    
C27   C29   A    
C10   H6    S    
O6    Zn2   S    
C29   F3    S    
C33   F6    S    
C12   O2    A    
N3    Zn2   S    
C35   C37   A    
C24   C26   A    
C11   C14   A    
C28   Cl2   S    
O3    Zn2   S    
C25   N1    S    
C26   N2    S    
C36   F7    S    
C33   C35   A    
C6    C15   A    
C13   H8    S    
C3    C38   A    
C27   Cl1   S    
C22   C25   A    
C31   Cl3   S    
C34   C36   A    
C20   H2    S    
C8    H4    S    
C30   F4    S    
C16   O5    A    
C1    C34   S    
C10   N4    A    
O8    Zn1   S    
C16   O7    A    
C2    Cl6   S    
C5    C7    A    
C17   C19   S    
C6    C8    A    
C5    Cl7   S    
C1    O3    A    
C9    H5    S    
C23   C31   A    
C2    C4    A    
C7    N3    A    
C23   F5    S    
C23   C34   A    
C18   C29   A    
C12   C35   S    
C3    C31   A    
C9    C11   A    
C5    C14   A    
C4    C32   A    
C37   F8    S    
C20   C22   A    
C13   C15   A    
C17   O8    A    
O7    Zn2   S    
O1    Zn1   S    
C3    C4    S    
C21   H1    S    
C12   O4    A    
C6    Cl8   S    
C19   C21   A    
C24   F1    S    
C11   H7    S    
C10   C13   A    
O2    Zn2   S    
C26   C28   A    
C32   C33   A    
C36   C38   A    
C38   Cl5   S    
O5    Zn1   S    
C2    C37   A    
N4    Zn1   S    
C28   C30   A    
C1    O1    A    
C18   C20   A    
C9    N3    A    
N1    N2    D    
C17   O6    A    
C16   C18   S    
C21   C24   A    
O4    Zn1   S    
C32   Cl4   S    
C14   C15   S    
C19   C30   A    
C7    H3    S    
C25   C27   A    
