data_mof_unit_5817.cif
_audit_creation_date              2012-12-10T17:00:52-0500
_audit_creation_method            fapswitch 2.2
_symmetry_space_group_name_H-M    P1
_symmetry_Int_Tables_number       1
_space_group_crystal_system       triclinic
_cell_length_a                    10.654781
_cell_length_b                    10.57275
_cell_length_c                    10.051418
_cell_angle_alpha                 91.451565
_cell_angle_beta                  102.012915
_cell_angle_gamma                 90.51946
_cell_volume                      1107.02469638

loop_
_atom_site_label
_atom_site_type_symbol
_atom_type_description
_atom_site_fract_x
_atom_site_fract_y
_atom_site_fract_z
_atom_type_partial_charge
C1    C     C_R   0.498429 0.261769 0.497640 0.871191
C2    C     C_2   0.120688 0.473538 0.414975 -0.239442
C3    C     C_2   0.066060 0.396760 0.493431 0.172949
C4    C     C_2   0.877877 0.466703 0.576405 -0.256431
C5    C     C_2   0.926491 0.398743 0.481625 0.159542
C6    C     C_2   0.404554 0.929666 0.376842 -0.035831
C7    C     C_3   0.888905 0.232160 0.300157 -0.790183
C8    C     C_3   0.389896 0.305889 0.868981 -0.717816
C9    C     C_1   0.672361 0.649063 0.184383 0.274590
C10   C     C_3   0.107144 0.194858 0.604918 -0.809614
C11   C     C_1   0.958379 0.522804 0.698169 0.135800
C12   C     C_2   0.420646 0.860011 0.489602 -0.214442
C13   C     C_1   0.046865 0.537389 0.299046 0.153599
C14   C     C_1   0.396400 0.875395 0.241570 0.239661
C15   C     C_1   0.374424 0.907604 0.607598 0.199952
C16   C     C_3   0.311964 0.159869 0.172138 -0.723257
C17   C     C_3   0.707821 0.042791 0.516156 -0.795961
C18   C     C_3   0.570547 0.811260 0.910045 -0.716434
C19   C     C_2   0.403305 0.067556 0.391708 0.148523
C20   C     C_2   0.494557 0.126797 0.488587 -0.003771
C21   C     C_2   0.561870 0.585109 0.940824 0.237485
C22   C     C_2   0.576115 0.572867 0.094484 -0.077045
C23   C     C_R   0.258611 0.493665 0.444615 0.874282
C24   C     C_R   0.477338 0.734913 0.496510 0.908389
C25   C     C_R   0.741103 0.491672 0.553897 0.921820
H1    H     H_    0.420203 0.466050 0.084551 0.183157
H2    H     H_    0.153740 0.372521 0.693164 0.247517
H3    H     H_    0.116292 0.144109 0.509497 0.255075
H4    H     H_    0.007790 0.184918 0.621838 0.246647
H5    H     H_    0.172739 0.150242 0.690626 0.252761
H6    H     H_    0.263829 0.208724 0.358267 0.219522
H7    H     H_    0.307934 0.263352 0.155457 0.237592
H8    H     H_    0.230945 0.113141 0.099791 0.241501
H9    H     H_    0.403857 0.124833 0.150186 0.235514
H10   H     H_    0.618777 0.096571 0.671813 0.238939
H11   H     H_    0.776587 0.981398 0.582738 0.247085
H12   H     H_    0.813205 0.410878 0.288352 0.255170
H13   H     H_    0.754861 0.135838 0.509649 0.246393
H14   H     H_    0.681585 0.996600 0.413391 0.260356
H15   H     H_    0.721880 0.687576 0.920752 0.220913
H16   H     H_    0.602895 0.879074 0.841163 0.242402
H17   H     H_    0.604361 0.847004 0.016350 0.221128
H18   H     H_    0.464166 0.805946 0.886058 0.266489
H19   H     H_    0.812985 0.197848 0.213272 0.238304
H20   H     H_    0.907387 0.155685 0.374571 0.252101
H21   H     H_    0.977064 0.252929 0.261478 0.246664
H22   H     H_    0.577262 0.354211 0.979813 0.200494
H23   H     H_    0.404368 0.213985 0.920479 0.213308
H24   H     H_    0.358263 0.285017 0.759429 0.287505
H25   H     H_    0.313476 0.358544 0.905440 0.203385
N1    N     N_2   0.501330 0.501330 0.852460 -0.026555
N2    N     N_1   0.336274 0.946558 0.700017 -0.235164
N3    N     N_2   0.300338 0.134637 0.310108 -0.311265
N4    N     N_2   0.595391 0.060185 0.573420 -0.322109
N5    N     N_2   0.623266 0.688377 0.890858 -0.266305
N6    N     N_2   0.501370 0.501360 0.148130 -0.225355
N7    N     N_2   0.845249 0.344790 0.360849 -0.284384
N8    N     N_2   0.509150 0.377232 0.895106 -0.232289
N9    N     N_1   0.748735 0.711238 0.256417 -0.210975
N10   N     N_2   0.142286 0.326856 0.599726 -0.304053
N11   N     N_1   0.022284 0.567871 0.795425 -0.191205
N12   N     N_1   0.989166 0.588152 0.205653 -0.192615
N13   N     N_1   0.388423 0.832033 0.133281 -0.216909
O1    O     O_R   0.499980 0.319060 0.613030 -0.607868
O2    O     O_R   0.500020 0.319100 0.386910 -0.598556
O3    O     O_R   0.317800 0.500000 0.570840 -0.598011
O4    O     O_R   0.317840 0.500040 0.344720 -0.617517
O5    O     O_R   0.499980 0.680900 0.613090 -0.577455
O6    O     O_R   0.500020 0.680940 0.386970 -0.601427
O7    O     O_R   0.682160 0.499960 0.655280 -0.591559
O8    O     O_R   0.682200 0.500000 0.429160 -0.604453
Zn1   Zn    Zn3+2 0.499970 0.499970 0.650990 0.987735
Zn2   Zn    Zn3+2 0.500030 0.500030 0.349010 0.950812

loop_
_geom_bond_atom_site_label_1
_geom_bond_atom_site_label_2
_ccdc_geom_bond_type
C1    O2    A    
C8    H23   S    
O6    Zn2   S    
C16   H9    S    
O4    Zn2   S    
C17   H11   S    
C16   H8    S    
C6    C14   S    
C10   H5    S    
C10   N10   S    
C19   C20   D    
C12   C15   S    
C5    N7    S    
O5    Zn1   S    
H15   N5    S    
C4    C11   S    
C3    N10   S    
C19   N3    S    
O1    Zn1   S    
C4    C25   S    
C3    C5    S    
C21   N5    S    
N1    N8    S    
C18   H18   S    
H6    N3    S    
H10   N4    S    
C6    C19   S    
C17   N4    S    
C10   H4    S    
C7    H21   S    
C18   N5    S    
C25   O8    A    
C14   N13   T    
C7    H20   S    
C23   O3    A    
C21   C22   S    
C7    N7    S    
C24   O6    A    
C2    C3    D    
H2    N10   S    
C18   H17   S    
C6    C12   D    
H12   N7    S    
C9    C22   S    
N6    Zn2   S    
H22   N8    S    
N1    Zn1   S    
C24   O5    A    
C10   H3    S    
C7    H19   S    
C1    O1    A    
C8    H25   S    
C16   H7    S    
C21   N1    D    
O2    Zn2   S    
C17   H13   S    
C20   N4    S    
C17   H14   S    
C18   H16   S    
C23   O4    A    
C2    C23   S    
O8    Zn2   S    
C2    C13   S    
C12   C24   S    
C16   N3    S    
C1    C20   S    
C22   N6    D    
C25   O7    A    
C8    N8    S    
C15   N2    T    
C9    N9    T    
C8    H24   S    
O7    Zn1   S    
O3    Zn1   S    
C13   N12   T    
C4    C5    D    
C11   N11   T    
H1    N6    S    
