data_mof_unit_32872.cif
_audit_creation_date              2012-12-10T19:10:03-0500
_audit_creation_method            fapswitch 2.2
_symmetry_space_group_name_H-M    P1
_symmetry_Int_Tables_number       1
_space_group_crystal_system       triclinic
_cell_length_a                    10.771879
_cell_length_b                    10.81135
_cell_length_c                    9.535436
_cell_angle_alpha                 89.85052
_cell_angle_beta                  89.924809
_cell_angle_gamma                 89.923437
_cell_volume                      1110.47736672

loop_
_atom_site_label
_atom_site_type_symbol
_atom_type_description
_atom_site_fract_x
_atom_site_fract_y
_atom_site_fract_z
_atom_type_partial_charge
C1    C     C_R   0.499313 0.262321 0.500107 0.823332
C2    C     C_R   0.256913 0.867274 0.183981 -0.107781
C3    C     C_R   0.933514 0.583276 0.415781 -0.222102
C4    C     C_R   0.871781 0.496409 0.499742 -0.033223
C5    C     C_R   0.938859 0.412432 0.584159 0.101756
C6    C     C_R   0.067585 0.417975 0.583604 -0.182931
C7    C     C_R   0.128924 0.504510 0.500019 -0.077791
C8    C     C_R   0.062454 0.588373 0.415577 0.007733
C9    C     C_R   0.879707 0.304253 0.809317 0.125756
C10   C     C_R   0.829568 0.201367 0.878488 -0.132575
C11   C     C_R   0.783350 0.101694 0.801902 -0.254747
C12   C     C_R   0.262573 0.502826 0.500008 0.796536
C13   C     C_R   0.786523 0.104517 0.655657 -0.203889
C14   C     C_R   0.831899 0.208524 0.585256 0.585686
C15   C     C_R   0.879076 0.309363 0.661284 -0.064119
C16   C     C_R   0.490830 0.062927 0.624913 0.129623
C17   C     C_R   0.505937 0.129039 0.500213 -0.098445
C18   C     C_R   0.536680 0.064796 0.376947 -0.179815
C19   C     C_R   0.538008 0.935989 0.376947 -0.231739
C20   C     C_R   0.508914 0.870706 0.500203 -0.097994
C21   C     C_R   0.492727 0.935783 0.624925 0.102958
C22   C     C_3   0.391145 0.927399 0.731233 -0.458825
C23   C     C_R   0.500739 0.737613 0.499851 0.805625
C24   C     C_3   0.389168 0.067848 0.731389 -0.479144
C25   C     C_R   0.539934 0.601389 0.073170 0.249430
C26   C     C_R   0.447478 0.406042 0.074780 -0.062980
C27   C     C_R   0.447498 0.406060 0.925879 -0.053184
C28   C     C_R   0.538750 0.601869 0.925844 0.236024
C29   C     C_3   0.662902 0.661700 0.917763 -0.468390
C30   C     C_3   0.665816 0.658700 0.077101 -0.484241
C31   C     C_R   0.737701 0.497508 0.499958 0.825395
C32   C     C_R   0.220398 0.889577 0.322439 -0.104701
C33   C     C_R   0.155375 0.799114 0.397480 -0.171211
C34   C     C_R   0.125863 0.686027 0.333840 0.094975
C35   C     C_R   0.162133 0.664350 0.194635 -0.066046
C36   C     C_R   0.227794 0.754727 0.120118 -0.134067
Cu1   Cu    Cu3+1 0.499990 0.499980 0.640670 0.952788
Cu2   Cu    Cu3+1 0.500010 0.500020 0.359330 0.967619
H1    H     H_    0.308222 0.936938 0.126440 0.121286
H2    H     H_    0.746542 0.021498 0.855894 0.163871
H3    H     H_    0.753974 0.025682 0.596600 0.167910
H4    H     H_    0.555614 0.113461 0.279828 0.174102
H5    H     H_    0.556582 0.888173 0.279666 0.158644
H6    H     H_    0.304965 0.885504 0.688395 0.194864
H7    H     H_    0.423973 0.886945 0.831931 0.188642
H8    H     H_    0.301766 0.107983 0.688960 0.192673
H9    H     H_    0.421132 0.107669 0.832368 0.191714
H10   H     H_    0.406654 0.328981 0.130589 0.138412
H11   H     H_    0.243518 0.976482 0.372078 0.141442
H12   H     H_    0.406330 0.329405 0.870528 0.137037
H13   H     H_    0.733692 0.601712 0.867782 0.249601
H14   H     H_    0.657205 0.756965 0.873995 0.182821
H15   H     H_    0.737612 0.595167 0.120053 0.242551
H16   H     H_    0.664695 0.752375 0.124417 0.180248
H17   H     H_    0.128977 0.816598 0.505270 0.127216
H18   H     H_    0.141996 0.576669 0.145276 0.163113
H19   H     H_    0.256846 0.737190 0.013261 0.128048
H20   H     H_    0.881083 0.648691 0.352813 0.145081
H21   H     H_    0.120476 0.351784 0.645132 0.146084
H22   H     H_    0.828733 0.197492 0.991931 0.187054
N1    N     N_R   0.500790 0.500930 0.147930 -0.181589
N2    N     N_R   0.500790 0.500890 0.852020 -0.181294
O1    O     O_R   0.500000 0.319640 0.618810 -0.586537
O2    O     O_R   0.500010 0.319680 0.381230 -0.583799
O3    O     O_R   0.319640 0.499990 0.618790 -0.580286
O4    O     O_R   0.319650 0.500030 0.381210 -0.577226
O5    O     O_R   0.499990 0.680320 0.618770 -0.585502
O6    O     O_R   0.500000 0.680360 0.381190 -0.583227
O7    O     O_R   0.680350 0.499970 0.618790 -0.585923
O8    O     O_R   0.680360 0.500010 0.381210 -0.561189
F1    F     F_    0.834204 0.208988 0.442888 -0.678171
I1    I     I_    0.959011 0.445440 0.934214 -0.472963

loop_
_geom_bond_atom_site_label_1
_geom_bond_atom_site_label_2
_ccdc_geom_bond_type
C23   O6    A    
C33   H17   S    
C10   H22   S    
Cu2   O8    S    
C28   N2    A    
C16   C21   A    
C27   N2    A    
Cu1   O7    S    
C11   C13   A    
C12   O3    A    
C2    H1    S    
C1    C17   S    
C19   C20   A    
C20   C23   S    
C26   H10   S    
C3    H20   S    
C29   H14   S    
Cu2   N1    S    
C24   H8    S    
C32   C33   A    
C13   H3    S    
C33   C34   A    
C9    C15   A    
C7    C8    A    
C16   C24   S    
C8    C34   S    
C21   C22   S    
C25   C28   A    
C30   H16   S    
C26   C27   A    
C29   C30   S    
C5    C6    A    
C1    O1    A    
C9    C10   A    
C28   C29   S    
Cu1   O1    S    
Cu1   Cu2   S    
C19   H5    S    
C34   C35   A    
C6    C7    A    
Cu2   O2    S    
C18   H4    S    
C17   C18   A    
C11   H2    S    
C32   H11   S    
C30   H15   S    
C22   C24   S    
C7    C12   S    
C5    C15   S    
C4    C31   S    
C16   C17   A    
C10   C11   A    
C29   H13   S    
C23   O5    A    
C3    C4    A    
C1    O2    A    
Cu1   O5    S    
C31   O7    A    
C22   H7    S    
C20   C21   A    
C36   H19   S    
C27   H12   S    
C2    C32   A    
C3    C8    A    
C14   F1    S    
C2    C36   A    
C25   C30   S    
Cu1   N2    S    
C14   C15   A    
C18   C19   A    
C9    I1    S    
C25   N1    A    
C35   H18   S    
C13   C14   A    
C24   H9    S    
C12   O4    A    
C6    H21   S    
C26   N1    A    
C31   O8    A    
C22   H6    S    
Cu2   O4    S    
Cu2   O6    S    
C4    C5    A    
C35   C36   A    
Cu1   O3    S    
