data_mof_unit_41851.cif
_audit_creation_date              2012-12-10T19:46:00-0500
_audit_creation_method            fapswitch 2.2
_symmetry_space_group_name_H-M    P1
_symmetry_Int_Tables_number       1
_space_group_crystal_system       triclinic
_cell_length_a                    10.418528
_cell_length_b                    14.92735
_cell_length_c                    14.282835
_cell_angle_alpha                 89.383494
_cell_angle_beta                  100.841938
_cell_angle_gamma                 93.122715
_cell_volume                      2178.39105623

loop_
_atom_site_label
_atom_site_type_symbol
_atom_type_description
_atom_site_fract_x
_atom_site_fract_y
_atom_site_fract_z
_atom_type_partial_charge
C1    C     C_R   0.501209 0.327622 0.500731 0.895440
C2    C     C_R   0.391017 0.470097 0.782399 0.119048
C3    C     C_R   0.577193 0.563982 0.115582 -0.323392
C4    C     C_R   0.387377 0.471706 0.880633 -0.325578
C5    C     C_R   0.496970 0.502511 0.053401 0.130144
C6    C     C_R   0.497137 0.501747 0.947551 0.129872
C7    C     C_R   0.257975 0.507096 0.462670 0.899940
C8    C     C_R   0.741867 0.501231 0.537191 0.887288
C9    C     C_2   0.121636 0.532508 0.450487 -0.212718
C10   C     C_2   0.881705 0.502230 0.549662 -0.177847
C11   C     C_2   0.084421 0.581158 0.520172 -0.052054
C12   C     C_R   0.499716 0.672497 0.498897 0.881066
C13   C     C_2   0.948015 0.579828 0.533450 -0.049339
C14   C     C_R   0.464979 0.080750 0.547281 -0.011175
C15   C     C_R   0.497474 0.909118 0.407797 -0.005339
C16   C     C_R   0.449253 0.172543 0.554102 -0.076430
C17   C     C_R   0.465816 0.817076 0.411447 -0.056675
C18   C     C_R   0.519810 0.232290 0.503420 -0.097808
C19   C     C_R   0.512961 0.769558 0.495850 -0.087026
C20   C     C_R   0.609728 0.201127 0.451318 -0.268918
C21   C     C_R   0.587431 0.813455 0.574866 -0.218533
C22   C     C_R   0.630092 0.109964 0.445965 0.008832
C23   C     C_R   0.557355 0.050030 0.495880 -0.000281
C24   C     C_R   0.613078 0.905598 0.575095 0.017518
C25   C     C_1   0.889826 0.665974 0.533597 0.191194
C26   C     C_1   0.177371 0.636416 0.587122 0.179783
C27   C     C_1   0.931181 0.414520 0.542034 0.174807
C28   C     C_1   0.027517 0.503019 0.367233 0.161817
C29   C     C_1   0.382432 0.017310 0.590906 0.175039
C30   C     C_1   0.449265 0.958907 0.321608 0.150410
C31   C     C_R   0.360000 0.202590 0.615609 0.122743
C32   C     C_R   0.410596 0.221176 0.712078 -0.093521
C33   C     C_R   0.326297 0.226734 0.777037 -0.159285
C34   C     C_R   0.566716 0.953479 0.490325 -0.010140
C35   C     C_R   0.191180 0.212975 0.746277 -0.112153
C36   C     C_R   0.140038 0.195504 0.650141 -0.083716
C37   C     C_R   0.223913 0.191165 0.584681 -0.131255
C38   C     C_R   0.375991 0.772316 0.329853 0.145718
C39   C     C_R   0.415712 0.762135 0.242042 -0.106544
C40   C     C_R   0.332279 0.717683 0.166667 -0.140322
C41   C     C_R   0.208404 0.683952 0.178122 -0.110265
C42   C     C_R   0.167501 0.695035 0.264818 -0.125076
C43   C     C_R   0.251083 0.738632 0.340692 -0.157453
C44   C     C_R   0.721433 0.080272 0.383831 0.121409
C45   C     C_R   0.418807 0.439825 0.094189 -0.318686
C46   C     C_R   0.810180 0.012467 0.412008 -0.152671
C47   C     C_R   0.895361 0.987641 0.353151 -0.123084
C48   C     C_R   0.893565 0.029647 0.265268 -0.134350
C49   C     C_R   0.806032 0.096304 0.235781 -0.144174
C50   C     C_R   0.720520 0.121290 0.294274 -0.130360
C51   C     C_R   0.674509 0.950203 0.667750 0.115581
C52   C     C_R   0.769677 0.021768 0.672681 -0.140863
C53   C     C_R   0.823692 0.062681 0.759813 -0.135053
C54   C     C_R   0.783920 0.033017 0.843347 -0.115373
C55   C     C_R   0.689591 0.962525 0.839897 -0.136136
C56   C     C_R   0.608310 0.530168 0.911874 -0.311802
C57   C     C_R   0.635004 0.921515 0.752960 -0.160210
C58   C     C_R   0.337817 0.369231 0.229328 0.156889
C59   C     C_R   0.386565 0.284365 0.251961 -0.115875
C60   C     C_R   0.307731 0.216079 0.283441 -0.139017
C61   C     C_R   0.177492 0.230334 0.287078 -0.145781
C62   C     C_R   0.125809 0.312813 0.258666 -0.140603
C63   C     C_R   0.205530 0.382241 0.229603 -0.134797
C64   C     C_R   0.728667 0.570187 0.786600 0.183217
C65   C     C_R   0.839234 0.518809 0.793516 -0.145909
C66   C     C_R   0.960242 0.559991 0.784739 -0.152798
C67   C     C_R   0.420253 0.439492 0.192895 0.119304
C68   C     C_R   0.972268 0.652778 0.771597 -0.110292
C69   C     C_R   0.863442 0.704496 0.767321 -0.146694
C70   C     C_R   0.742437 0.663408 0.775994 -0.162618
C71   C     C_1   0.665618 0.623243 0.275089 0.213064
C72   C     C_1   0.275806 0.435876 0.720580 0.212818
C73   C     C_R   0.608460 0.530659 0.813186 0.114695
C74   C     C_R   0.578761 0.560997 0.214493 0.132271
H1    H     H_    0.638052 0.614913 0.087861 0.137416
H2    H     H_    0.035531 0.183801 0.626671 0.133471
H3    H     H_    0.183637 0.173723 0.511204 0.126997
H4    H     H_    0.511648 0.787749 0.232466 0.129301
H5    H     H_    0.363780 0.709216 0.099435 0.135997
H6    H     H_    0.143926 0.649563 0.119717 0.126634
H7    H     H_    0.070972 0.669889 0.273205 0.145020
H8    H     H_    0.218675 0.746246 0.407766 0.121826
H9    H     H_    0.815380 0.978041 0.479083 0.133256
H10   H     H_    0.963068 0.935698 0.375886 0.143781
H11   H     H_    0.959833 0.010430 0.219949 0.134325
H12   H     H_    0.297579 0.450055 0.904033 0.133031
H13   H     H_    0.804152 0.128609 0.167352 0.128190
H14   H     H_    0.652602 0.172171 0.268745 0.116656
H15   H     H_    0.802767 0.047077 0.610032 0.121449
H16   H     H_    0.896453 0.117650 0.762480 0.121673
H17   H     H_    0.825850 0.064875 0.910700 0.122135
H18   H     H_    0.658096 0.939889 0.904614 0.133458
H19   H     H_    0.560016 0.868239 0.752216 0.137820
H20   H     H_    0.486712 0.272315 0.247851 0.115823
H21   H     H_    0.347674 0.152333 0.305374 0.163247
H22   H     H_    0.116288 0.177202 0.310853 0.143537
H23   H     H_    0.665336 0.249014 0.414963 0.160898
H24   H     H_    0.023774 0.322405 0.258844 0.157435
H25   H     H_    0.164502 0.445831 0.207098 0.137527
H26   H     H_    0.831747 0.447293 0.806689 0.121766
H27   H     H_    0.044977 0.520209 0.789392 0.139650
H28   H     H_    0.066138 0.684748 0.765798 0.148420
H29   H     H_    0.873362 0.776576 0.759089 0.152646
H30   H     H_    0.660635 0.704299 0.778871 0.119147
H31   H     H_    0.626194 0.775293 0.637153 0.156244
H32   H     H_    0.358466 0.389138 0.050162 0.139736
H33   H     H_    0.696731 0.552471 0.960560 0.145551
H34   H     H_    0.515411 0.227318 0.737585 0.131564
H35   H     H_    0.365829 0.240242 0.851482 0.131652
H36   H     H_    0.126142 0.216232 0.796830 0.116596
N1    N     N_R   0.500000 0.499980 0.252470 -0.121722
N2    N     N_1   0.181275 0.407733 0.672280 -0.195477
N3    N     N_R   0.500000 0.500020 0.747530 -0.123310
N4    N     N_1   0.844608 0.735045 0.533627 -0.215647
N5    N     N_1   0.250847 0.680675 0.640478 -0.211370
N6    N     N_1   0.967271 0.343655 0.533513 -0.217856
N7    N     N_1   0.950775 0.480751 0.300962 -0.235969
N8    N     N_1   0.316749 0.966942 0.625432 -0.204711
N9    N     N_1   0.411101 0.997626 0.252225 -0.231012
N10   N     N_1   0.735943 0.673917 0.322881 -0.214456
O1    O     O_R   0.500010 0.369070 0.579480 -0.615233
O2    O     O_R   0.499990 0.630930 0.420520 -0.607853
O3    O     O_R   0.500010 0.369060 0.420520 -0.616416
O4    O     O_R   0.499990 0.630940 0.579480 -0.614058
O5    O     O_R   0.317810 0.500010 0.549800 -0.599111
O6    O     O_R   0.682190 0.499990 0.450200 -0.606530
O7    O     O_R   0.317810 0.500000 0.390840 -0.605354
O8    O     O_R   0.682190 0.500000 0.609160 -0.610876
Zn1   Zn    Zn3+2 0.500000 0.500010 0.606140 0.964608
Zn2   Zn    Zn3+2 0.500000 0.499990 0.393860 0.968563

loop_
_geom_bond_atom_site_label_1
_geom_bond_atom_site_label_2
_ccdc_geom_bond_type
C10   C27   S    
C66   C68   A    
C72   N2    T    
C41   C42   A    
C49   H13   S    
C35   C36   A    
O8    Zn1   S    
C41   H6    S    
C61   H22   S    
C53   C54   A    
C52   C53   A    
C16   C31   S    
C1    C18   S    
C62   C63   A    
N3    Zn1   S    
C71   N10   T    
C36   C37   A    
C19   C21   A    
C68   H28   S    
C28   N7    T    
C38   C39   A    
C2    N3    A    
C70   H30   S    
C4    H12   S    
C30   N9    T    
O6    Zn2   S    
C73   N3    A    
C15   C17   A    
C46   C47   A    
C3    C74   A    
C26   N5    T    
C63   H25   S    
C36   H2    S    
C17   C19   A    
C62   H24   S    
C8    O8    A    
C22   C44   S    
C20   H23   S    
C31   C32   A    
C68   C69   A    
C45   C67   A    
C64   C73   S    
C51   C57   A    
C59   H20   S    
C64   C70   A    
C3    H1    S    
C15   C34   A    
C50   H14   S    
C67   N1    A    
C27   N6    T    
C24   C51   S    
C59   C60   A    
C57   H19   S    
C66   H27   S    
C13   C25   S    
C52   H15   S    
C61   C62   A    
C42   H7    S    
C2    C72   S    
C44   C46   A    
C69   H29   S    
C51   C52   A    
C39   H4    S    
C4    C6    A    
C6    C56   A    
C74   N1    A    
C11   C26   S    
C58   C59   A    
C37   H3    S    
C24   C34   A    
C31   C37   A    
C60   C61   A    
C14   C23   A    
C2    C4    A    
C1    O3    A    
C56   H33   S    
C55   H18   S    
N1    Zn2   S    
C47   C48   A    
C12   O4    A    
C23   C34   S    
C40   H5    S    
C16   C18   A    
C47   H10   S    
C7    O5    A    
C9    C11   D    
C35   H36   S    
C8    O6    A    
C40   C41   A    
C20   C22   A    
C49   C50   A    
C55   C57   A    
O3    Zn2   S    
C14   C16   A    
C33   H35   S    
C42   C43   A    
C14   C29   S    
C39   C40   A    
C45   H32   S    
C15   C30   S    
C44   C50   A    
C58   C63   A    
C7    C9    S    
C54   C55   A    
C48   C49   A    
C56   C73   A    
C22   C23   A    
C65   H26   S    
O1    Zn1   S    
C3    C5    A    
C10   C13   D    
C71   C74   S    
C29   N8    T    
C64   C65   A    
O7    Zn2   S    
C38   C43   A    
C25   N4    T    
C32   C33   A    
C11   C13   S    
C5    C6    S    
C5    C45   A    
C12   C19   S    
C33   C35   A    
O4    Zn1   S    
C18   C20   A    
C17   C38   S    
C69   C70   A    
C1    O1    A    
C46   H9    S    
C60   H21   S    
O5    Zn1   S    
C58   C67   S    
C54   H17   S    
C12   O2    A    
C8    C10   S    
C65   C66   A    
C32   H34   S    
C21   C24   A    
C53   H16   S    
C43   H8    S    
C48   H11   S    
C7    O7    A    
O2    Zn2   S    
C21   H31   S    
C9    C28   S    
