data_mof_unit_34712.cif
_audit_creation_date              2012-12-11T19:16:27-0500
_audit_creation_method            fapswitch 2.2
_symmetry_space_group_name_H-M    P1
_symmetry_Int_Tables_number       1
_space_group_crystal_system       triclinic
_cell_length_a                    8.400604
_cell_length_b                    15.108253
_cell_length_c                    18.71484
_cell_angle_alpha                 101.555077
_cell_angle_beta                  90.86515
_cell_angle_gamma                 98.222041
_cell_volume                      2300.85340215

loop_
_atom_site_label
_atom_site_type_symbol
_atom_type_description
_atom_site_fract_x
_atom_site_fract_y
_atom_site_fract_z
_atom_type_partial_charge
Ba1   Ba    Ba6+2 0.853510 0.540900 0.466480 1.672417
Ba2   Ba    Ba6+2 0.336320 0.459170 0.533530 1.697970
C1    C     C_3   0.648693 0.864172 0.294193 -0.148569
C2    C     C_R   0.904730 0.413788 0.095762 -0.055517
C3    C     C_R   0.769997 0.445014 0.960409 -0.128286
C4    C     C_3   0.077599 0.708506 0.269597 0.345892
C5    C     C_R   0.933297 0.472365 0.981194 0.012289
C6    C     C_R   0.709632 0.442773 0.890321 0.139503
C7    C     C_R   0.814227 0.468459 0.836381 -0.012306
C8    C     C_R   0.975083 0.509837 0.859874 -0.040222
C9    C     C_R   0.033839 0.512898 0.932859 -0.005847
C10   C     C_R   0.768541 0.453122 0.760375 0.018569
C11   C     C_R   0.886538 0.473937 0.710715 -0.071157
C12   C     C_3   0.576944 0.762421 0.283038 0.654330
C13   C     C_R   0.031302 0.531957 0.734908 0.098253
C14   C     C_R   0.077423 0.548709 0.810702 -0.146268
C15   C     C_R   0.154851 0.504146 0.073905 0.068308
C16   C     C_3   0.019618 0.728838 0.196681 0.366418
C17   C     C_R   0.213710 0.500804 0.145445 0.011584
C18   C     C_R   0.112397 0.458744 0.193191 -0.043999
C19   C     C_R   0.962134 0.410980 0.165102 -0.018311
C20   C     C_R   0.223094 0.602800 0.839164 0.018873
C21   C     C_R   0.276254 0.611376 0.911720 0.364592
C22   C     C_R   0.191838 0.556931 0.957297 -0.051696
C23   C     C_3   0.414049 0.279500 0.301830 0.445062
C24   C     C_R   0.255906 0.546977 0.026500 0.006999
C25   C     C_R   0.420720 0.571997 0.048108 -0.157549
C26   C     C_R   0.374216 0.538647 0.168821 0.005599
C27   C     C_R   0.477983 0.568781 0.117707 -0.092797
C28   C     C_3   0.249892 0.758827 0.650425 0.485704
C29   C     C_R   0.425964 0.544812 0.242375 0.021772
C30   C     C_R   0.318757 0.511461 0.290834 -0.302592
C31   C     C_R   0.164948 0.465053 0.266997 0.014919
C32   C     C_R   0.344175 0.822124 0.453067 0.024950
C33   C     C_R   0.577163 0.792644 0.518417 0.039124
C34   C     C_3   0.309303 0.206557 0.244255 0.738704
C35   C     C_R   0.777751 0.227363 0.505536 0.094205
C36   C     C_R   0.866320 0.172225 0.536747 0.025740
C37   C     C_R   0.807571 0.079338 0.532262 0.064603
C38   C     C_R   0.645883 0.041747 0.503137 0.077024
C39   C     C_R   0.557024 0.101827 0.474507 -0.150854
C40   C     C_3   0.340371 0.852573 0.692903 0.318280
C41   C     C_R   0.569469 0.948013 0.498218 -0.003474
C42   C     C_R   0.413819 0.916212 0.460882 -0.046276
C43   C     C_R   0.333129 0.979388 0.433464 0.404334
C44   C     C_R   0.407080 0.068425 0.439288 -0.086703
C45   C     C_3   0.044483 0.243740 0.725336 0.581287
C46   C     C_R   0.638226 0.885195 0.531671 -0.159058
C47   C     C_R   0.431466 0.761499 0.478706 -0.312227
C48   C     C_R   0.621198 0.194567 0.478068 0.013625
C49   C     C_3   0.876175 0.243779 0.323759 0.311185
C50   C     C_3   0.803552 0.180258 0.251562 0.412718
C51   C     C_3   0.650878 0.698095 0.703758 0.387361
C52   C     C_3   0.713251 0.737985 0.783574 0.436888
C53   C     C_3   0.080519 0.204374 0.792713 -0.365781
C54   C     C_3   0.496001 0.229560 0.686607 0.312791
C55   C     C_3   0.472758 0.136499 0.710485 0.359470
C56   C     C_R   0.995239 0.464487 0.050435 0.053946
H1    H     H_    0.524696 0.750941 0.335188 -0.020056
H2    H     H_    0.226663 0.240361 0.215052 -0.038818
H3    H     H_    0.694121 0.880014 0.241944 0.116517
H4    H     H_    0.210543 0.220178 0.807737 0.111417
H5    H     H_    0.014881 0.235063 0.840333 0.077333
H6    H     H_    0.044101 0.129060 0.781097 0.124000
H7    H     H_    0.612265 0.239319 0.660157 0.007916
H8    H     H_    0.403163 0.227818 0.643612 0.076592
H9    H     H_    0.342877 0.107627 0.703446 0.147465
H10   H     H_    0.976946 0.666191 0.289884 0.107446
H11   H     H_    0.885148 0.370969 0.196119 0.069538
H12   H     H_    0.470389 0.847462 0.696681 0.001872
H13   H     H_    0.296684 0.641998 0.806272 0.115768
H14   H     H_    0.604662 0.591438 0.131048 0.130520
H15   H     H_    0.359245 0.517282 0.346975 0.069803
H16   H     H_    0.683003 0.426472 0.998706 0.069249
H17   H     H_    0.789110 0.373367 0.078512 0.050671
H18   H     H_    0.180147 0.669480 0.261106 0.023279
H19   H     H_    0.509595 0.592566 0.011308 0.134846
H20   H     H_    0.380942 0.690054 0.471124 0.078664
H21   H     H_    0.733758 0.905600 0.572246 0.088888
H22   H     H_    0.342810 0.111365 0.413961 0.134504
H23   H     H_    0.791153 0.289201 0.347931 0.035367
H24   H     H_    0.934731 0.779481 0.208461 0.094399
H25   H     H_    0.334786 0.722237 0.614972 -0.107729
H26   H     H_    0.383076 0.914656 0.612727 0.299045
H27   H     H_    0.166049 0.889515 0.764003 0.239682
H28   H     H_    0.354788 0.935619 0.794353 0.196305
H29   H     H_    0.820389 0.058082 0.281451 0.194012
H30   H     H_    0.649400 0.099490 0.305812 0.167746
H31   H     H_    0.927941 0.216835 0.172563 0.281330
H32   H     H_    0.807204 0.615204 0.654642 0.166658
H33   H     H_    0.612030 0.564477 0.649820 0.219345
H34   H     H_    0.896965 0.201053 0.363783 -0.028853
H35   H     H_    0.882652 0.869175 0.327405 0.251610
H36   H     H_    0.751215 0.856030 0.392652 0.197387
H37   H     H_    0.925195 0.703115 0.792829 0.286094
H38   H     H_    0.520947 0.803773 0.815268 0.161787
H39   H     H_    0.674716 0.869619 0.783546 0.198194
H40   H     H_    0.503139 0.752545 0.182832 0.296788
H41   H     H_    0.564299 0.398940 0.306127 0.185643
H42   H     H_    0.452359 0.363294 0.227627 0.074560
H43   H     H_    0.160028 0.095232 0.241084 0.347924
H44   H     H_    0.429460 0.195000 0.155664 0.271045
H45   H     H_    0.708405 0.212589 0.229303 0.086718
H46   H     H_    0.223977 0.717487 0.138681 0.218211
H47   H     H_    0.221014 0.822844 0.192108 0.221826
H48   H     H_    0.132989 0.368883 0.792862 0.149232
H49   H     H_    0.227090 0.345333 0.714511 0.245391
H50   H     H_    0.822920 0.167532 0.708566 0.189552
H51   H     H_    0.825790 0.274531 0.759487 0.132495
H52   H     H_    0.584545 0.029438 0.690328 0.334341
H53   H     H_    0.447409 0.178657 0.821755 0.173601
H54   H     H_    0.639478 0.179173 0.798540 0.179725
H55   H     H_    0.819308 0.363170 0.630485 0.179523
H56   H     H_    0.518553 0.692182 0.701814 -0.011706
H57   H     H_    0.786182 0.463325 0.608047 0.213522
H58   H     H_    0.509718 0.350348 0.889853 0.173920
H59   H     H_    0.479533 0.460583 0.910865 0.173140
H60   H     H_    0.381588 0.708142 0.987643 0.311534
H61   H     H_    0.138606 0.008088 0.387934 0.312027
H62   H     H_    0.955388 0.305649 0.476115 0.311410
H63   H     H_    0.916355 0.015755 0.602618 0.191810
H64   H     H_    0.924093 0.967038 0.508779 0.232667
H65   H     H_    0.888660 0.665994 0.110453 0.309640
H66   H     H_    0.163999 0.806830 0.565245 0.151757
H67   H     H_    0.675037 0.686032 0.817286 0.040071
H68   H     H_    0.048345 0.816152 0.638325 0.225617
H69   H     H_    0.552104 0.906271 0.310680 0.113524
H70   H     H_    0.333360 0.319084 0.337653 -0.009925
N1    N     N_3   0.283972 0.875314 0.767047 -0.444584
N2    N     N_3   0.523695 0.143241 0.787249 -0.505888
N3    N     N_3   0.864286 0.432181 0.635006 -0.410145
N4    N     N_3   0.540327 0.414515 0.876601 -0.439658
N5    N     N_3   0.924874 0.025723 0.549072 -0.472834
N6    N     N_3   0.118603 0.773549 0.605711 -0.416596
N7    N     N_3   0.730103 0.090978 0.263960 -0.429977
N8    N     N_3   0.701635 0.609012 0.683120 -0.549023
N9    N     N_3   0.778732 0.890399 0.350278 -0.507192
N10   N     N_3   0.645990 0.820274 0.815130 -0.437736
N11   N     N_3   0.519637 0.341392 0.266323 -0.532212
N12   N     N_3   0.151922 0.767561 0.157162 -0.494265
N13   N     N_3   0.115187 0.340190 0.737164 -0.465156
N14   N     N_3   0.871612 0.236161 0.713766 -0.521579
O1    O     O_2   0.871970 0.437290 0.322980 -0.483607
O2    O     O_2   0.192784 0.181164 0.532937 -0.474110
O3    O     O_3   0.109731 0.191570 0.664556 -0.607429
O4    O     O_3   0.121420 0.444460 0.412460 -0.461376
O5    O     O_3   0.580410 0.613230 0.540280 -0.505901
O6    O     O_2   0.337420 0.273080 0.457680 -0.461196
O7    O     O_3   0.509997 0.233532 0.339407 -0.656943
O8    O     O_2   0.443931 0.472086 0.756565 -0.468899
O9    O     O_3   0.483420 0.301743 0.745749 -0.639277
O10   O     O_3   0.661430 0.607560 0.372520 -0.482291
O11   O     O_2   0.757097 0.538369 0.242792 -0.462145
O12   O     O_3   0.714557 0.757205 0.658570 -0.628066
O13   O     O_3   0.026594 0.291254 0.312904 -0.638473
O14   O     O_3   0.695692 0.706330 0.261624 -0.624991
O15   O     O_2   0.852280 0.726960 0.542370 -0.431286
O16   O     O_3   0.083990 0.657360 0.410240 -0.499693
O17   O     O_2   0.008212 0.819892 0.450753 -0.454518
O18   O     O_3   0.320350 0.923810 0.657149 -0.750174
O19   O     O_3   0.920979 0.166290 0.199518 -0.697425
O20   O     O_3   0.881905 0.759131 0.787134 -0.678886
O21   O     O_3   0.453118 0.743796 0.229162 -0.797874
O22   O     O_3   0.217581 0.144624 0.279759 -0.699023
O23   O     O_3   0.122803 0.791033 0.320004 -0.604645
O24   O     O_3   0.406550 0.159086 0.194293 -0.706602
O25   O     O_3   0.558246 0.076796 0.664076 -0.760728
O26   O     O_3   0.403258 0.679480 0.936965 -0.740567
O27   O     O_3   0.180396 0.954950 0.400978 -0.691988
O28   O     O_3   0.847542 0.311840 0.495385 -0.717273
O29   O     O_3   0.939263 0.648168 0.152683 -0.727683
O30   O     O_2   0.317740 0.562750 0.677070 -0.493394
O31   O     O_3   0.068290 0.555610 0.587550 -0.450702
O32   O     O_3   0.528280 0.392520 0.627490 -0.508225
O33   O     O_3   0.184569 0.707819 0.700477 -0.635213
O34   O     O_3   0.609300 0.386850 0.459730 -0.421958
O35   O     O_3   0.105720 0.342720 0.589770 -0.437462
P1    P     P_3+3 0.039440 0.410950 0.333260 0.976355
P2    P     P_3+3 0.676740 0.714970 0.563520 0.979750
P3    P     P_3+3 0.140762 0.772000 0.409447 1.003440
P4    P     P_3+3 0.150270 0.589130 0.666750 1.014892
P5    P     P_3+3 0.065779 0.223356 0.581664 1.015055
P6    P     P_3+3 0.632204 0.597022 0.278786 0.957778
P7    P     P_3+3 0.517406 0.272000 0.434203 0.995829
P8    P     P_3+3 0.559179 0.405956 0.721940 0.922589

loop_
_geom_bond_atom_site_label_1
_geom_bond_atom_site_label_2
_ccdc_geom_bond_type
C45   O3    S    
C50   H45   S    
C2    C19   A    
C25   C27   A    
H39   N10   S    
C32   P3    S    
C17   C18   A    
O17   P3    D    
O8    P8    D    
H50   N14   S    
H40   O21   S    
H26   O18   S    
Ba1   O34   S    
H57   N3    S    
C51   C52   S    
C47   H20   S    
C5    C9    A    
C12   H1    S    
C45   N14   S    
C49   O13   S    
C24   C25   A    
C15   C24   A    
C46   H21   S    
C26   C27   A    
C23   N11   S    
C23   H70   S    
C22   C24   A    
Ba2   O31   S    
H38   N10   S    
C36   C37   A    
C1    H69   S    
C40   O18   S    
Ba2   O6    S    
O35   P5    S    
C53   H4    S    
C9    C22   A    
C40   H12   S    
C54   C55   S    
O4    P1    S    
Ba1   O10   S    
C23   O7    S    
Ba1   Ba2   S    
O15   P2    D    
O1    P1    D    
C3    H16   S    
H59   N4    S    
O16   P3    S    
C2    H17   S    
Ba2   O34   S    
O30   P4    D    
C38   C41   A    
H33   N8    S    
O11   P6    D    
C6    C7    A    
C28   N6    S    
C53   H5    S    
C6    N4    S    
O7    P7    S    
C39   C44   A    
H51   N14   S    
C1    N9    S    
Ba2   O35   S    
H49   N13   S    
C41   C46   A    
C49   H23   S    
C5    C56   A    
H36   N9    S    
O13   P1    S    
O6    P7    D    
C15   C56   A    
O33   P4    S    
C27   H14   S    
H27   N1    S    
C4    H10   S    
C4    O23   S    
O31   P4    S    
C51   O12   S    
H44   O24   S    
O12   P2    S    
H41   N11   S    
Ba1   O4    S    
C51   N8    S    
C55   H9    S    
C33   C46   A    
C16   H24   S    
H31   O19   S    
O14   P6    S    
C1    H3    S    
C33   P2    S    
C4    C16   S    
C52   H67   S    
O2    P5    D    
C20   H13   S    
C49   C50   S    
H29   N7    S    
C55   N2    S    
C32   C42   A    
C28   H25   S    
H37   O20   S    
C37   C38   A    
C3    C5    A    
O34   P7    S    
C34   H2    S    
Ba2   O5    S    
C43   C44   A    
O3    P5    S    
H46   N12   S    
C19   H11   S    
O10   P6    S    
Ba2   P4    S    
C39   C48   A    
C41   C42   A    
C26   C29   A    
H64   N5    S    
C33   C47   A    
C35   C36   A    
Ba1   O1    S    
H42   N11   S    
C49   H34   S    
H32   N8    S    
Ba1   P1    S    
H53   N2    S    
C29   C30   A    
H58   N4    S    
C21   C22   A    
Ba1   O31   S    
C53   H6    S    
C34   O24   S    
C11   N3    S    
C52   O20   S    
C54   O9    S    
C16   N12   S    
C17   C26   A    
C1    C12   S    
H61   O27   S    
C18   C31   A    
C38   C39   A    
C11   C13   A    
Ba1   O5    S    
C16   O29   S    
C28   O33   S    
C35   O28   S    
C51   H56   S    
H48   N13   S    
C45   C53   S    
C7    C8    A    
O9    P8    S    
C45   N13   S    
Ba1   O16   S    
C32   C47   A    
C14   C20   A    
H55   N3    S    
C12   O14   S    
C31   P1    S    
H43   O22   S    
C48   P7    S    
C42   C43   A    
C50   N7    S    
H30   N7    S    
C25   H19   S    
H52   O25   S    
C43   O27   S    
C12   O21   S    
C3    C6    A    
H28   N1    S    
C4    H18   S    
C55   O25   S    
C54   H7    S    
Ba2   O4    S    
C37   N5    S    
C50   O19   S    
C36   P5    S    
C10   C11   A    
H66   N6    S    
H54   N2    S    
C30   C31   A    
Ba1   O15   S    
O32   P8    S    
C8    C14   A    
Ba2   O32   S    
H47   N12   S    
C44   H22   S    
C35   C48   A    
Ba1   P2    S    
H62   O28   S    
C52   N10   S    
C54   H8    S    
C10   P8    S    
C13   P4    S    
H60   O26   S    
C15   C17   A    
C40   N1    S    
C29   P6    S    
C7    C10   A    
H35   N9    S    
C8    C9    A    
C23   C34   S    
C21   O26   S    
O5    P2    S    
C18   C19   A    
H68   N6    S    
C2    C56   A    
C34   O22   S    
O23   P3    S    
C20   C21   A    
C28   C40   S    
H63   N5    S    
C30   H15   S    
H65   O29   S    
C13   C14   A    
Ba2   O30   S    
