data_mof_unit_27865.cif
_audit_creation_date              2012-12-10T16:38:36-0500
_audit_creation_method            fapswitch 2.2
_symmetry_space_group_name_H-M    P1
_symmetry_Int_Tables_number       1
_space_group_crystal_system       triclinic
_cell_length_a                    10.897087
_cell_length_b                    10.831263
_cell_length_c                    17.689162
_cell_angle_alpha                 98.468275
_cell_angle_beta                  73.179675
_cell_angle_gamma                 97.806373
_cell_volume                      1967.1217423

loop_
_atom_site_label
_atom_site_type_symbol
_atom_type_description
_atom_site_fract_x
_atom_site_fract_y
_atom_site_fract_z
_atom_type_partial_charge
C1    C     C_R   0.157864 0.480943 0.517481 0.730823
C2    C     C_R   0.583366 0.352124 0.914298 0.577232
C3    C     C_R   0.659166 0.311380 0.955769 -0.344341
C4    C     C_R   0.842769 0.519607 0.482858 0.915083
C5    C     C_R   0.634189 0.340426 0.037871 -0.048699
C6    C     C_R   0.528161 0.407718 0.080551 0.005676
C7    C     C_R   0.712265 0.299982 0.078031 -0.275638
C8    C     C_R   0.689257 0.330164 0.160312 0.450822
C9    C     C_R   0.516663 0.452091 0.161665 0.451411
C10   C     C_2   0.979578 0.520584 0.475711 -0.463072
C11   C     C_2   0.019900 0.472874 0.529540 0.417926
C12   C     C_R   0.260006 0.590280 0.841233 0.284407
C13   C     C_2   0.534223 0.965942 0.477722 -0.442871
C14   C     C_2   0.449284 0.038329 0.529623 0.382171
C15   C     C_R   0.467778 0.169085 0.518295 0.729223
C16   C     C_R   0.529251 0.833089 0.483480 0.911605
C17   C     C_R   0.563941 0.435891 0.287889 0.948932
C18   C     C_R   0.434941 0.562300 0.713129 0.898921
C19   C     C_R   0.387565 0.565831 0.800570 -0.367027
C20   C     C_R   0.591375 0.406331 0.201792 -0.269672
C21   C     C_R   0.205402 0.558069 0.918722 0.466409
C22   C     C_3   0.113528 0.639623 0.125692 -0.220135
C23   C     C_R   0.464952 0.525133 0.841412 0.527401
C24   C     C_3   0.987026 0.373611 0.644413 -0.272687
C25   C     C_3   0.259386 0.068348 0.634915 0.076485
C26   C     C_3   0.289173 0.150850 0.706953 -0.365175
C27   C     C_3   0.188106 0.242290 0.745775 -0.995553
C28   C     C_3   0.498435 0.661466 0.181869 -0.321233
C29   C     C_3   0.880755 0.343215 0.188759 -0.235281
C30   C     C_3   0.001538 0.465285 0.933638 -0.212682
C31   C     C_3   0.204697 0.769190 0.809823 0.163172
C32   C     C_3   0.113648 0.828825 0.885810 -0.338146
C33   C     C_3   0.118972 0.970395 0.886392 -1.033534
C34   C     C_R   0.409472 0.485095 0.917826 -0.173078
C35   C     C_3   0.652044 0.649099 0.835730 -0.290960
C36   C     C_3   0.226956 0.286873 0.153697 0.066841
C37   C     C_3   0.191251 0.251792 0.238494 -0.277727
C38   C     C_3   0.150384 0.111689 0.240947 -0.982143
C39   C     C_3   0.558066 0.187130 0.821106 0.031726
C40   C     C_3   0.621924 0.134604 0.735619 -0.277786
C41   C     C_3   0.578844 0.995519 0.719004 -0.961589
C42   C     C_R   0.281676 0.512765 0.959370 -0.295893
C43   C     C_R   0.480337 0.425668 0.956040 -0.065883
C44   C     C_R   0.440317 0.431714 0.039961 -0.181579
C45   C     C_R   0.310031 0.449889 0.079628 0.418597
C46   C     C_R   0.233177 0.494842 0.040653 0.453105
H1    H     H_    0.789147 0.242432 0.045934 0.157354
H2    H     H_    0.908861 0.334951 0.693234 0.204203
H3    H     H_    0.170881 0.005107 0.657147 0.159178
H4    H     H_    0.234703 0.124623 0.594500 0.121862
H5    H     H_    0.292480 0.089912 0.751272 0.217575
H6    H     H_    0.384296 0.205560 0.689224 0.247785
H7    H     H_    0.192339 0.311829 0.704674 0.256032
H8    H     H_    0.208165 0.293358 0.800824 0.264948
H9    H     H_    0.090097 0.191557 0.761535 0.258485
H10   H     H_    0.514168 0.669362 0.117676 0.155581
H11   H     H_    0.591468 0.681122 0.197727 0.166312
H12   H     H_    0.048832 0.559775 0.425131 0.118828
H13   H     H_    0.435595 0.734588 0.216233 0.188525
H14   H     H_    0.877113 0.446188 0.205428 0.189328
H15   H     H_    0.938605 0.322855 0.126115 0.184961
H16   H     H_    0.929950 0.309608 0.227390 0.182375
H17   H     H_    0.025299 0.380702 0.953423 0.146686
H18   H     H_    0.012209 0.450634 0.868545 0.173158
H19   H     H_    0.898890 0.477459 0.964029 0.190308
H20   H     H_    0.184058 0.799090 0.757653 0.180359
H21   H     H_    0.306812 0.805442 0.806694 0.104494
H22   H     H_    0.013232 0.786572 0.890564 0.249079
H23   H     H_    0.608166 0.005532 0.429149 0.117842
H24   H     H_    0.141470 0.810665 0.938492 0.233233
H25   H     H_    0.218297 0.014814 0.882702 0.259830
H26   H     H_    0.053119 0.010315 0.942516 0.273416
H27   H     H_    0.087850 0.992090 0.835725 0.274245
H28   H     H_    0.636190 0.657821 0.901271 0.147326
H29   H     H_    0.614103 0.728482 0.819020 0.124342
H30   H     H_    0.757576 0.655539 0.807845 0.205768
H31   H     H_    0.311873 0.236928 0.118167 0.124422
H32   H     H_    0.145393 0.254943 0.127283 0.131173
H33   H     H_    0.275747 0.277325 0.262809 0.251446
H34   H     H_    0.738582 0.257214 0.923033 0.152685
H35   H     H_    0.111358 0.305345 0.276850 0.220008
H36   H     H_    0.064074 0.084600 0.218542 0.267581
H37   H     H_    0.126189 0.089324 0.303171 0.275845
H38   H     H_    0.229966 0.056444 0.204070 0.261250
H39   H     H_    0.452113 0.182011 0.830533 0.135623
H40   H     H_    0.577668 0.127218 0.861660 0.122564
H41   H     H_    0.598261 0.188101 0.693610 0.254068
H42   H     H_    0.728245 0.146270 0.725184 0.214785
H43   H     H_    0.609114 0.939847 0.757255 0.244580
H44   H     H_    0.623769 0.962087 0.655792 0.272682
H45   H     H_    0.158856 0.713006 0.085378 0.148008
H46   H     H_    0.472718 0.979728 0.730459 0.273261
H47   H     H_    0.165051 0.643371 0.171991 0.183355
H48   H     H_    0.013441 0.661540 0.156385 0.176052
H49   H     H_    0.051014 0.442408 0.672336 0.180943
H50   H     H_    0.039392 0.293818 0.608514 0.131079
O1    O     O_3   0.500000 0.500000 0.500000 -0.501512
O2    O     O_R   0.470800 0.371790 0.332500 -0.638789
O3    O     O_R   0.380610 0.619380 0.674980 -0.630327
O4    O     O_R   0.632640 0.524780 0.317540 -0.653284
O5    O     O_R   0.515950 0.484050 0.674980 -0.590590
O6    O     O_3   0.109018 0.519112 0.082950 -0.587226
O7    O     O_3   0.931240 0.433019 0.598467 -0.561532
O8    O     O_3   0.360349 0.991503 0.596319 -0.622644
O9    O     O_3   0.436246 0.543181 0.202158 -0.569693
O10   O     O_3   0.756526 0.279019 0.201391 -0.629819
O11   O     O_3   0.076932 0.574133 0.954786 -0.570143
O12   O     O_R   0.535460 0.243030 0.556410 -0.659578
O13   O     O_3   0.183217 0.636416 0.803829 -0.612058
O14   O     O_3   0.596873 0.532537 0.807424 -0.517175
O15   O     O_3   0.253112 0.418583 0.155999 -0.580889
O16   O     O_3   0.607437 0.313859 0.833599 -0.583242
O17   O     O_R   0.437420 0.784080 0.535340 -0.582240
O18   O     O_R   0.223560 0.397520 0.472140 -0.653969
O19   O     O_R   0.803560 0.575360 0.436110 -0.660456
O20   O     O_R   0.209690 0.568800 0.556400 -0.637634
O21   O     O_R   0.763190 0.458310 0.535350 -0.562788
O22   O     O_R   0.414000 0.207090 0.472140 -0.654487
O23   O     O_R   0.613120 0.765800 0.436110 -0.655209
Zn1   Zn    Zn3+2 0.577310 0.422690 0.565550 1.012699
Zn2   Zn    Zn3+2 0.403760 0.371330 0.445150 0.971282
Zn3   Zn    Zn3+2 0.634990 0.589920 0.423760 0.968487
Zn4   Zn    Zn3+2 0.383940 0.616050 0.565540 0.992407

loop_
_geom_bond_atom_site_label_1
_geom_bond_atom_site_label_2
_ccdc_geom_bond_type
C31   H20   S    
C41   H43   S    
C35   H28   S    
O20   Zn4   S    
C30   H18   S    
C30   O11   S    
O2    Zn2   S    
O12   Zn1   S    
C4    O19   A    
C34   C42   A    
C16   O17   A    
C6    C9    A    
C28   H10   S    
C27   H8    S    
C7    C8    A    
C28   H11   S    
C31   H21   S    
C46   O6    S    
C2    O16   S    
C26   C27   S    
C8    C20   A    
C40   H41   S    
C36   C37   S    
C10   H12   S    
C37   C38   S    
C36   H31   S    
C24   H50   S    
C5    C6    A    
C38   H37   S    
C27   H9    S    
C28   H13   S    
C9    O9    S    
C17   C20   S    
C18   C19   S    
C42   C46   A    
C25   H4    S    
O1    Zn2   S    
C33   H26   S    
O18   Zn2   S    
C1    C11   S    
C22   H45   S    
C1    O20   A    
C17   O2    A    
C28   O9    S    
C32   H22   S    
C41   H44   S    
O19   Zn3   S    
C6    C44   A    
C13   C14   D    
C38   H36   S    
C22   H48   S    
C37   H35   S    
C3    H34   S    
C12   O13   S    
C29   H15   S    
C35   H30   S    
C24   H2    S    
O21   Zn1   S    
C39   C40   S    
C5    C7    A    
C32   H24   S    
C25   C26   S    
C45   C46   A    
C12   C21   A    
C18   O5    A    
C7    H1    S    
C15   O12   A    
C19   C23   A    
C43   C44   A    
O1    Zn3   S    
C26   H6    S    
C37   H33   S    
C9    C20   A    
C14   O8    S    
C31   C32   S    
O17   Zn4   S    
C29   H14   S    
C2    C43   A    
C23   C34   A    
C35   H29   S    
C36   O15   S    
C45   O15   S    
C31   O13   S    
C21   O11   S    
C35   O14   S    
C33   H27   S    
C40   C41   S    
C22   H47   S    
C29   O10   S    
C16   O23   A    
C1    O18   A    
C39   H39   S    
C4    C10   S    
C44   C45   A    
O3    Zn4   S    
O23   Zn3   S    
C23   O14   S    
C29   H16   S    
C39   O16   S    
C38   H38   S    
O5    Zn1   S    
C34   C43   A    
C3    C5    A    
C8    O10   S    
C27   H7    S    
C25   O8    S    
C22   O6    S    
C15   O22   A    
C24   O7    S    
C32   C33   S    
C40   H42   S    
O1    Zn1   S    
C2    C3    A    
O1    Zn4   S    
C36   H32   S    
C26   H5    S    
C24   H49   S    
C13   H23   S    
C12   C19   A    
O4    Zn3   S    
C4    O21   A    
C17   O4    A    
C25   H3    S    
C30   H19   S    
C10   C11   D    
C33   H25   S    
C21   C42   A    
C41   H46   S    
C18   O3    A    
C13   C16   S    
C14   C15   S    
C11   O7    S    
C39   H40   S    
C30   H17   S    
O22   Zn2   S    
