data_mof_unit_30521.cif
_audit_creation_date              2012-10-26T19:21:28-0400
_audit_creation_method            fapswitch 2.2
_symmetry_space_group_name_H-M    P1
_symmetry_Int_Tables_number       1
_space_group_crystal_system       triclinic
_cell_length_a                    9.796539
_cell_length_b                    11.089263
_cell_length_c                    15.843597
_cell_angle_alpha                 95.120887
_cell_angle_beta                  79.123816
_cell_angle_gamma                 111.259742
_cell_volume                      1574.83597668

loop_
_atom_site_label
_atom_site_type_symbol
_atom_type_description
_atom_site_fract_x
_atom_site_fract_y
_atom_site_fract_z
_atom_type_partial_charge
C1    C     C_R   0.557113 0.745076 0.504126 0.543666
C2    C     C_2   0.504552 0.065385 0.511818 0.240724
C3    C     C_2   0.923190 0.490110 0.492485 -0.002385
C4    C     C_2   0.076882 0.510000 0.507458 -0.004987
C5    C     C_R   0.411704 0.488482 0.662911 0.534516
C6    C     C_R   0.589113 0.515350 0.337239 0.534253
C7    C     C_R   0.361440 0.489520 0.756433 -0.009849
C8    C     C_R   0.643535 0.534293 0.244560 -0.009680
C9    C     C_R   0.171309 0.476711 0.880826 -0.138417
C10   C     C_R   0.842462 0.593692 0.122499 -0.138695
C11   C     C_R   0.213842 0.472743 0.791866 -0.140924
C12   C     C_R   0.443724 0.254897 0.494323 0.549495
C13   C     C_R   0.794979 0.571876 0.210263 -0.141320
C14   C     C_R   0.465934 0.511682 0.810815 -0.146283
C15   C     C_R   0.540703 0.519743 0.190333 -0.144199
C16   C     C_R   0.427123 0.519953 0.900545 0.027090
C17   C     C_R   0.585988 0.545540 0.102252 0.029120
C18   C     C_R   0.276215 0.499048 0.935265 0.050847
C19   C     C_R   0.739324 0.579658 0.068275 0.051544
C20   C     C_R   0.533021 0.544661 0.956547 0.031589
C21   C     C_R   0.482832 0.534930 0.046876 0.031148
C22   C     C_3   0.557197 0.101029 0.649483 -0.004259
C23   C     C_R   0.331852 0.517064 0.078852 -0.146152
C24   C     C_3   0.499943 0.201496 0.701103 -0.241992
C25   C     C_3   0.452845 0.168946 0.796257 -0.490386
C26   C     C_3   0.441236 0.833227 0.352348 0.032030
C27   C     C_3   0.429585 0.926032 0.290528 -0.288963
C28   C     C_3   0.477365 0.890239 0.197194 -0.476171
C29   C     C_R   0.687501 0.580805 0.925462 -0.142587
C30   C     C_R   0.231206 0.500220 0.023919 -0.138304
C31   C     C_R   0.788319 0.599101 0.980559 -0.139648
C32   C     C_2   0.587239 0.883263 0.508228 -0.119585
C33   C     C_2   0.416478 0.117246 0.484910 -0.096858
C34   C     C_2   0.495530 0.933322 0.482830 0.227240
Cu1   Cu    Cu3+1 0.362980 0.479380 0.485080 0.933786
Cu2   Cu    Cu3+1 0.637020 0.520620 0.514920 0.940311
H1    H     H_    0.116532 0.486050 0.051193 0.102141
H2    H     H_    0.735429 0.599713 0.858848 0.100458
H3    H     H_    0.327832 0.059219 0.450348 0.107057
H4    H     H_    0.680764 0.943847 0.538321 0.102969
H5    H     H_    0.122419 0.578124 0.557386 0.154432
H6    H     H_    0.877699 0.422048 0.442520 0.153454
H7    H     H_    0.111364 0.384397 0.415547 0.200608
H8    H     H_    0.888586 0.615534 0.584497 0.199964
H9    H     H_    0.652781 0.097990 0.676324 0.146444
H10   H     H_    0.469538 0.002681 0.658322 0.110951
H11   H     H_    0.589015 0.298479 0.694147 0.195822
H12   H     H_    0.905602 0.627059 0.954001 0.102157
H13   H     H_    0.402935 0.204685 0.675909 0.162499
H14   H     H_    0.364072 0.072002 0.804797 0.148872
H15   H     H_    0.409027 0.241729 0.831753 0.162813
H16   H     H_    0.549383 0.169917 0.823871 0.147534
H17   H     H_    0.373427 0.732804 0.334923 0.174299
H18   H     H_    0.558423 0.836793 0.343379 0.115744
H19   H     H_    0.312882 0.922437 0.299449 0.171827
H20   H     H_    0.501839 0.026391 0.304796 0.154330
H21   H     H_    0.594335 0.894323 0.186536 0.155361
H22   H     H_    0.468774 0.959586 0.153864 0.152440
H23   H     H_    0.424785 0.485031 0.218118 0.122030
H24   H     H_    0.404438 0.791157 0.180834 0.150000
H25   H     H_    0.576728 0.518532 0.781582 0.120982
H26   H     H_    0.876465 0.584535 0.251098 0.127597
H27   H     H_    0.131418 0.456101 0.751011 0.127069
H28   H     H_    0.056123 0.461972 0.907177 0.103313
H29   H     H_    0.960041 0.621935 0.096950 0.099888
H30   H     H_    0.288077 0.519167 0.146423 0.095122
N1    N     N_2   0.842890 0.551600 0.537350 -0.351765
N2    N     N_2   0.157110 0.448400 0.462650 -0.354327
O1    O     O_R   0.426810 0.668300 0.492040 -0.450466
O2    O     O_3   0.382127 0.859454 0.437991 -0.576664
O3    O     O_R   0.573190 0.331700 0.507960 -0.438233
O4    O     O_R   0.658240 0.703130 0.517240 -0.499526
O5    O     O_R   0.341760 0.296870 0.482760 -0.502297
O6    O     O_R   0.319390 0.472820 0.610170 -0.498584
O7    O     O_R   0.680610 0.527180 0.389830 -0.501039
O8    O     O_R   0.550820 0.507640 0.635370 -0.510501
O9    O     O_R   0.449180 0.492360 0.364630 -0.511539
O10   O     O_3   0.609299 0.137655 0.562409 -0.568948

loop_
_geom_bond_atom_site_label_1
_geom_bond_atom_site_label_2
_ccdc_geom_bond_type
Cu1   O6    S    
C8    C13   A    
C9    H28   S    
Cu1   Cu2   S    
C19   C31   A    
Cu2   N1    S    
C6    O7    A    
C3    H6    S    
C28   H21   S    
C7    C11   A    
C26   C27   S    
C33   H3    S    
C23   H30   S    
C11   H27   S    
C27   H19   S    
C4    H5    S    
C5    O6    A    
C25   H14   S    
Cu2   O8    S    
C7    C14   A    
C13   H26   S    
H7    N2    S    
C29   H2    S    
C18   C30   A    
C34   O2    S    
Cu2   O3    S    
C2    C34   S    
C12   O5    A    
C26   H18   S    
C20   C29   A    
C28   H24   S    
C1    O4    A    
C23   C30   A    
C24   C25   S    
C22   O10   S    
C4    N2    D    
C27   H20   S    
C6    O9    A    
C6    C8    S    
C14   H25   S    
Cu1   O9    S    
C1    C32   S    
C17   C21   A    
C30   H1    S    
C32   C34   D    
C25   H15   S    
C2    O10   S    
Cu2   O7    S    
C10   C19   A    
C16   C20   A    
C9    C11   A    
C2    C33   D    
C22   H10   S    
C12   O3    A    
C8    C15   A    
C31   H12   S    
C21   C23   A    
C26   O2    S    
C22   C24   S    
C3    C4    S    
C26   H17   S    
C5    C7    S    
C10   H29   S    
C24   H13   S    
C15   C17   A    
Cu1   O5    S    
C24   H11   S    
C15   H23   S    
C3    N1    D    
C10   C13   A    
C28   H22   S    
C5    O8    A    
C25   H16   S    
C29   C31   A    
Cu1   N2    S    
C17   C19   A    
C14   C16   A    
C32   H4    S    
C1    O1    A    
C9    C18   A    
C22   H9    S    
C20   C21   A    
Cu1   O1    S    
C16   C18   A    
C27   C28   S    
H8    N1    S    
C12   C33   S    
Cu2   O4    S    
