data_mof_unit_45938.cif
_audit_creation_date              2012-12-11T16:26:23-0500
_audit_creation_method            fapswitch 2.2
_symmetry_space_group_name_H-M    P1
_symmetry_Int_Tables_number       1
_space_group_crystal_system       triclinic
_cell_length_a                    14.031814
_cell_length_b                    14.031812
_cell_length_c                    31.580402
_cell_angle_alpha                 90.000035
_cell_angle_beta                  89.999981
_cell_angle_gamma                 120.000215
_cell_volume                      5384.86625836

loop_
_atom_site_label
_atom_site_type_symbol
_atom_type_description
_atom_site_fract_x
_atom_site_fract_y
_atom_site_fract_z
_atom_type_partial_charge
C1    C     C_R   0.565133 0.445784 0.809585 0.554173
C2    C     C_R   0.445784 0.565133 0.190415 0.554172
C3    C     C_R   0.433054 0.877916 0.310458 0.552061
C4    C     C_R   0.119349 0.554216 0.190415 0.554171
C5    C     C_1   0.001845 0.498331 0.018960 0.103130
C6    C     C_1   0.565577 0.995731 0.481024 0.084694
C7    C     C_1   0.501668 0.503516 0.018959 0.103131
C8    C     C_1   0.004276 0.569852 0.481025 0.084693
C9    C     C_1   0.496484 0.998151 0.018959 0.103130
C10   C     C_1   0.430153 0.434418 0.481023 0.084694
C11   C     C_1   0.569894 0.004364 0.518968 0.084683
C12   C     C_R   0.877917 0.433055 0.689542 0.552049
C13   C     C_1   0.998146 0.496482 0.981041 0.103131
C14   C     C_1   0.434469 0.430099 0.518967 0.084683
C15   C     C_1   0.498334 0.001850 0.981041 0.103130
C16   C     C_1   0.995641 0.565536 0.518968 0.084683
C17   C     C_1   0.503518 0.501666 0.981041 0.103131
C18   C     C_R   0.945552 0.478188 0.849188 -0.047797
C19   C     C_R   0.537728 0.063608 0.648506 -0.044944
C20   C     C_R   0.521812 0.467364 0.849188 -0.047797
C21   C     C_R   0.936391 0.474120 0.648506 -0.044942
C22   C     C_R   0.532635 0.054447 0.849188 -0.047797
C23   C     C_R   0.554216 0.119349 0.809585 0.554172
C24   C     C_R   0.525881 0.462269 0.648506 -0.044941
C25   C     C_R   0.474120 0.936398 0.351492 -0.044924
C26   C     C_R   0.054446 0.532635 0.150812 -0.047796
C27   C     C_R   0.462277 0.525880 0.351492 -0.044923
C28   C     C_R   0.478189 0.945553 0.150812 -0.047796
C29   C     C_R   0.063604 0.537723 0.351492 -0.044922
C30   C     C_R   0.467364 0.521811 0.150812 -0.047796
C31   C     C_R   0.940088 0.560757 0.873271 0.086418
C32   C     C_R   0.602381 0.015325 0.637502 0.096297
C33   C     C_R   0.439242 0.379331 0.873270 0.086417
C34   C     C_R   0.566946 0.444862 0.689542 0.552051
C35   C     C_R   0.984679 0.587057 0.637502 0.096298
C36   C     C_R   0.620668 0.059911 0.873270 0.086418
C37   C     C_R   0.412945 0.397618 0.637501 0.096296
C38   C     C_R   0.587064 0.984727 0.362490 0.096305
C39   C     C_R   0.059909 0.620667 0.126730 0.086417
C40   C     C_R   0.397664 0.412935 0.362489 0.096306
C41   C     C_R   0.560758 0.940089 0.126729 0.086417
C42   C     C_R   0.015275 0.602338 0.362490 0.096305
C43   C     C_R   0.379331 0.439242 0.126729 0.086417
C44   C     C_R   0.959787 0.567473 0.916809 0.409181
C45   C     C_R   0.880650 0.434866 0.809585 0.554172
C46   C     C_R   0.613659 0.994293 0.594761 0.428366
C47   C     C_R   0.432526 0.392315 0.916809 0.409181
C48   C     C_R   0.005714 0.619370 0.594762 0.428369
C49   C     C_R   0.607684 0.040210 0.916809 0.409181
C50   C     C_R   0.380633 0.386338 0.594760 0.428366
C51   C     C_R   0.619392 0.005797 0.405228 0.428388
C52   C     C_R   0.040206 0.607682 0.083191 0.409181
C53   C     C_R   0.386405 0.380605 0.405227 0.428388
C54   C     C_R   0.567474 0.959791 0.083191 0.409180
C55   C     C_R   0.994207 0.613598 0.405229 0.428387
C56   C     C_R   0.555137 0.122083 0.689542 0.552049
C57   C     C_R   0.392316 0.432525 0.083191 0.409181
C58   C     C_R   0.991341 0.497995 0.935954 -0.014086
C59   C     C_R   0.557674 0.017197 0.563388 -0.013394
C60   C     C_R   0.502005 0.493348 0.935954 -0.014086
C61   C     C_R   0.982806 0.540482 0.563388 -0.013390
C62   C     C_R   0.506651 0.008655 0.935954 -0.014086
C63   C     C_R   0.459522 0.442318 0.563387 -0.013392
C64   C     C_R   0.540510 0.982877 0.436605 -0.013371
C65   C     C_R   0.008651 0.506649 0.064046 -0.014086
C66   C     C_R   0.442366 0.459487 0.436605 -0.013370
C67   C     C_R   0.444862 0.566946 0.310458 0.552063
C68   C     C_R   0.497997 0.991345 0.064046 -0.014086
C69   C     C_R   0.017129 0.557638 0.436606 -0.013371
C70   C     C_R   0.493350 0.502003 0.064046 -0.014086
C71   C     C_R   0.017208 0.431842 0.911205 -0.143756
C72   C     C_R   0.482235 0.049451 0.574813 -0.162990
C73   C     C_R   0.568158 0.585367 0.911204 -0.143755
C74   C     C_R   0.950544 0.432786 0.574813 -0.162991
C75   C     C_R   0.414632 0.982789 0.911204 -0.143756
C76   C     C_R   0.567218 0.517754 0.574812 -0.162992
C77   C     C_R   0.432800 0.950566 0.425186 -0.162964
C78   C     C_R   0.434867 0.880650 0.190415 0.554171
C79   C     C_R   0.982786 0.414631 0.088796 -0.143757
C80   C     C_R   0.517763 0.567197 0.425186 -0.162964
C81   C     C_R   0.431844 0.017211 0.088796 -0.143757
C82   C     C_R   0.049441 0.482240 0.425187 -0.162964
C83   C     C_R   0.585368 0.568156 0.088796 -0.143756
C84   C     C_R   0.997904 0.424147 0.867646 0.077829
C85   C     C_R   0.469749 0.070538 0.616840 0.062966
C86   C     C_R   0.575854 0.573758 0.867646 0.077828
C87   C     C_R   0.929455 0.399211 0.616839 0.062964
C88   C     C_R   0.426242 0.002095 0.867646 0.077828
C89   C     C_R   0.122084 0.555138 0.310458 0.552061
C90   C     C_R   0.600792 0.530243 0.616839 0.062963
C91   C     C_R   0.399209 0.929443 0.383162 0.062977
C92   C     C_R   0.002093 0.426241 0.132354 0.077828
C93   C     C_R   0.530231 0.600790 0.383163 0.062976
C94   C     C_R   0.424147 0.997905 0.132354 0.077828
C95   C     C_R   0.070563 0.469770 0.383163 0.062976
C96   C     C_R   0.573758 0.575852 0.132354 0.077828
Cr1   Cr    Cr6+3 0.504240 0.249200 0.750000 1.124894
Cr2   Cr    Cr6+3 0.744960 0.495760 0.750000 1.124895
Cr3   Cr    Cr6+3 0.750800 0.255040 0.750000 1.124894
Cr4   Cr    Cr6+3 0.249200 0.504240 0.250000 1.124904
Cr5   Cr    Cr6+3 0.495760 0.744960 0.250000 1.124904
Cr6   Cr    Cr6+3 0.255040 0.750800 0.250000 1.124903
F1    F     F_    0.053594 0.694111 0.059296 -0.555538
F2    F     F_    0.694113 0.053598 0.940704 -0.555538
F3    F     F_    0.047258 0.726577 0.583898 -0.551999
F4    F     F_    0.359486 0.305886 0.940704 -0.555538
F5    F     F_    0.726607 0.047379 0.416087 -0.552007
F6    F     F_    0.305887 0.359485 0.059296 -0.555538
F7    F     F_    0.952624 0.679230 0.416087 -0.552009
F8    F     F_    0.640515 0.946402 0.059296 -0.555538
F9    F     F_    0.320773 0.273389 0.416085 -0.552009
F10   F     F_    0.679328 0.952757 0.583896 -0.551995
F11   F     F_    0.946398 0.640512 0.940704 -0.555538
F12   F     F_    0.273427 0.320673 0.583896 -0.551997
H1    H     H_    0.948620 0.334156 0.074265 0.184653
H2    H     H_    0.334157 0.948624 0.925736 0.184653
H3    H     H_    0.940172 0.373512 0.550600 0.168155
H4    H     H_    0.614468 0.665842 0.925736 0.184654
H5    H     H_    0.373526 0.940177 0.449402 0.168148
H6    H     H_    0.665844 0.614465 0.074265 0.184653
H7    H     H_    0.059832 0.433357 0.449403 0.168148
H8    H     H_    0.385534 0.051376 0.074264 0.184653
H9    H     H_    0.566646 0.626471 0.449403 0.168148
H10   H     H_    0.433329 0.059819 0.550601 0.168156
H11   H     H_    0.051373 0.385533 0.925736 0.184653
H12   H     H_    0.626493 0.566656 0.550599 0.168154
I1    I     I_    0.914330 0.685770 0.847004 -0.062920
I2    I     I_    0.685769 0.914329 0.152996 -0.062917
I3    I     I_    0.962889 0.675967 0.315732 -0.082719
I4    I     I_    0.228560 0.314230 0.152996 -0.062916
I5    I     I_    0.937095 0.278186 0.168133 -0.159263
I6    I     I_    0.234086 0.890558 0.373027 -0.107470
I7    I     I_    0.721813 0.658909 0.168133 -0.159262
I8    I     I_    0.109448 0.343533 0.373028 -0.107479
I9    I     I_    0.341091 0.062904 0.168133 -0.159262
I10   I     I_    0.656467 0.765915 0.373028 -0.107477
I11   I     I_    0.343437 0.109314 0.626988 -0.107351
I12   I     I_    0.676028 0.962939 0.684253 -0.082712
I13   I     I_    0.062903 0.341091 0.831868 -0.159270
I14   I     I_    0.765882 0.656550 0.626985 -0.107371
I15   I     I_    0.278186 0.937096 0.831867 -0.159270
I16   I     I_    0.890671 0.234121 0.626985 -0.107362
I17   I     I_    0.658910 0.721813 0.831867 -0.159269
I18   I     I_    0.314230 0.228560 0.847003 -0.062919
I19   I     I_    0.037067 0.713088 0.684255 -0.082716
I20   I     I_    0.771438 0.085669 0.847003 -0.062919
I21   I     I_    0.286912 0.323975 0.684253 -0.082716
I22   I     I_    0.713080 0.037111 0.315731 -0.082718
I23   I     I_    0.085669 0.771438 0.152997 -0.062916
I24   I     I_    0.324033 0.286920 0.315730 -0.082719
O1    O     O_R   0.480350 0.140770 0.796330 -0.463811
O2    O     O_R   0.140770 0.480350 0.203670 -0.463812
O3    O     O_R   0.519650 0.660420 0.296330 -0.464218
O4    O     O_R   0.339580 0.859230 0.203670 -0.463811
O5    O     O_R   0.514930 0.348530 0.793250 -0.481391
O6    O     O_R   0.833600 0.485070 0.706750 -0.481746
O7    O     O_R   0.651470 0.166400 0.793250 -0.481390
O8    O     O_R   0.514930 0.348530 0.706750 -0.481747
O9    O     O_R   0.833600 0.485070 0.793250 -0.481391
O10   O     O_R   0.651470 0.166400 0.706750 -0.481745
O11   O     O_R   0.348530 0.514930 0.293250 -0.481738
O12   O     O_R   0.660420 0.519650 0.703670 -0.464225
O13   O     O_R   0.485070 0.833600 0.206750 -0.481392
O14   O     O_R   0.166400 0.651470 0.293250 -0.481739
O15   O     O_R   0.348530 0.514930 0.206750 -0.481391
O16   O     O_R   0.485070 0.833600 0.293250 -0.481738
O17   O     O_R   0.166400 0.651470 0.206750 -0.481392
O18   O     O_3   0.666667 0.333333 0.750000 -0.284606
O19   O     O_3   0.333333 0.666667 0.250000 -0.284610
O20   O     O_R   0.859230 0.339580 0.796330 -0.463811
O21   O     O_R   0.480350 0.140770 0.703670 -0.464227
O22   O     O_R   0.660420 0.519650 0.796330 -0.463811
O23   O     O_R   0.859230 0.339580 0.703670 -0.464225
O24   O     O_R   0.140770 0.480350 0.296330 -0.464218
O25   O     O_R   0.519650 0.660420 0.203670 -0.463812
O26   O     O_R   0.339580 0.859230 0.296330 -0.464219

loop_
_geom_bond_atom_site_label_1
_geom_bond_atom_site_label_2
_ccdc_geom_bond_type
C19   C56   S    
C21   C87   A    
C52   F1    S    
Cr6   O17   S    
C65   C79   A    
C79   H1    S    
C29   C42   A    
C76   H12   S    
C64   C77   A    
C60   C73   A    
C45   O9    A    
C31   I1    S    
C93   I10   S    
C45   O20   A    
C7    C70   S    
C29   C89   S    
C72   C85   A    
Cr3   O20   S    
Cr4   O2    S    
C41   C54   A    
C8    C69   S    
C68   C81   A    
C12   O6    A    
C71   C84   A    
C46   F10   S    
C34   O12   A    
C25   C38   A    
C58   C71   A    
C54   C68   A    
C63   C76   A    
C35   C48   A    
Cr6   O26   S    
C28   C41   A    
C54   F8    S    
C28   C94   A    
C35   I19   S    
C6    C64   S    
C1    O5    A    
C30   C96   A    
C69   C82   A    
C47   C60   A    
C84   I13   S    
C44   C58   A    
C7    C17   T    
C20   C86   A    
C18   C84   A    
Cr5   O19   S    
Cr4   O11   S    
C82   C95   A    
C22   C88   A    
C57   C70   A    
C28   C78   S    
Cr6   O4    S    
C89   O14   A    
C5    C13   T    
C59   C72   A    
Cr2   O22   S    
C53   F9    S    
Cr6   O19   S    
C39   C52   A    
C78   O13   A    
C8    C16   T    
Cr3   O10   S    
C72   H10   S    
C50   C63   A    
C41   I2    S    
C89   O24   A    
C49   F2    S    
C51   F5    S    
C11   C59   S    
C19   C32   A    
Cr2   O12   S    
C86   I17   S    
C94   I9    S    
C10   C66   S    
C33   I18   S    
C4    O2    A    
Cr2   O6    S    
C25   C91   A    
C31   C44   A    
Cr5   O13   S    
C92   I5    S    
C5    C65   S    
C10   C14   T    
C6    C11   T    
C29   C95   A    
C78   O4    A    
C91   I6    S    
C77   H5    S    
C12   C21   S    
C95   I8    S    
C24   C34   S    
C18   C31   A    
Cr4   O15   S    
C50   F12   S    
C83   H6    S    
C36   C49   A    
C32   I12   S    
C70   C83   A    
C2    O25   A    
C67   O11   A    
C4    C26   S    
C48   F3    S    
Cr3   O23   S    
C27   C93   A    
Cr5   O3    S    
C27   C40   A    
C47   F4    S    
C57   F6    S    
C24   C37   A    
Cr1   O1    S    
C40   I24   S    
C37   I21   S    
C53   C66   A    
C2    O15   A    
C38   I22   S    
C79   C92   A    
C55   C69   A    
C21   C35   A    
C20   C33   A    
C34   O8    A    
C36   I20   S    
C44   F11   S    
Cr3   O7    S    
C56   O21   A    
Cr4   O24   S    
C74   C87   A    
C30   C43   A    
Cr5   O25   S    
C16   C61   S    
C62   C75   A    
C18   C45   S    
C85   I11   S    
C88   I15   S    
C66   C80   A    
Cr3   O18   S    
C13   C58   S    
C74   H3    S    
C23   O1    A    
C77   C91   A    
C1    C20   S    
C49   C62   A    
C82   H7    S    
Cr4   O19   S    
C73   H4    S    
C32   C46   A    
C43   I4    S    
C51   C64   A    
C19   C85   A    
C24   C90   A    
C90   I14   S    
C96   I7    S    
C38   C51   A    
C61   C74   A    
Cr1   O18   S    
C22   C36   A    
C39   I23   S    
C1    O22   A    
Cr1   O21   S    
C4    O17   A    
C2    C30   S    
C81   H8    S    
C67   O3    A    
Cr1   O8    S    
C9    C15   T    
C9    C68   S    
C3    O26   A    
C56   O10   A    
C81   C94   A    
C48   C61   A    
C42   C55   A    
C33   C47   A    
C83   C96   A    
C23   O7    A    
C37   C50   A    
C15   C62   S    
C42   I3    S    
C14   C63   S    
Cr1   O5    S    
C87   I16   S    
Cr5   O16   S    
C26   C39   A    
Cr2   O18   S    
C73   C86   A    
C27   C67   S    
C43   C57   A    
C17   C60   S    
C75   C88   A    
C3    C25   S    
Cr2   O9    S    
C46   C59   A    
Cr6   O14   S    
C40   C53   A    
C22   C23   S    
C71   H11   S    
C75   H2    S    
C80   C93   A    
C26   C92   A    
C55   F7    S    
C52   C65   A    
C3    O16   A    
C76   C90   A    
C12   O23   A    
C80   H9    S    
