data_mof_unit_9273.cif
_audit_creation_date              2012-10-26T21:06:34-0400
_audit_creation_method            fapswitch 2.2
_symmetry_space_group_name_H-M    P1
_symmetry_Int_Tables_number       1
_space_group_crystal_system       triclinic
_cell_length_a                    15.864816
_cell_length_b                    10.865788
_cell_length_c                    9.532671
_cell_angle_alpha                 89.290472
_cell_angle_beta                  89.917765
_cell_angle_gamma                 90.384072
_cell_volume                      1643.11254748

loop_
_atom_site_label
_atom_site_type_symbol
_atom_type_description
_atom_site_fract_x
_atom_site_fract_y
_atom_site_fract_z
_atom_type_partial_charge
C1    C     C_R   0.500307 0.262248 0.501001 0.560740
C2    C     C_R   0.562719 0.557786 0.073369 0.005320
C3    C     C_R   0.339791 0.499572 0.500081 0.553829
C4    C     C_R   0.660185 0.500291 0.499943 0.535389
C5    C     C_3   0.970855 0.391150 0.540839 0.296847
C6    C     C_3   0.028959 0.608058 0.459810 0.300075
C7    C     C_3   0.027017 0.412312 0.410419 -0.136433
C8    C     C_3   0.972819 0.586857 0.590236 -0.136932
C9    C     C_1   0.250059 0.498480 0.500389 -0.013861
C10   C     C_1   0.749872 0.501114 0.499761 -0.032044
C11   C     C_3   0.027288 0.473841 0.632233 -0.134852
C12   C     C_R   0.499922 0.737958 0.498934 0.565752
C13   C     C_3   0.972560 0.525342 0.368418 -0.135178
C14   C     C_3   0.082803 0.497185 0.501009 0.027006
C15   C     C_3   0.917067 0.502039 0.499610 0.026423
C16   C     C_1   0.174496 0.497611 0.500724 -0.020905
C17   C     C_1   0.825412 0.501774 0.499660 -0.031573
C18   C     C_R   0.484336 0.067409 0.377552 -0.170616
C19   C     C_R   0.517073 0.933422 0.622234 -0.175261
C20   C     C_3   0.996425 0.191990 0.613706 -0.007213
C21   C     C_3   0.955039 0.071432 0.659756 -0.379949
C22   C     C_3   0.002706 0.807223 0.387766 -0.007936
C23   C     C_R   0.486625 0.939939 0.372380 0.241078
C24   C     C_3   0.043565 0.928077 0.341473 -0.369169
C25   C     C_3   0.540775 0.889567 0.160279 -0.002216
C26   C     C_3   0.515292 0.862315 0.010503 -0.351039
C27   C     C_3   0.621231 0.121265 0.777895 -0.003094
C28   C     C_3   0.638511 0.199140 0.906311 -0.351471
C29   C     C_R   0.519172 0.061109 0.625909 0.234382
C30   C     C_R   0.500873 0.872024 0.496891 -0.022835
C31   C     C_R   0.501015 0.128580 0.502657 -0.023916
C32   C     C_R   0.438094 0.440211 0.075271 0.019607
C33   C     C_R   0.562522 0.558360 0.924721 -0.013512
C34   C     C_R   0.438183 0.440093 0.926615 0.028601
Cu1   Cu    Cu3+1 0.500000 0.500020 0.640660 0.951258
Cu2   Cu    Cu3+1 0.500000 0.499980 0.359340 0.957538
H1    H     H_    0.050373 0.340400 0.338654 0.099815
H2    H     H_    0.612868 0.604632 0.128249 0.101827
H3    H     H_    0.037602 0.224115 0.700529 0.126583
H4    H     H_    0.035592 0.174057 0.519303 0.121496
H5    H     H_    0.913198 0.036969 0.575379 0.148246
H6    H     H_    0.004146 0.001561 0.682173 0.101829
H7    H     H_    0.917052 0.085555 0.756118 0.152591
H8    H     H_    0.963909 0.824865 0.482664 0.116378
H9    H     H_    0.961206 0.775039 0.301393 0.120368
H10   H     H_    0.081099 0.914352 0.244549 0.165447
H11   H     H_    0.994172 0.997713 0.319894 0.092234
H12   H     H_    0.949425 0.658687 0.662075 0.096644
H13   H     H_    0.085716 0.962613 0.425385 0.158660
H14   H     H_    0.587520 0.820109 0.195795 0.132496
H15   H     H_    0.571783 0.982002 0.159811 0.104227
H16   H     H_    0.478570 0.940394 0.966530 0.183116
H17   H     H_    0.572885 0.849048 0.946416 0.068485
H18   H     H_    0.475799 0.777749 0.006915 0.183282
H19   H     H_    0.644901 0.026614 0.798991 0.107925
H20   H     H_    0.656549 0.162816 0.687566 0.138557
H21   H     H_    0.603363 0.161573 0.998270 0.145010
H22   H     H_    0.706991 0.198882 0.930210 0.093068
H23   H     H_    0.948967 0.547827 0.261631 0.100514
H24   H     H_    0.618386 0.295376 0.886127 0.183344
H25   H     H_    0.050867 0.451351 0.739025 0.103127
H26   H     H_    0.469473 0.118131 0.282224 0.150228
H27   H     H_    0.528905 0.882350 0.717843 0.138614
H28   H     H_    0.388572 0.391873 0.131769 0.113159
H29   H     H_    0.612299 0.606163 0.868274 0.108599
H30   H     H_    0.388763 0.391619 0.871625 0.122605
N1    N     N_R   0.500020 0.500030 0.852070 -0.229501
N2    N     N_R   0.499980 0.499970 0.147930 -0.220956
O1    O     O_R   0.500000 0.319660 0.618740 -0.444750
O2    O     O_3   0.066292 0.720713 0.417373 -0.538359
O3    O     O_3   0.468546 0.883148 0.247058 -0.523299
O4    O     O_3   0.533644 0.119070 0.752043 -0.540925
O5    O     O_R   0.500000 0.680340 0.381260 -0.451422
O6    O     O_R   0.499990 0.319630 0.381170 -0.525281
O7    O     O_R   0.500010 0.680370 0.618830 -0.518785
O8    O     O_R   0.379080 0.500000 0.618760 -0.504222
O9    O     O_R   0.620920 0.500000 0.381240 -0.511232
O10   O     O_R   0.379080 0.499970 0.381190 -0.493989
O11   O     O_R   0.620920 0.500030 0.618810 -0.509789
O12   O     O_3   0.933167 0.278727 0.583179 -0.549806

loop_
_geom_bond_atom_site_label_1
_geom_bond_atom_site_label_2
_ccdc_geom_bond_type
Cu1   Cu2   S    
C34   H30   S    
C25   H15   S    
C33   H29   S    
C28   H21   S    
Cu1   O7    S    
C1    O6    A    
C9    C16   T    
C5    C11   S    
C2    N2    A    
Cu2   O9    S    
C20   H4    S    
C11   C14   S    
C27   H19   S    
C10   C17   T    
C1    C31   S    
C6    O2    S    
C25   H14   S    
C21   H7    S    
C7    C14   S    
C22   H8    S    
C19   H27   S    
C25   O3    S    
C32   N2    A    
C29   O4    S    
C12   O5    A    
C26   H18   S    
C28   H24   S    
Cu1   O8    S    
C20   O12   S    
C18   C23   A    
C23   C30   A    
C23   O3    S    
C32   H28   S    
C4    O11   A    
C5    C7    S    
C20   H3    S    
C27   H20   S    
C18   H26   S    
C6    C8    S    
C25   C26   S    
C1    O1    A    
C32   C34   A    
C8    H12   S    
C3    C9    S    
C26   H16   S    
C6    C14   S    
C2    H2    S    
Cu1   N1    S    
C7    H1    S    
C5    O12   S    
C3    O8    A    
Cu2   O6    S    
C21   H5    S    
C2    C33   A    
C8    C15   S    
C13   C15   S    
C14   C16   S    
C4    C10   S    
C19   C29   A    
C26   H17   S    
C33   N1    A    
C24   H13   S    
C15   C17   S    
C12   C30   S    
C24   H11   S    
C11   H25   S    
C34   N1    A    
Cu2   N2    S    
C13   H23   S    
C28   H22   S    
C24   H10   S    
C4    O9    A    
C29   C31   A    
Cu2   O10   S    
C6    C13   S    
C19   C30   A    
C8    C11   S    
Cu1   O11   S    
C22   C24   S    
C5    C15   S    
Cu2   O5    S    
C21   H6    S    
C7    C13   S    
C22   H9    S    
C20   C21   S    
Cu1   O1    S    
C12   O7    A    
C27   C28   S    
C18   C31   A    
C3    O10   A    
C22   O2    S    
C27   O4    S    
