data_mof_unit_14109.cif
_audit_creation_date              2013-03-05T15:45:15-0500
_audit_creation_method            fapswitch 2.2
_symmetry_space_group_name_H-M    P1
_symmetry_Int_Tables_number       1
_space_group_crystal_system       triclinic
_cell_length_a                    16.83694
_cell_length_b                    7.055616
_cell_length_c                    16.785458
_cell_angle_alpha                 90.001982
_cell_angle_beta                  100.50577
_cell_angle_gamma                 89.998323
_cell_volume                      1960.60140918

loop_
_atom_site_label
_atom_site_type_symbol
_atom_site_description
_atom_site_fract_x
_atom_site_fract_y
_atom_site_fract_z
_atom_type_partial_charge
O1    O     O_R   0.579510 0.506290 0.439030 -0.588303
O2    O     O_R   0.420490 0.006290 0.560970 -0.588276
O3    O     O_R   0.412540 0.170090 0.405290 -0.561659
O4    O     O_R   0.587460 0.670090 0.594710 -0.561727
C1    C     C_R   0.386079 0.345405 0.381461 0.892638
C2    C     C_R   0.613917 0.845406 0.618542 0.892615
O5    O     O_R   0.578390 0.176230 0.429330 -0.578691
O6    O     O_R   0.421610 0.676230 0.570670 -0.578679
O7    O     O_R   0.587530 0.011250 0.585190 -0.586130
O8    O     O_R   0.412470 0.511250 0.414810 -0.586135
C3    C     C_R   0.604407 0.345178 0.413394 1.020998
C4    C     C_R   0.395596 0.845186 0.586608 1.021032
O9    O     O_3   0.502800 0.340940 0.551110 -0.259394
O10   O     O_3   0.497200 0.840940 0.448890 -0.259357
V1    V     V_3+5 0.499480 0.064020 0.490520 1.252938
V2    V     V_3+5 0.500520 0.564020 0.509480 1.252894
C5    C     C_R   0.167597 0.913716 0.862436 -0.137405
C6    C     C_R   0.832397 0.413758 0.137558 -0.137464
C7    C     C_R   0.329659 0.853839 0.634485 -0.211508
C8    C     C_R   0.670339 0.353807 0.365508 -0.211502
C9    C     C_R   0.189128 0.809712 0.649463 -0.224740
C10   C     C_R   0.810827 0.309193 0.350465 -0.224744
C11   C     C_R   0.248116 0.811363 0.599529 -0.081007
C12   C     C_R   0.751858 0.310969 0.400418 -0.080956
C13   C     C_R   0.348813 0.903234 0.717046 -0.222530
C14   C     C_R   0.651204 0.403519 0.282981 -0.222456
C15   C     C_R   0.288850 0.907046 0.765651 0.194015
C16   C     C_R   0.711159 0.407253 0.234364 0.194009
C17   C     C_R   0.208599 0.856862 0.731883 0.191273
C18   C     C_R   0.791373 0.356636 0.268078 0.191261
C19   C     C_R   0.148599 0.858205 0.780736 -0.256905
C20   C     C_R   0.851360 0.357879 0.219211 -0.256941
C21   C     C_R   0.247260 0.966324 0.895140 -0.137163
C22   C     C_R   0.752775 0.466819 0.104910 -0.137004
C23   C     C_R   0.307549 0.961136 0.847511 -0.157895
C24   C     C_R   0.692491 0.461699 0.152547 -0.157937
H1    H     H_    0.086904 0.819640 0.755004 0.118756
H2    H     H_    0.913026 0.318982 0.244903 0.118836
H3    H     H_    0.262918 0.010494 0.957844 0.155969
H4    H     H_    0.737145 0.511288 0.042244 0.155906
H5    H     H_    0.126929 0.776133 0.623691 0.179134
H6    H     H_    0.873005 0.275319 0.376201 0.179130
H7    H     H_    0.368670 0.001070 0.874535 0.155576
H8    H     H_    0.631400 0.501978 0.125565 0.155529
H9    H     H_    0.410742 0.938379 0.743435 0.155035
H10   H     H_    0.589298 0.438965 0.256628 0.154939
C25   C     C_3   0.758133 0.717762 0.823631 0.157249
C26   C     C_3   0.241849 0.217724 0.176388 0.157214
H11   H     H_    0.731059 0.739755 0.878774 0.102760
H12   H     H_    0.268930 0.239675 0.121247 0.102791
C27   C     C_3   0.688441 0.688632 0.749255 0.110850
C28   C     C_3   0.311532 0.188588 0.250769 0.110807
H13   H     H_    0.702893 0.562154 0.714658 0.129964
H14   H     H_    0.297062 0.062157 0.285379 0.130029
H15   H     H_    0.884379 0.789936 0.729127 0.195538
H16   H     H_    0.115621 0.289998 0.270890 0.195531
H17   H     H_    0.774343 0.734856 0.627441 0.188769
H18   H     H_    0.225645 0.235016 0.372597 0.188729
C29   C     C_3   0.837568 0.899743 0.730671 -0.325534
C30   C     C_3   0.162426 0.399806 0.269335 -0.325520
C31   C     C_3   0.749153 0.068697 0.811094 -0.390366
C32   C     C_3   0.250852 0.568665 0.188900 -0.390365
C33   C     C_3   0.809246 0.902103 0.813904 -0.093100
C34   C     C_3   0.190748 0.402102 0.186102 -0.093116
H19   H     H_    0.781021 0.200372 0.802470 0.262786
H20   H     H_    0.218995 0.700362 0.197527 0.262776
H21   H     H_    0.726348 0.079990 0.869096 0.186382
H22   H     H_    0.273649 0.579925 0.130894 0.186337
C35   C     C_3   0.683662 0.861458 0.690628 -0.105255
C36   C     C_3   0.316332 0.361460 0.309378 -0.105261
C37   C     C_3   0.765208 0.868679 0.659698 -0.402737
C38   C     C_3   0.234788 0.368789 0.340312 -0.402732
C39   C     C_3   0.677613 0.048585 0.739012 -0.274968
C40   C     C_3   0.322399 0.548540 0.260974 -0.274971
H23   H     H_    0.619381 0.057113 0.760826 0.209092
H24   H     H_    0.380627 0.556990 0.239150 0.209085
H25   H     H_    0.678641 0.172885 0.698332 0.211647
H26   H     H_    0.321395 0.672876 0.301644 0.211678
H27   H     H_    0.867061 0.037329 0.721714 0.168776
H28   H     H_    0.132929 0.537399 0.278278 0.168796
H29   H     H_    0.763679 0.985101 0.615030 0.199799
H30   H     H_    0.236323 0.485276 0.384958 0.199789
O11   O     O_R   0.087500 0.266000 0.085220 -0.553739
O12   O     O_R   0.912500 0.766000 0.914780 -0.553737
O13   O     O_R   0.921600 0.589950 0.070670 -0.592951
O14   O     O_R   0.078400 0.089950 0.929330 -0.592913
C41   C     C_R   0.895664 0.421708 0.086816 0.987178
C42   C     C_R   0.104331 0.921699 0.913178 0.987126
O15   O     O_R   0.087460 0.596020 0.094710 -0.550123
O16   O     O_R   0.912540 0.096020 0.905290 -0.550143
O17   O     O_R   0.079520 0.760970 0.939020 -0.582723
O18   O     O_R   0.920480 0.260970 0.060980 -0.582733
C43   C     C_R   0.117882 0.425375 0.116294 0.875280
C44   C     C_R   0.882115 0.925376 0.883709 0.875253
O19   O     O_3   0.997180 0.425140 0.948910 -0.241155
O20   O     O_3   0.002820 0.925140 0.051090 -0.241145
V3    V     V_3+5 0.000520 0.702080 0.009480 1.270087
V4    V     V_3+5 0.999480 0.202080 0.990520 1.270089
C45   C     C_2   0.221199 0.775721 0.511080 0.961968
O21   O     O_2   0.264631 0.815870 0.462562 -0.676935
O22   O     O_R   0.144131 0.701637 0.482718 -0.797255
H31   H     H_    0.131185 0.690856 0.421496 0.325379
C46   C     C_2   0.778784 0.275149 0.488848 0.962060
O23   O     O_2   0.735418 0.315520 0.537403 -0.676948
O24   O     O_R   0.855797 0.200692 0.517154 -0.797294
H32   H     H_    0.868785 0.189928 0.578374 0.325313
N1    N     N_R   0.807271 0.545520 0.837011 0.226627
O25   O     O_R   0.850995 0.490592 0.784816 -0.447876
O26   O     O_R   0.810444 0.451113 0.904120 -0.442183
N2    N     N_R   0.192701 0.045502 0.163011 0.226629
O27   O     O_R   0.148984 0.990590 0.215212 -0.447904
O28   O     O_R   0.189516 0.951085 0.095900 -0.442169
N3    N     N_R   0.611215 0.650142 0.775296 0.224707
O29   O     O_R   0.581846 0.766642 0.822585 -0.436869
O30   O     O_R   0.573905 0.490847 0.755344 -0.394006
N4    N     N_R   0.388755 0.149994 0.224735 0.224726
O31   O     O_R   0.418146 0.266433 0.177443 -0.436810
O32   O     O_R   0.426036 0.990668 0.244695 -0.394032

loop_
_geom_bond_atom_site_label_1
_geom_bond_atom_site_label_2
_geom_bond_distance
_ccdc_geom_bond_type
C2    C35   1.528963 S    
C11   C45   1.492457 S    
O22   H31   1.013738 S    
H15   C29   1.108838 S    
C15   C17   1.411761 A    
C5    C42   1.481254 S    
N1    O26   1.301368 A    
C26   N2    1.464246 S    
O1    C3    1.311024 A    
O2    C4    1.311020 A    
C2    O7    1.337651 A    
O19   V4    1.719436 S    
O18   V4    1.978448 S    
C25   H11   1.114644 S    
O5    C3    1.314219 A    
C33   C44   1.543014 S    
C21   H3    1.083143 S    
C40   H24   1.109003 S    
C22   H4    1.083152 S    
O12   V3    2.016779 S    
C34   C43   1.543014 S    
C25   C33   1.584385 S    
O14   C42   1.310143 A    
C26   C34   1.584388 S    
C30   C38   1.556388 S    
O11   C43   1.304182 A    
N4    O31   1.301257 A    
C31   C33   1.546001 S    
C35   C37   1.554724 S    
N2    O27   1.301887 A    
C32   C34   1.546009 S    
C8    C12   1.423129 A    
O11   V4    2.016775 S    
O20   V4    2.198672 S    
C36   C40   1.563071 S    
N1    O25   1.301881 A    
C35   C39   1.563078 S    
C20   H2    1.084440 S    
C23   H7    1.083499 S    
C26   H12   1.114651 S    
O6    V2    1.986062 S    
C41   O18   1.309533 A    
C39   H23   1.109002 S    
C5    C21   1.403456 A    
O14   V4    1.985966 S    
C28   H14   1.115467 S    
O16   C44   1.332511 A    
C28   N4    1.470641 S    
C3    C8    1.485761 S    
C32   H20   1.095614 S    
O13   C41   1.310132 A    
O13   V3    1.986024 S    
O4    C2    1.350386 A    
C29   H27   1.113016 S    
C25   C27   1.563165 S    
C15   C23   1.405353 A    
C9    C17   1.402376 A    
O17   V3    1.978484 S    
C19   H1    1.084437 S    
O15   V3    1.996427 S    
C27   H13   1.115469 S    
O4    V2    1.996449 S    
C7    C11   1.423135 A    
C1    C36   1.528956 S    
C31   H21   1.112631 S    
C45   O21   1.222880 D    
C42   O17   1.309527 A    
O6    C4    1.314213 A    
O20   V3    1.719393 S    
C46   O24   1.399422 S    
O1    V2    1.976494 S    
O12   C44   1.304191 A    
H17   C37   1.112965 S    
O2    V1    1.976524 S    
C6    C22   1.403465 A    
C9    H5    1.083871 S    
C45   O22   1.399414 S    
C25   N1    1.464243 S    
C9    C11   1.411610 A    
C5    C19   1.405836 A    
C10   C12   1.411587 A    
C24   H8    1.083497 S    
C6    C20   1.405824 A    
C13   H9    1.084657 S    
O3    V1    1.996454 S    
N3    O29   1.301263 A    
C30   H28   1.113016 S    
C10   C18   1.402350 A    
C14   C16   1.409277 A    
C27   N3    1.470633 S    
O3    C1    1.350389 A    
O19   V3    2.198613 S    
C13   C15   1.409260 A    
O24   H32   1.013724 S    
C29   C33   1.556434 S    
C6    C41   1.481260 S    
C32   H22   1.112628 S    
C30   C34   1.556432 S    
C12   C46   1.492408 S    
C31   C39   1.550306 S    
C16   C18   1.411761 A    
O7    V1    2.000627 S    
C1    O8    1.337639 A    
C17   C19   1.412492 A    
O8    V2    2.000623 S    
C18   C20   1.412484 A    
H18   C38   1.112965 S    
C10   H6    1.083872 S    
C8    C14   1.408191 A    
C4    C7    1.485730 S    
O5    V1    1.986121 S    
C21   C23   1.402437 A    
N4    O32   1.301252 A    
C22   C24   1.402449 A    
O15   C43   1.332509 A    
C7    C13   1.408175 A    
N2    O28   1.301364 A    
C28   C36   1.559808 S    
C14   H10   1.084660 S    
C31   H19   1.095600 S    
C26   C28   1.563143 S    
H16   C30   1.108838 S    
C16   C24   1.405359 A    
C40   H26   1.113585 S    
O9    V2    1.719718 S    
C46   O23   1.222884 D    
C39   H25   1.113585 S    
O10   V1    1.719676 S    
C32   C40   1.550309 S    
C36   C38   1.554751 S    
C27   C35   1.559807 S    
C37   H29   1.109312 S    
O16   V4    1.996424 S    
C38   H30   1.109352 S    
C29   C37   1.556378 S    
N3    O30   1.301254 A    
