data_mof_unit_61458.cif
_audit_creation_date              2012-12-10T18:38:26-0500
_audit_creation_method            fapswitch 2.2
_symmetry_space_group_name_H-M    P1
_symmetry_Int_Tables_number       1
_space_group_crystal_system       triclinic
_cell_length_a                    30.165831
_cell_length_b                    31.865613
_cell_length_c                    21.323723
_cell_angle_alpha                 90.157258
_cell_angle_beta                  135.020872
_cell_angle_gamma                 89.767084
_cell_volume                      14488.5106706

loop_
_atom_site_label
_atom_site_type_symbol
_atom_type_description
_atom_site_fract_x
_atom_site_fract_y
_atom_site_fract_z
_atom_type_partial_charge
C1    C     C_R   0.378396 0.499713 0.378387 0.867649
C2    C     C_R   0.878396 0.999712 0.378390 0.867556
C3    C     C_3   0.557041 0.763629 0.548543 0.243719
C4    C     C_3   0.553770 0.236051 0.533000 0.244314
C5    C     C_3   0.057302 0.263630 0.550698 0.243700
C6    C     C_3   0.053700 0.736050 0.532749 0.244345
C7    C     C_3   0.499227 0.791370 0.500016 0.034864
C8    C     C_3   0.499034 0.208616 0.499134 0.034646
C9    C     C_3   0.999207 0.291369 0.499947 0.034857
C10   C     C_3   0.999035 0.708616 0.499140 0.034633
C11   C     C_3   0.537961 0.735985 0.585388 -0.268308
C12   C     C_3   0.546476 0.263977 0.584331 -0.267076
C13   C     C_3   0.036357 0.235991 0.585009 -0.268499
C14   C     C_3   0.046605 0.763976 0.584303 -0.267023
C15   C     C_3   0.478789 0.763878 0.535225 0.277892
C16   C     C_3   0.490369 0.236394 0.549087 0.276761
C17   C     C_3   0.976916 0.263881 0.532586 0.277835
C18   C     C_3   0.990568 0.736394 0.549321 0.276752
C19   C     C_1   0.500382 0.663181 0.500880 -0.029504
C20   C     C_1   0.500295 0.336807 0.499975 -0.031514
C21   C     C_1   0.000369 0.163180 0.500869 -0.029566
C22   C     C_1   0.000296 0.836807 0.499975 -0.031548
C23   C     C_1   0.499741 0.836814 0.500269 0.003567
C24   C     C_1   0.499364 0.163177 0.499316 0.002584
C25   C     C_1   0.999733 0.336813 0.500225 0.003566
C26   C     C_1   0.999364 0.663177 0.499320 0.002563
C27   C     C_3   0.270633 0.479455 0.218865 -0.200222
C28   C     C_3   0.270691 0.479584 0.322397 -0.200868
C29   C     C_3   0.770636 0.978898 0.219370 -0.199915
C30   C     C_3   0.770688 0.980150 0.322884 -0.200819
C31   C     C_3   0.229394 0.459665 0.229331 -0.156662
C32   C     C_3   0.729394 0.959673 0.230304 -0.156642
C33   C     C_3   0.189264 0.499732 0.189240 -0.014874
C34   C     C_3   0.689265 0.999735 0.189250 -0.014760
C35   C     C_3   0.229189 0.519498 0.177154 -0.168948
C36   C     C_3   0.229229 0.519626 0.281300 -0.208694
C37   C     C_3   0.729191 0.018936 0.176691 -0.168809
C38   C     C_3   0.729232 0.020187 0.280826 -0.208592
C39   C     C_R   0.499955 0.581241 0.500031 0.901623
C40   C     C_R   0.500040 0.418757 0.499955 0.900614
C41   C     C_R   0.999954 0.081240 0.500030 0.901473
C42   C     C_R   0.000040 0.918757 0.499955 0.900599
C43   C     C_3   0.269972 0.538332 0.270043 0.275239
C44   C     C_3   0.769976 0.038327 0.269118 0.274969
C45   C     C_3   0.310946 0.499302 0.310938 -0.037285
C46   C     C_3   0.810947 0.999302 0.310953 -0.037400
C47   C     C_3   0.729273 0.523440 0.777789 -0.166057
C48   C     C_3   0.729439 0.460683 0.734725 -0.147136
C49   C     C_3   0.229264 0.024723 0.776316 -0.165469
C50   C     C_3   0.229447 0.960855 0.737090 -0.147030
C51   C     C_3   0.770731 0.483738 0.824632 -0.156172
C52   C     C_3   0.270734 0.985201 0.825559 -0.155353
C53   C     C_3   0.810598 0.500329 0.810408 0.021256
C54   C     C_3   0.310599 0.000321 0.810369 0.021131
C55   C     C_3   0.770334 0.540035 0.764766 -0.171678
C56   C     C_3   0.770618 0.477288 0.721788 -0.161011
C57   C     C_3   0.270332 0.039844 0.762342 -0.171446
C58   C     C_3   0.270623 0.975988 0.723178 -0.162158
C59   C     C_3   0.729193 0.516964 0.674980 -0.167242
C60   C     C_3   0.229202 0.015476 0.673989 -0.167965
C61   C     C_3   0.689253 0.500360 0.689153 0.025099
C62   C     C_3   0.189255 0.000348 0.689125 0.025147
C63   C     C_R   0.500086 0.000147 0.378320 0.857445
C64   C     C_R   0.000058 0.500197 0.378296 0.857279
C65   C     C_R   0.500069 0.918765 0.500100 0.895209
C66   C     C_R   0.499914 0.081232 0.499845 0.902049
C67   C     C_R   0.000069 0.418765 0.500096 0.895128
C68   C     C_R   0.999914 0.581232 0.499847 0.901981
C69   C     C_R   0.621691 0.500180 0.621673 0.858614
C70   C     C_R   0.121692 0.000172 0.621669 0.858616
C71   C     C_R   0.500004 0.000132 0.621545 0.871442
C72   C     C_R   0.000003 0.500134 0.621545 0.871429
C73   C     C_R   0.000096 0.500082 0.121911 0.864718
C74   C     C_R   0.500224 0.000073 0.122036 0.864800
C75   C     C_R   0.121832 0.499925 0.121776 0.878664
C76   C     C_R   0.621833 0.999925 0.121781 0.878625
C77   C     C_R   0.000132 0.499960 0.878254 0.879530
C78   C     C_R   0.500134 0.999959 0.878256 0.879459
C79   C     C_R   0.878134 0.500084 0.877984 0.864131
C80   C     C_R   0.378135 0.000083 0.877964 0.864145
C81   C     C_3   0.557401 0.011546 0.328096 -0.169165
C82   C     C_3   0.486445 0.961578 0.256943 -0.149588
C83   C     C_3   0.052509 0.519224 0.323238 -0.167104
C84   C     C_3   0.998435 0.460546 0.268972 -0.147321
C85   C     C_3   0.050846 0.479377 0.280175 -0.159401
C86   C     C_3   0.543594 0.972825 0.272904 -0.163241
C87   C     C_3   0.000127 0.500332 0.189475 0.020980
C88   C     C_3   0.500352 0.000283 0.189692 0.020680
C89   C     C_3   0.001787 0.540202 0.231363 -0.172534
C90   C     C_3   0.947725 0.481518 0.176969 -0.158306
C91   C     C_3   0.514152 0.039044 0.243735 -0.171966
C92   C     C_3   0.443250 0.989042 0.172473 -0.154217
C93   C     C_3   0.457069 0.027808 0.227762 -0.161755
C94   C     C_3   0.949386 0.521373 0.220039 -0.166436
C95   C     C_3   0.461836 0.763871 0.415855 -0.283687
C96   C     C_3   0.452952 0.236125 0.414835 -0.285728
C97   C     C_3   0.963403 0.263862 0.416149 -0.283644
C98   C     C_3   0.952824 0.736126 0.414869 -0.285676
C99   C     C_3   0.500262 0.000307 0.310939 0.026163
C100  C     C_3   0.000099 0.500385 0.310783 0.026303
C101  C     C_3   0.559211 0.006410 0.788654 -0.204814
C102  C     C_3   0.462475 0.031183 0.691989 -0.177846
C103  C     C_3   0.059184 0.506518 0.788627 -0.204787
C104  C     C_3   0.962350 0.531119 0.691863 -0.177891
C105  C     C_3   0.021241 0.537370 0.792169 -0.142589
C106  C     C_3   0.521393 0.037329 0.792320 -0.142687
C107  C     C_3   0.000212 0.499906 0.810909 -0.020869
C108  C     C_3   0.500214 0.999903 0.810912 -0.020907
C109  C     C_3   0.038477 0.469020 0.808972 -0.217157
C110  C     C_3   0.941017 0.493735 0.711686 -0.169060
C111  C     C_3   0.538356 0.968949 0.808851 -0.216826
C112  C     C_3   0.440994 0.993837 0.711664 -0.169231
C113  C     C_3   0.479675 0.963871 0.709339 0.260916
C114  C     C_3   0.979816 0.463838 0.709480 0.261092
C115  C     C_3   0.500269 0.000336 0.689283 -0.040270
C116  C     C_3   0.000267 0.500341 0.689280 -0.040306
C117  C     C_3   0.442480 0.736204 0.452424 0.239728
C118  C     C_3   0.445383 0.264068 0.465952 0.236428
C119  C     C_3   0.942184 0.236200 0.450175 0.239696
C120  C     C_3   0.945454 0.764068 0.466210 0.236413
C121  C     C_1   0.500162 0.625693 0.500453 -0.181078
C122  C     C_1   0.500180 0.374298 0.499928 -0.184447
C123  C     C_1   0.000154 0.125693 0.500447 -0.181313
C124  C     C_1   0.000180 0.874298 0.499928 -0.184460
C125  C     C_1   0.500076 0.874305 0.500371 -0.169418
C126  C     C_1   0.499656 0.125688 0.499578 -0.165141
C127  C     C_1   0.000073 0.374304 0.500349 -0.169428
C128  C     C_1   0.999656 0.625688 0.499582 -0.165045
C129  C     C_3   0.521141 0.735853 0.465627 -0.190026
C130  C     C_3   0.509086 0.263847 0.449566 -0.191056
C131  C     C_3   0.022995 0.235847 0.468203 -0.190013
C132  C     C_3   0.008886 0.763846 0.449336 -0.191124
C133  C     C_3   0.500538 0.708607 0.501202 0.053169
C134  C     C_3   0.500341 0.291379 0.500015 0.053752
C135  C     C_3   0.000521 0.208606 0.501185 0.053262
C136  C     C_3   0.000342 0.791379 0.500015 0.053780
H1    H     H_    0.789664 0.470220 0.887646 0.127181
H2    H     H_    0.289672 0.972889 0.889361 0.126125
H3    H     H_    0.710630 0.542301 0.798857 0.143107
H4    H     H_    0.710788 0.428335 0.720491 0.128042
H5    H     H_    0.210593 0.044630 0.796191 0.142254
H6    H     H_    0.210802 0.928655 0.724807 0.128265
H7    H     H_    0.788559 0.572489 0.778519 0.150947
H8    H     H_    0.789432 0.458499 0.700888 0.132298
H9    H     H_    0.288565 0.072144 0.774137 0.150951
H10   H     H_    0.289432 0.956145 0.703427 0.133382
H11   H     H_    0.710584 0.530579 0.612223 0.147500
H12   H     H_    0.210623 0.027890 0.610465 0.148139
H13   H     H_    0.092235 0.462281 0.302769 0.133977
H14   H     H_    0.578911 0.950420 0.289452 0.138881
H15   H     H_    0.604059 0.020789 0.393246 0.149720
H16   H     H_    0.475167 0.929996 0.264317 0.129360
H17   H     H_    0.095281 0.534660 0.384640 0.146723
H18   H     H_    0.997075 0.428075 0.286293 0.128377
H19   H     H_    0.003167 0.572784 0.214497 0.150348
H20   H     H_    0.904991 0.466174 0.115338 0.128384
H21   H     H_    0.525545 0.070702 0.236837 0.149203
H22   H     H_    0.396719 0.979894 0.107013 0.124239
H23   H     H_    0.421783 0.050249 0.211204 0.139182
H24   H     H_    0.907977 0.538547 0.197218 0.143614
H25   H     H_    0.038458 0.567745 0.828211 0.159092
H26   H     H_    0.538731 0.067672 0.828484 0.159003
H27   H     H_    0.430261 0.775690 0.346836 0.161799
H28   H     H_    0.414434 0.224324 0.346060 0.161060
H29   H     H_    0.933100 0.275677 0.347365 0.161762
H30   H     H_    0.914204 0.724325 0.346122 0.161123
H31   H     H_    0.607262 0.011828 0.818483 0.162257
H32   H     H_    0.432004 0.056616 0.643038 0.157937
H33   H     H_    0.107212 0.512023 0.818433 0.162235
H34   H     H_    0.931778 0.556499 0.642812 0.157930
H35   H     H_    0.068797 0.443411 0.857478 0.146810
H36   H     H_    0.893123 0.488153 0.682319 0.126385
H37   H     H_    0.568574 0.943286 0.857254 0.147112
H38   H     H_    0.393077 0.988341 0.682275 0.126508
H39   H     H_    0.569681 0.724286 0.654521 0.168662
H40   H     H_    0.585144 0.275647 0.653187 0.168705
H41   H     H_    0.066806 0.224297 0.653912 0.168695
H42   H     H_    0.085376 0.775646 0.653130 0.168691
H43   H     H_    0.539361 0.723890 0.438422 0.152395
H44   H     H_    0.517691 0.275568 0.409975 0.151904
H45   H     H_    0.042729 0.223881 0.443150 0.152394
H46   H     H_    0.017327 0.775568 0.409553 0.151817
H47   H     H_    0.210966 0.427117 0.210857 0.152912
H48   H     H_    0.710965 0.927131 0.212621 0.152855
H49   H     H_    0.289144 0.462873 0.195408 0.153009
H50   H     H_    0.289246 0.463104 0.382879 0.157518
H51   H     H_    0.789157 0.961868 0.196329 0.152730
H52   H     H_    0.789233 0.964123 0.383752 0.157744
H53   H     H_    0.210608 0.536050 0.116718 0.132324
H54   H     H_    0.210737 0.536429 0.304590 0.137032
H55   H     H_    0.710607 0.035032 0.115858 0.131990
H56   H     H_    0.710744 0.037443 0.303711 0.137279
O1    O     O_R   0.406950 0.500000 0.354430 -0.620221
O2    O     O_R   0.906950 0.000000 0.354430 -0.620017
O3    O     O_R   0.552530 0.938390 0.552510 -0.618745
O4    O     O_R   0.552530 0.061610 0.552510 -0.616487
O5    O     O_R   0.052530 0.438390 0.552510 -0.618984
O6    O     O_R   0.052530 0.561610 0.552510 -0.616851
O7    O     O_R   0.447440 0.000000 0.540340 -0.613165
O8    O     O_R   0.947440 0.500000 0.540340 -0.613085
O9    O     O_R   0.552480 0.000000 0.645470 -0.629082
O10   O     O_R   0.052480 0.500000 0.645470 -0.629163
O11   O     O_R   0.000050 0.534770 0.093010 -0.629516
O12   O     O_R   0.000050 0.465230 0.093010 -0.624597
O13   O     O_R   0.500050 0.034770 0.093010 -0.628898
O14   O     O_R   0.500050 0.965230 0.093010 -0.625120
O15   O     O_R   0.093030 0.534780 0.092960 -0.626530
O16   O     O_R   0.093030 0.465220 0.092960 -0.629779
O17   O     O_R   0.593030 0.034780 0.092960 -0.626894
O18   O     O_R   0.593030 0.965220 0.092960 -0.629984
O19   O     O_R   0.999950 0.534800 0.906860 -0.625714
O20   O     O_R   0.999950 0.465200 0.906860 -0.627256
O21   O     O_R   0.499950 0.034800 0.906860 -0.625745
O22   O     O_R   0.499950 0.965200 0.906860 -0.627251
O23   O     O_R   0.906980 0.534790 0.906910 -0.627163
O24   O     O_R   0.906980 0.465210 0.906910 -0.625313
O25   O     O_R   0.406980 0.034790 0.906910 -0.626873
O26   O     O_R   0.406980 0.965210 0.906910 -0.624979
O27   O     O_R   0.407010 0.500000 0.459520 -0.629745
O28   O     O_R   0.907010 0.000000 0.459520 -0.629715
O29   O     O_R   0.499970 0.561610 0.447450 -0.615103
O30   O     O_R   0.499970 0.438390 0.447450 -0.619651
O31   O     O_R   0.999970 0.061610 0.447450 -0.614984
O32   O     O_R   0.999970 0.938390 0.447450 -0.619679
O33   O     O_R   0.500030 0.561620 0.552540 -0.616115
O34   O     O_R   0.500030 0.438380 0.552540 -0.611405
O35   O     O_R   0.000030 0.061620 0.552540 -0.616153
O36   O     O_R   0.000030 0.938380 0.552540 -0.611468
O37   O     O_R   0.593000 0.500000 0.540480 -0.627422
O38   O     O_R   0.093000 0.000000 0.540480 -0.627681
O39   O     O_R   0.593060 0.500000 0.645570 -0.625149
O40   O     O_R   0.093060 0.000000 0.645570 -0.624920
O41   O     O_R   0.447530 0.000000 0.354370 -0.626822
O42   O     O_R   0.947530 0.500000 0.354370 -0.627913
O43   O     O_R   0.552560 0.000000 0.459510 -0.627170
O44   O     O_R   0.052560 0.500000 0.459510 -0.626006
O45   O     O_R   0.447490 0.938400 0.447370 -0.609397
O46   O     O_R   0.447490 0.061600 0.447370 -0.617259
O47   O     O_R   0.947490 0.438400 0.447370 -0.608638
O48   O     O_R   0.947490 0.561600 0.447370 -0.617207
Zn1   Zn    Zn3+2 0.499970 0.500000 0.429830 0.958464
Zn2   Zn    Zn3+2 0.999970 0.000000 0.429830 0.958414
Zn3   Zn    Zn3+2 0.500040 0.500000 0.570170 0.963211
Zn4   Zn    Zn3+2 0.000040 1.000000 0.570170 0.963179
Zn5   Zn    Zn3+2 0.429870 0.000000 0.429720 0.971490
Zn6   Zn    Zn3+2 0.929870 0.500000 0.429720 0.971374
Zn7   Zn    Zn3+2 0.570140 0.000000 0.570120 0.957877
Zn8   Zn    Zn3+2 0.070140 0.500000 0.570120 0.958302
Zn9   Zn    Zn3+2 0.000000 0.546450 0.999940 0.947489
Zn10  Zn    Zn3+2 0.000000 0.453550 0.999940 0.946281
Zn11  Zn    Zn3+2 0.500000 0.046450 0.999940 0.947905
Zn12  Zn    Zn3+2 0.500000 0.953550 0.999940 0.946192
N1    N     N_2   0.380312 0.719349 0.400277 -0.287428
H57   H     H_    0.370899 0.693727 0.362819 0.222928
C137  C     C_3   0.330114 0.749923 0.349657 -0.735236
H58   H     H_    0.285597 0.734487 0.318869 0.235221
H59   H     H_    0.324394 0.763297 0.296208 0.221065
H60   H     H_    0.339722 0.775589 0.393160 0.281462
N2    N     N_2   0.386490 0.281088 0.429556 -0.285524
H61   H     H_    0.371439 0.306671 0.389050 0.221391
C138  C     C_3   0.337420 0.250591 0.390170 -0.734168
H62   H     H_    0.296600 0.266096 0.372036 0.236523
H63   H     H_    0.353888 0.224927 0.437666 0.279742
H64   H     H_    0.322092 0.237188 0.329208 0.218565
N3    N     N_2   0.879713 0.219341 0.395641 -0.287706
H65   H     H_    0.871239 0.193718 0.358819 0.222961
C139  C     C_3   0.829557 0.249913 0.343394 -0.734824
H66   H     H_    0.784605 0.234475 0.310676 0.235140
H67   H     H_    0.825434 0.263288 0.291382 0.221086
H68   H     H_    0.838029 0.275578 0.386068 0.281632
N4    N     N_2   0.886639 0.781089 0.430090 -0.285541
H69   H     H_    0.871501 0.806672 0.389549 0.221403
C140  C     C_3   0.837601 0.750592 0.390904 -0.734190
H70   H     H_    0.796858 0.766098 0.372985 0.236479
H71   H     H_    0.854174 0.724928 0.438450 0.279733
H72   H     H_    0.822120 0.737190 0.329840 0.218631
N5    N     N_2   0.295058 0.580479 0.295366 -0.315867
H73   H     H_    0.328018 0.585197 0.363017 0.222036
C141  C     C_3   0.248504 0.613468 0.246065 -0.773428
H74   H     H_    0.272240 0.644365 0.266993 0.238681
H75   H     H_    0.218700 0.612949 0.258978 0.238203
H76   H     H_    0.218607 0.609690 0.173870 0.248273
N6    N     N_2   0.795074 0.080467 0.293437 -0.315566
H77   H     H_    0.828038 0.085553 0.360971 0.221743
C142  C     C_3   0.748533 0.113429 0.243356 -0.772721
H78   H     H_    0.772283 0.144285 0.263541 0.238976
H79   H     H_    0.718736 0.113380 0.256291 0.238108
H80   H     H_    0.718627 0.109196 0.171254 0.248030
N7    N     N_2   0.457485 0.924458 0.661771 -0.305494
H81   H     H_    0.487438 0.911751 0.658770 0.226105
C143  C     C_3   0.437339 0.894380 0.687961 -0.714946
H82   H     H_    0.417876 0.866319 0.644543 0.274085
H83   H     H_    0.400049 0.908107 0.680808 0.231903
H84   H     H_    0.477653 0.884503 0.757865 0.233886
N8    N     N_2   0.957784 0.424385 0.662071 -0.305223
H85   H     H_    0.987790 0.411730 0.659126 0.225491
C144  C     C_3   0.937757 0.394273 0.688382 -0.715501
H86   H     H_    0.918434 0.366168 0.645106 0.274583
H87   H     H_    0.900392 0.407930 0.681133 0.232388
H88   H     H_    0.978102 0.384484 0.758339 0.233101
Br1   Br    Br    0.449832 0.784407 0.586864 -0.556112
Br2   Br    Br    0.478390 0.216365 0.621979 -0.530857
Br3   Br    Br    0.945276 0.284411 0.580527 -0.555504
Br4   Br    Br    0.978876 0.716365 0.622540 -0.530961
N9    N     N_2   0.619367 0.780138 0.600972 -0.295359
H89   H     H_    0.632023 0.802056 0.646924 0.231189
C145  C     C_3   0.667291 0.748790 0.638085 -0.776928
H90   H     H_    0.712568 0.764505 0.673303 0.242586
H91   H     H_    0.654870 0.728925 0.584650 0.246810
H92   H     H_    0.673094 0.728735 0.686058 0.233155
N10   N     N_2   0.612758 0.219211 0.569633 -0.296874
H93   H     H_    0.631898 0.197344 0.618814 0.232314
C146  C     C_3   0.657503 0.250293 0.594032 -0.773725
H94   H     H_    0.699769 0.234328 0.617251 0.243385
H95   H     H_    0.671775 0.270463 0.648409 0.233628
H96   H     H_    0.637021 0.270079 0.535902 0.246879
N11   N     N_2   0.119926 0.280141 0.605519 -0.295260
H97   H     H_    0.131459 0.302064 0.650749 0.231038
C147  C     C_3   0.168186 0.248794 0.644589 -0.776987
H98   H     H_    0.213777 0.264509 0.681646 0.242494
H99   H     H_    0.157148 0.228923 0.592148 0.246829
H100  H     H_    0.172568 0.228745 0.691314 0.233144
N12   N     N_2   0.112610 0.719209 0.569105 -0.296998
H101  H     H_    0.131853 0.697341 0.618323 0.232296
C148  C     C_3   0.157287 0.750290 0.593281 -0.774070
H102  H     H_    0.199488 0.734324 0.616291 0.243326
H103  H     H_    0.171695 0.770461 0.647745 0.233759
H104  H     H_    0.136677 0.770075 0.535092 0.246805

loop_
_geom_bond_atom_site_label_1
_geom_bond_atom_site_label_2
_ccdc_geom_bond_type
C137  H59   S    
C55   C59   S    
C144  H87   S    
C143  H82   S    
C117  C133  S    
C78   O22   A    
C5    N11   S    
C6    N12   S    
C57   H9    S    
C33   C35   S    
C86   C88   S    
C89   H19   S    
C29   C37   S    
C113  N7    S    
N4    H69   S    
C119  N3    S    
C140  H72   S    
C62   C70   S    
C78   C108  S    
C89   C94   S    
C93   H23   S    
C104  C116  S    
C75   O15   A    
C12   C16   S    
C50   C52   S    
C4    C12   S    
O14   Zn12  S    
C68   C128  S    
C5    C13   S    
C81   C86   S    
C7    C15   S    
C114  N8    S    
C8    C16   S    
C2    O28   A    
C130  C134  S    
C104  C105  S    
C44   C46   S    
C27   C31   S    
N12   H101  S    
C84   C100  S    
C97   C131  S    
C6    C132  S    
C68   O48   A    
C4    C130  S    
C81   C99   S    
C27   C35   S    
C44   N6    S    
O3    Zn7   S    
C32   C34   S    
C21   C123  T    
C1    O1    A    
C6    C10   S    
C95   H27   S    
O36   Zn4   S    
C3    N9    S    
O45   Zn5   S    
C111  C113  S    
O16   Zn10  S    
O19   Zn9   S    
C129  C133  S    
C83   C100  S    
C87   C89   S    
C101  C115  S    
C107  C110  S    
O33   Zn3   S    
C80   O25   A    
N1    C137  S    
C76   O18   A    
C102  H32   S    
C49   C62   S    
C3    C129  S    
N2    C138  S    
C56   C59   S    
C98   C120  S    
C42   O36   A    
C40   C122  S    
C108  C111  S    
C15   C117  S    
C37   C44   S    
C103  C116  S    
C142  H79   S    
C60   C62   S    
C104  C110  S    
O41   Zn5   S    
C10   C18   S    
O46   Zn5   S    
C141  H75   S    
C40   O34   A    
C3    C11   S    
C66   C126  S    
C73   O11   A    
O23   Zn9   S    
C60   H12   S    
C20   C134  S    
C58   C60   S    
C21   C135  S    
C113  C115  S    
C59   H11   S    
C112  H38   S    
C147  H99   S    
O9    Zn7   S    
C139  H67   S    
O44   Zn8   S    
C53   C55   S    
C33   C36   S    
O34   Zn3   S    
N8    C144  S    
O29   Zn1   S    
C95   C117  S    
C5    C9    S    
C105  C107  S    
C30   C38   S    
O47   Zn6   S    
C36   H54   S    
C91   H21   S    
C92   H22   S    
C143  H83   S    
C69   O37   A    
C86   H14   S    
C4    N10   S    
C138  H62   S    
C139  H68   S    
C13   H41   S    
C146  H95   S    
C63   O41   A    
C49   C57   S    
C27   H49   S    
C148  H103  S    
C63   C99   S    
C117  N1    S    
C33   C75   S    
N9    C145  S    
C35   C43   S    
C110  C114  S    
C20   C122  T    
C118  C134  S    
C12   H40   S    
C12   C134  S    
N5    H73   S    
C66   O46   A    
C24   C126  T    
C13   C135  S    
C84   C90   S    
C42   O32   A    
O18   Zn12  S    
C83   C89   S    
C59   C61   S    
C55   H7    S    
C48   H4    S    
O35   Zn4   S    
C81   H15   S    
C96   H28   S    
N12   C148  S    
C81   C91   S    
C97   C119  S    
C64   O42   A    
O38   Zn2   S    
C28   H50   S    
C6    C14   S    
C43   C45   S    
C43   N5    S    
C88   C91   S    
C94   C100  S    
C132  C136  S    
N7    H81   S    
C103  C105  S    
C14   H42   S    
N3    C139  S    
C98   H30   S    
C130  H44   S    
C109  C114  S    
C79   O24   A    
N10   C146  S    
C105  H25   S    
C90   H20   S    
C104  H34   S    
C53   C56   S    
C101  C106  S    
C19   C121  T    
C94   H24   S    
O1    Zn1   S    
C30   C46   S    
O28   Zn4   S    
C138  H64   S    
C114  C116  S    
C139  H66   S    
C83   H17   S    
O10   Zn8   S    
C13   C17   S    
C145  H92   S    
C64   C100  S    
C1    C45   S    
C106  C108  S    
C7    C23   S    
C67   O47   A    
C140  H71   S    
O21   Zn11  S    
C98   C132  S    
N6    H77   S    
C103  H33   S    
O25   Zn11  S    
O20   Zn10  S    
C50   H6    S    
C34   C76   S    
C54   C57   S    
C110  H36   S    
C34   C37   S    
C82   C99   S    
C102  C112  S    
C9    C25   S    
C72   O10   A    
C64   O44   A    
C29   C32   S    
C3    C7    S    
C69   O39   A    
C54   C58   S    
C15   Br1   S    
C82   C92   S    
C48   C56   S    
N11   C147  S    
C73   C87   S    
C102  C115  S    
C77   O20   A    
C132  H46   S    
O11   Zn9   S    
O6    Zn8   S    
C49   H5    S    
C52   H2    S    
C141  H74   S    
C93   C99   S    
C27   C45   S    
C11   C15   S    
C137  H60   S    
C35   H53   S    
C34   C38   S    
O48   Zn6   S    
C107  C109  S    
C78   O21   A    
O30   Zn1   S    
C90   C94   S    
C54   C80   S    
C145  H90   S    
C50   C58   S    
C84   C85   S    
N8    H85   S    
C57   C60   S    
C47   C51   S    
C118  N2    S    
C82   C86   S    
C119  C135  S    
C29   H51   S    
C22   C136  S    
C2    O2    A    
C30   H52   S    
C38   C44   S    
C142  H78   S    
C91   C93   S    
O37   Zn1   S    
C75   O16   A    
C49   C52   S    
O15   Zn9   S    
C51   H1    S    
C83   C85   S    
O4    Zn7   S    
O22   Zn12  S    
C71   O9    A    
C96   C130  S    
C9    C97   S    
O40   Zn4   S    
C28   C31   S    
C67   O5    A    
C47   C61   S    
C71   O7    A    
C19   C133  S    
C72   C116  S    
C11   H39   S    
C39   C121  S    
C29   C46   S    
C103  C109  S    
C25   C127  T    
O42   Zn6   S    
C131  H45   S    
O32   Zn2   S    
C146  H94   S    
N1    H57   S    
C14   C136  S    
C97   H29   S    
C101  C111  S    
C92   C93   S    
C106  H26   S    
C148  H102  S    
C70   O40   A    
C39   O33   A    
C17   C119  S    
C51   C53   S    
C63   O43   A    
C147  H98   S    
C56   H8    S    
C108  C112  S    
C5    C131  S    
C28   C36   S    
O24   Zn10  S    
N9    H89   S    
C87   C90   S    
C40   O30   A    
C95   C129  S    
C39   O29   A    
C36   C43   S    
C74   C88   S    
C82   H16   S    
C65   O3    A    
C76   O17   A    
N10   H93   S    
C41   O35   A    
N6    C142  S    
C144  H86   S    
C14   C18   S    
C8    C96   S    
C4    C8    S    
C42   C124  S    
C2    C46   S    
C129  H43   S    
C120  N4    S    
C96   C118  S    
C53   C79   S    
C142  H80   S    
C16   C118  S    
C11   C133  S    
C80   O26   A    
O31   Zn2   S    
C137  H58   S    
C68   O6    A    
C141  H76   S    
C10   C98   S    
C8    C24   S    
C48   C51   S    
C17   Br3   S    
C18   Br4   S    
C31   C33   S    
N3    H65   S    
C120  C136  S    
C23   C125  T    
O12   Zn10  S    
C10   C26   S    
C79   O23   A    
C147  H100  S    
C65   O45   A    
O43   Zn7   S    
C112  C113  S    
C52   C54   S    
C85   C87   S    
C73   O12   A    
C28   C45   S    
C88   C92   S    
C77   C107  S    
C143  H84   S    
O8    Zn6   S    
C138  H63   S    
O7    Zn5   S    
C146  H96   S    
C145  H91   S    
C65   C125  S    
C148  H104  S    
O39   Zn3   S    
C70   O38   A    
O13   Zn11  S    
C67   C127  S    
C72   O8    A    
C131  C135  S    
C140  H70   S    
C71   C115  S    
C1    O27   A    
C84   H18   S    
C26   C128  T    
C41   O31   A    
O17   Zn11  S    
C9    C17   S    
C37   H55   S    
C38   H56   S    
N5    C141  S    
C50   C62   S    
C144  H88   S    
C47   H3    S    
N2    H61   S    
C18   C120  S    
C101  H31   S    
C47   C55   S    
C74   O14   A    
C61   C69   S    
N4    C140  S    
O2    Zn2   S    
C31   H47   S    
C111  H37   S    
O26   Zn12  S    
C32   H48   S    
C66   O4    A    
C58   H10   S    
C22   C124  T    
C7    C95   S    
O5    Zn8   S    
C41   C123  S    
C30   C32   S    
C48   C61   S    
N7    C143  S    
O27   Zn3   S    
C102  C106  S    
N11   H97   S    
C85   H13   S    
C77   O19   A    
C109  H35   S    
C16   Br2   S    
C74   O13   A    
