data_mof_unit_29763.cif
_audit_creation_date              2013-03-05T16:04:24-0500
_audit_creation_method            fapswitch 2.2
_symmetry_space_group_name_H-M    P1
_symmetry_Int_Tables_number       1
_space_group_crystal_system       triclinic
_cell_length_a                    15.003953
_cell_length_b                    13.989129
_cell_length_c                    27.735318
_cell_angle_alpha                 89.967568
_cell_angle_beta                  90.199686
_cell_angle_gamma                 89.952869
_cell_volume                      5821.38958998

loop_
_atom_site_label
_atom_site_type_symbol
_atom_site_description
_atom_site_fract_x
_atom_site_fract_y
_atom_site_fract_z
_atom_type_partial_charge
O1    O     O_R   0.367850 0.580280 0.500010 -0.630781
O2    O     O_R   0.632150 0.419720 0.499990 -0.631604
O3    O     O_R   0.632150 0.580280 0.499990 -0.629350
O4    O     O_R   0.367850 0.419720 0.500010 -0.629521
C1    C     C_R   0.326451 0.500031 0.500261 0.906264
C2    C     C_R   0.673559 0.499966 0.499874 0.905272
O5    O     O_R   0.500010 0.580260 0.428760 -0.627285
O6    O     O_R   0.499990 0.419740 0.571240 -0.627008
O7    O     O_R   0.499990 0.580260 0.571240 -0.623509
O8    O     O_R   0.500010 0.419740 0.428760 -0.623415
C3    C     C_R   0.500990 0.500005 0.405952 0.888159
C4    C     C_R   0.500205 0.499978 0.594099 0.887826
Zn1   Zn    Zn3+2 0.500000 0.607200 0.500000 0.941349
Zn2   Zn    Zn3+2 0.500000 0.392800 0.500000 0.941371
C5    C     C_R   0.435261 0.481718 0.178280 0.489403
C6    C     C_R   0.596372 0.498982 0.821427 0.478474
O9    O     O_2   0.360877 0.473018 0.204992 -0.605850
O10   O     O_2   0.670550 0.497266 0.794214 -0.597267
N1    N     N_R   0.514368 0.495398 0.201684 -0.349342
N2    N     N_R   0.515912 0.504397 0.798494 -0.349802
C7    C     C_R   0.592835 0.505266 0.177905 0.482554
C8    C     C_R   0.437684 0.510754 0.822798 0.488366
C9    C     C_R   0.520712 0.413268 0.278606 -0.138760
C10   C     C_R   0.509221 0.587360 0.721732 -0.120256
C11   C     C_R   0.515963 0.413471 0.328493 -0.220636
C12   C     C_R   0.504266 0.586948 0.671869 -0.226064
C13   C     C_R   0.500415 0.586268 0.327765 -0.252604
C14   C     C_R   0.506295 0.413274 0.672281 -0.219038
C15   C     C_R   0.504643 0.586829 0.277453 0.147337
C16   C     C_R   0.511491 0.412609 0.722850 0.143993
C17   C     C_R   0.514700 0.499088 0.253032 0.322549
C18   C     C_R   0.513028 0.501250 0.747112 0.301152
C19   C     C_R   0.513528 0.491246 0.101962 -0.072084
C20   C     C_R   0.519108 0.500634 0.898232 -0.070579
C21   C     C_R   0.432061 0.477969 0.127199 -0.070271
C22   C     C_R   0.600875 0.495138 0.872544 -0.069895
C23   C     C_R   0.351997 0.460779 0.100544 0.107891
C24   C     C_R   0.682405 0.484051 0.898771 0.106744
C25   C     C_R   0.594010 0.504173 0.127734 -0.007619
C26   C     C_R   0.437602 0.509308 0.872921 -0.007345
C27   C     C_R   0.505351 0.499890 0.353367 -0.063483
C28   C     C_R   0.503020 0.500040 0.646819 -0.073639
H1    H     H_    0.492863 0.653425 0.346802 0.158660
H2    H     H_    0.505157 0.346988 0.652322 0.152881
C29   C     C_R   0.435474 0.497427 0.974204 0.062720
C30   C     C_R   0.597552 0.500436 0.026147 0.062753
C31   C     C_R   0.598913 0.494371 0.975089 0.003733
C32   C     C_R   0.434696 0.485571 0.024923 0.003517
C33   C     C_R   0.517973 0.497486 0.949256 0.072413
C34   C     C_R   0.515196 0.492179 0.050927 0.072722
C35   C     C_R   0.356140 0.511052 0.947645 -0.231685
C36   C     C_R   0.675881 0.516224 0.053296 -0.230740
C37   C     C_R   0.357319 0.516388 0.897929 -0.146015
C38   C     C_R   0.674018 0.517552 0.103119 -0.145425
O11   O     O_2   0.360075 0.517495 0.798189 -0.571816
O12   O     O_2   0.669313 0.517039 0.203026 -0.572026
C39   C     C_R   0.355647 0.465129 0.050028 -0.218796
C40   C     C_R   0.678996 0.483565 0.949382 -0.217403
H3    H     H_    0.501644 0.654697 0.652984 0.163392
H4    H     H_    0.520532 0.346025 0.347516 0.163305
H5    H     H_    0.509942 0.654773 0.740913 0.139759
H6    H     H_    0.528051 0.346156 0.259568 0.136414
H7    H     H_    0.294510 0.525953 0.879122 0.187986
H8    H     H_    0.735968 0.529924 0.122319 0.187787
H9    H     H_    0.292044 0.520919 0.964440 0.139702
H10   H     H_    0.739511 0.531381 0.037040 0.139299
H11   H     H_    0.296577 0.448658 0.029878 0.139568
H12   H     H_    0.739415 0.470597 0.968986 0.139167
C41   C     C_R   0.815103 0.586853 0.497240 -0.253729
C42   C     C_R   0.184971 0.413217 0.504213 -0.260062
C43   C     C_R   0.769421 0.499915 0.499858 -0.075681
C44   C     C_R   0.230612 0.500083 0.500838 -0.075568
C45   C     C_R   0.815258 0.412991 0.502711 -0.260835
C46   C     C_R   0.184759 0.586973 0.497903 -0.256078
C47   C     C_R   0.907422 0.412409 0.503238 0.119958
C48   C     C_R   0.092615 0.587638 0.497946 0.124992
C49   C     C_R   0.953676 0.500019 0.500593 0.062097
C50   C     C_R   0.046372 0.500074 0.500949 0.062588
C51   C     C_R   0.907245 0.587569 0.497562 0.125494
C52   C     C_R   0.092816 0.412544 0.504153 0.119976
C53   C     C_R   0.953921 0.325830 0.506455 -0.216556
C54   C     C_R   0.046122 0.674226 0.494860 -0.230960
C55   C     C_R   0.046515 0.325910 0.507014 -0.216825
C56   C     C_R   0.953552 0.674225 0.494932 -0.226654
H13   H     H_    0.779136 0.653964 0.494936 0.159484
H14   H     H_    0.220961 0.346092 0.506752 0.156096
H15   H     H_    0.779411 0.345801 0.504748 0.158422
H16   H     H_    0.220587 0.654040 0.495291 0.159314
H17   H     H_    0.918723 0.258332 0.508546 0.142705
H18   H     H_    0.081306 0.741694 0.492477 0.147063
H19   H     H_    0.081872 0.258475 0.509525 0.142013
H20   H     H_    0.918232 0.741721 0.492871 0.146989
C57   C     C_R   0.557515 0.797302 0.471052 -0.062989
C58   C     C_R   0.438908 0.202693 0.526685 -0.063859
C59   C     C_R   0.441490 0.797379 0.528338 -0.063500
C60   C     C_R   0.559642 0.202660 0.472361 -0.063848
N3    N     N_R   0.500000 0.750030 0.500000 -0.109067
N4    N     N_R   0.500000 0.249970 0.500000 -0.108868
C61   C     C_R   0.438289 0.898611 0.529014 -0.023967
C62   C     C_R   0.561192 0.101411 0.470615 -0.023741
C63   C     C_R   0.558917 0.898518 0.469278 -0.025019
C64   C     C_R   0.435792 0.101482 0.527381 -0.023869
C65   C     C_R   0.498664 0.949444 0.499159 0.014327
C66   C     C_R   0.498665 0.050559 0.499123 0.013798
C67   C     C_R   0.376031 0.949201 0.558179 0.069661
C68   C     C_R   0.622477 0.050875 0.440818 0.072361
C69   C     C_R   0.618490 0.948997 0.438502 0.071075
C70   C     C_R   0.371795 0.051009 0.555414 0.072620
H21   H     H_    0.602276 0.753962 0.450015 0.148062
H22   H     H_    0.393795 0.246061 0.547465 0.147696
H23   H     H_    0.397177 0.754029 0.549619 0.148841
H24   H     H_    0.604395 0.246114 0.451413 0.148864
C71   C     C_3   0.316394 0.894532 0.593222 -0.423530
C72   C     C_3   0.233517 0.853898 0.567781 -0.366454
C73   C     C_3   0.180121 0.790109 0.601690 -0.857673
H25   H     H_    0.220721 0.727436 0.612922 0.266192
H26   H     H_    0.159481 0.830876 0.634150 0.263500
H27   H     H_    0.119392 0.763923 0.582983 0.254553
H28   H     H_    0.190196 0.913273 0.555110 0.216127
H29   H     H_    0.252849 0.811470 0.535672 0.215965
H30   H     H_    0.354953 0.836901 0.611285 0.191054
H31   H     H_    0.295290 0.939480 0.623975 0.205357
C74   C     C_3   0.692415 0.106032 0.412098 -0.431790
C75   C     C_3   0.652735 0.146494 0.365148 -0.358218
C76   C     C_3   0.717867 0.213979 0.340295 -0.856199
H32   H     H_    0.733051 0.275896 0.364005 0.263466
H33   H     H_    0.780689 0.175804 0.331517 0.263111
H34   H     H_    0.687687 0.241144 0.306325 0.254178
H35   H     H_    0.636196 0.086975 0.340193 0.218699
H36   H     H_    0.590086 0.186096 0.372470 0.218415
H37   H     H_    0.721652 0.163665 0.434632 0.188026
H38   H     H_    0.751408 0.061766 0.403507 0.203657
C77   C     C_3   0.674292 0.894119 0.401732 -0.424007
C78   C     C_3   0.761177 0.856264 0.424214 -0.365231
C79   C     C_3   0.811076 0.792103 0.388938 -0.863591
H39   H     H_    0.770283 0.728250 0.379973 0.266072
H40   H     H_    0.826499 0.831921 0.355329 0.264119
H41   H     H_    0.874637 0.767799 0.405463 0.252306
H42   H     H_    0.804884 0.916988 0.434506 0.216995
H43   H     H_    0.747018 0.814822 0.457451 0.214641
H44   H     H_    0.634709 0.834854 0.385882 0.189756
H45   H     H_    0.689835 0.938161 0.369665 0.202950
C80   C     C_3   0.296962 0.105811 0.580470 -0.428444
C81   C     C_3   0.327559 0.146103 0.629285 -0.365556
C82   C     C_3   0.255520 0.208795 0.651708 -0.859170
H46   H     H_    0.240643 0.270696 0.627875 0.263333
H47   H     H_    0.193663 0.166759 0.657400 0.262638
H48   H     H_    0.278951 0.236201 0.687108 0.255248
H49   H     H_    0.343532 0.086683 0.654449 0.222333
H50   H     H_    0.388889 0.189415 0.624854 0.213220
H51   H     H_    0.271881 0.163837 0.556669 0.185784
H52   H     H_    0.236926 0.061093 0.585692 0.204019
C83   C     C_3   0.497668 0.681097 0.250962 -0.426759
C84   C     C_3   0.401673 0.718681 0.251545 -0.333924
C85   C     C_3   0.393833 0.812932 0.224150 -0.878363
H53   H     H_    0.437378 0.867971 0.240885 0.261213
H54   H     H_    0.413247 0.802954 0.185862 0.265167
H55   H     H_    0.323798 0.838513 0.225306 0.253389
H56   H     H_    0.356591 0.665381 0.234509 0.258321
H57   H     H_    0.379679 0.730166 0.289336 0.221554
H58   H     H_    0.542865 0.733838 0.268405 0.199918
H59   H     H_    0.519863 0.674110 0.212997 0.211755
C86   C     C_3   0.515461 0.320672 0.752290 -0.411827
C87   C     C_3   0.510015 0.227329 0.723345 -0.382563
C88   C     C_3   0.512997 0.140265 0.756484 -0.860434
H60   H     H_    0.576430 0.138984 0.777251 0.264547
H61   H     H_    0.456005 0.141667 0.781936 0.263698
H62   H     H_    0.508633 0.074055 0.734532 0.247614
H63   H     H_    0.446447 0.225629 0.702876 0.228002
H64   H     H_    0.566853 0.222791 0.697840 0.229389
H65   H     H_    0.578805 0.320243 0.773184 0.220540
H66   H     H_    0.459419 0.321522 0.778416 0.212304
C89   C     C_3   0.263631 0.437394 0.125563 -0.325693
C90   C     C_3   0.183565 0.411850 0.093163 -0.438314
C91   C     C_3   0.101688 0.387261 0.123264 -0.839690
H67   H     H_    0.115585 0.324582 0.146731 0.264343
H68   H     H_    0.082267 0.449109 0.146049 0.266314
H69   H     H_    0.045062 0.369402 0.099001 0.249339
H70   H     H_    0.166335 0.473612 0.069649 0.227385
H71   H     H_    0.200118 0.348874 0.070438 0.231926
H72   H     H_    0.275107 0.375006 0.149658 0.239296
H73   H     H_    0.243623 0.500459 0.147367 0.240549
C92   C     C_3   0.772142 0.471874 0.873157 -0.324956
C93   C     C_3   0.855135 0.455706 0.904964 -0.440158
C94   C     C_3   0.938791 0.444248 0.874296 -0.836491
H74   H     H_    0.932090 0.381612 0.849952 0.264782
H75   H     H_    0.950282 0.509552 0.852380 0.266938
H76   H     H_    0.997468 0.432834 0.898132 0.248295
H77   H     H_    0.865112 0.517942 0.929308 0.228931
H78   H     H_    0.846707 0.389682 0.926812 0.230652
H79   H     H_    0.766901 0.409074 0.848759 0.235801
H80   H     H_    0.784825 0.537478 0.851628 0.244969

loop_
_geom_bond_atom_site_label_1
_geom_bond_atom_site_label_2
_geom_bond_distance
_ccdc_geom_bond_type
C63   C69   1.425422 A    
C79   H41   1.109670 S    
C61   C65   1.420395 A    
C88   H60   1.110869 S    
C90   H71   1.111945 S    
C74   H38   1.106528 S    
C13   C15   1.397113 A    
C87   H64   1.111687 S    
C86   C87   1.535301 S    
O3    C2    1.283435 A    
N1    C17   1.425098 S    
C92   H80   1.111513 S    
C72   C73   1.525814 S    
C41   H13   1.084224 S    
C32   C39   1.406910 A    
C91   H68   1.110994 S    
C49   C50   1.390808 A    
O5    C3    1.289056 A    
C60   H24   1.077470 S    
C77   H45   1.107284 S    
C10   H5    1.083073 S    
C46   C48   1.382541 A    
O1    C1    1.283471 A    
C67   C71   1.528554 S    
C87   C88   1.525956 S    
C21   C23   1.428964 A    
C48   C50   1.410849 A    
C1    C44   1.438101 S    
C78   H43   1.109962 S    
C51   C56   1.399719 A    
C59   C61   1.417060 A    
C94   H75   1.110911 S    
C25   C38   1.395738 A    
C85   H54   1.110960 S    
C68   C69   1.427970 A    
C58   N4    1.352978 A    
C73   H25   1.110991 S    
C30   C36   1.411185 A    
C62   C66   1.420200 A    
C93   C94   1.527066 S    
C79   H40   1.110796 S    
C35   H9    1.078835 S    
C41   C43   1.398496 A    
O7    Zn1   2.011275 S    
C90   C91   1.527085 S    
C45   H15   1.084861 S    
C4    C28   1.462684 S    
C82   H47   1.110803 S    
C24   C40   1.404843 A    
C9    H6    1.083127 S    
C71   H31   1.106935 S    
C14   C16   1.404455 A    
C73   H26   1.110798 S    
C60   N4    1.353068 A    
C68   C74   1.528872 S    
C76   H34   1.110608 S    
C81   H50   1.109330 S    
C64   C70   1.425045 A    
C69   C77   1.528447 S    
C11   H4    1.082754 S    
C86   H65   1.111435 S    
C12   H3    1.083214 S    
C20   C22   1.422898 A    
C72   H28   1.110443 S    
O3    Zn1   2.017915 S    
C6    N2    1.364598 A    
C53   H17   1.083888 S    
C32   C34   1.407746 A    
C89   H72   1.111872 S    
C63   C65   1.420033 A    
C85   H55   1.110363 S    
O4    Zn2   2.017916 S    
C45   C47   1.382877 A    
C87   H63   1.108512 S    
O2    C2    1.283495 A    
C16   C86   1.524054 S    
C39   H11   1.071436 S    
C52   C55   1.399779 A    
C5    C21   1.418400 A    
C53   C55   1.389307 A    
C36   C38   1.382369 A    
Zn2   N4    1.998069 S    
C91   H69   1.110717 S    
C49   C51   1.410846 A    
C2    C43   1.438303 S    
C61   C67   1.425686 A    
C67   C70   1.427577 A    
C42   C52   1.382726 A    
C74   C75   1.537433 S    
C44   C46   1.398405 A    
O8    Zn2   2.011278 S    
C11   C27   1.401496 A    
C78   H42   1.110420 S    
C43   C45   1.398572 A    
C57   C63   1.416935 A    
C47   C53   1.399879 A    
C94   H76   1.110511 S    
C19   C34   1.415850 A    
C89   C90   1.540100 S    
C14   H2    1.080330 S    
C24   C92   1.533937 S    
C83   H58   1.112297 S    
C35   C37   1.381058 A    
C9    C17   1.396783 A    
C5    N1    1.364510 A    
C92   C93   1.540018 S    
C10   C18   1.395890 A    
C84   H57   1.111677 S    
C81   H49   1.110552 S    
C13   C27   1.402965 A    
C91   H67   1.110861 S    
C7    C25   1.391760 A    
C29   C33   1.420188 A    
O6    C4    1.289441 A    
C73   H27   1.109537 S    
C8    C26   1.390326 A    
C75   H36   1.110100 S    
C6    O10   1.347123 S    
C19   C25   1.412913 A    
C64   C66   1.419968 A    
C86   H66   1.111979 S    
C47   C49   1.410931 A    
C84   C85   1.525639 S    
C8    O11   1.350881 S    
C40   H12   1.070741 S    
C80   H52   1.106997 S    
N2    C8    1.358434 A    
C89   H73   1.111576 S    
C88   H62   1.110545 S    
C54   C56   1.388924 A    
C77   C78   1.536701 S    
C93   H78   1.111914 S    
C41   C51   1.382537 A    
O1    Zn1   2.018525 S    
C48   C54   1.399739 A    
C42   H14   1.084954 S    
C57   N3    1.353426 A    
C82   H46   1.111143 S    
C85   H53   1.110964 S    
C82   H48   1.110311 S    
C36   H10   1.078378 S    
C12   C28   1.400728 A    
C15   C83   1.512594 S    
C71   C72   1.537111 S    
N2    C18   1.426291 S    
C29   C32   1.416437 A    
C5    O9    1.347267 S    
C30   C31   1.418905 A    
C20   C33   1.415981 A    
O6    Zn2   2.011694 S    
C80   H51   1.110597 S    
C74   H37   1.110108 S    
C62   C68   1.425906 A    
C10   C12   1.384712 A    
O4    C1    1.283349 A    
C92   H79   1.111892 S    
C7    O12   1.350604 S    
C59   N3    1.353371 A    
C78   C79   1.525891 S    
C31   C33   1.408503 A    
C55   H19   1.083984 S    
C30   C34   1.420790 A    
C77   H44   1.110292 S    
C54   H18   1.083903 S    
C83   H59   1.109831 S    
C81   C82   1.525754 S    
C22   C24   1.429307 A    
C84   H56   1.111632 S    
C15   C17   1.410463 A    
C59   H23   1.077576 S    
C6    C22   1.420111 A    
C31   C40   1.407397 A    
C16   C18   1.411343 A    
C37   H7    1.083665 S    
C94   H74   1.110896 S    
C76   H32   1.111094 S    
C38   H8    1.083694 S    
C60   C62   1.417416 A    
C14   C28   1.404665 A    
C19   C21   1.422913 A    
C58   H22   1.077416 S    
C75   H35   1.110700 S    
C3    C27   1.460181 S    
C50   C52   1.410972 A    
C9    C11   1.385715 A    
Zn1   N3    1.998067 S    
O2    Zn2   2.018523 S    
O7    C4    1.289351 A    
C72   H29   1.109789 S    
C79   H39   1.111048 S    
O8    C3    1.288567 A    
C23   C89   1.534016 S    
C13   H1    1.083970 S    
O5    Zn1   2.011697 S    
C71   H30   1.110141 S    
C58   C64   1.416778 A    
C88   H61   1.110905 S    
C26   C37   1.395546 A    
C65   C66   1.414516 A    
C76   H33   1.110781 S    
C29   C35   1.410371 A    
C93   H77   1.111957 S    
C20   C26   1.413056 A    
C42   C44   1.398594 A    
C56   H20   1.083751 S    
C46   H16   1.084203 S    
C83   C84   1.533001 S    
C90   H70   1.111977 S    
C70   C80   1.528385 S    
C23   C39   1.403634 A    
C80   C81   1.535733 S    
C57   H21   1.077738 S    
C75   C76   1.525404 S    
N1    C7    1.358559 A    
