data_mof_unit_36045.cif
_audit_creation_date              2012-12-10T19:46:25-0500
_audit_creation_method            fapswitch 2.2
_symmetry_space_group_name_H-M    P1
_symmetry_Int_Tables_number       1
_space_group_crystal_system       triclinic
_cell_length_a                    10.843308
_cell_length_b                    10.811999
_cell_length_c                    10.437239
_cell_angle_alpha                 89.927925
_cell_angle_beta                  90.288769
_cell_angle_gamma                 89.791414
_cell_volume                      1223.61466023

loop_
_atom_site_label
_atom_site_type_symbol
_atom_type_description
_atom_site_fract_x
_atom_site_fract_y
_atom_site_fract_z
_atom_type_partial_charge
C1    C     C_R   0.495090 0.261711 0.499894 0.808166
C2    C     C_R   0.504914 0.738288 0.500108 0.808213
C3    C     C_R   0.871965 0.493884 0.501981 -0.049962
C4    C     C_R   0.128037 0.506127 0.498035 -0.049966
C5    C     C_R   0.940389 0.452019 0.609311 0.030971
C6    C     C_R   0.059615 0.548026 0.390724 0.030976
C7    C     C_R   0.150263 0.196207 0.243039 0.422464
C8    C     C_R   0.849743 0.803865 0.757027 0.422511
C9    C     C_R   0.230499 0.149366 0.336716 -0.201834
C10   C     C_R   0.769530 0.850745 0.663342 -0.201905
C11   C     C_R   0.352821 0.120021 0.305399 0.049052
C12   C     C_R   0.647160 0.879966 0.694612 0.049025
C13   C     C_R   0.394736 0.139181 0.180016 -0.122300
C14   C     C_R   0.605165 0.860639 0.819955 -0.122113
C15   C     C_R   0.314973 0.188038 0.087035 -0.207681
C16   C     C_R   0.684912 0.811753 0.912944 -0.207596
C17   C     C_R   0.192670 0.215732 0.118195 -0.159532
C18   C     C_R   0.807267 0.784189 0.881840 -0.159406
C19   C     C_R   0.442286 0.933231 0.402739 -0.233281
C20   C     C_R   0.557717 0.066764 0.597266 -0.233241
C21   C     C_R   0.506555 0.871834 0.500204 -0.073406
C22   C     C_R   0.493444 0.128164 0.499804 -0.073407
C23   C     C_R   0.261583 0.504409 0.499296 0.801100
C24   C     C_R   0.738418 0.495594 0.500707 0.801039
C25   C     C_R   0.566289 0.938846 0.597884 0.026138
C26   C     C_R   0.433704 0.061151 0.402128 0.026151
C27   C     C_1   0.499999 0.499992 0.071970 0.078541
C28   C     C_1   0.500001 0.500008 0.928030 0.078566
C29   C     C_R   0.209496 0.779308 0.167977 -0.143175
C30   C     C_R   0.790255 0.221080 0.832283 -0.143092
C31   C     C_R   0.165972 0.723339 0.280000 -0.121732
C32   C     C_R   0.833787 0.276930 0.720192 -0.121327
C33   C     C_R   0.115683 0.603910 0.275212 0.122841
C34   C     C_R   0.884327 0.396262 0.724895 0.122901
C35   C     C_R   0.109613 0.541740 0.157283 -0.152237
C36   C     C_R   0.890653 0.458443 0.842808 -0.152503
C37   C     C_R   0.155949 0.596718 0.046325 -0.145955
C38   C     C_R   0.844310 0.403589 0.953833 -0.145930
C39   C     C_R   0.205620 0.715601 0.051611 -0.071704
C40   C     C_R   0.794380 0.284807 0.948632 -0.071727
C41   C     C_R   0.932145 0.540421 0.394036 -0.162662
C42   C     C_R   0.067861 0.459601 0.605984 -0.162777
Cu1   Cu    Cu3+1 0.500000 0.500000 0.625300 0.993047
Cu2   Cu    Cu3+1 0.500000 0.500000 0.374700 0.993074
H1    H     H_    0.239944 0.758851 0.965327 0.156754
H2    H     H_    0.760046 0.241650 0.034964 0.156804
H3    H     H_    0.488653 0.115822 0.154413 0.138261
H4    H     H_    0.511208 0.883880 0.845513 0.138237
H5    H     H_    0.347540 0.203022 0.990407 0.151438
H6    H     H_    0.652288 0.796630 0.009534 0.151386
H7    H     H_    0.395469 0.880961 0.329059 0.150254
H8    H     H_    0.604546 0.119028 0.670941 0.150161
H9    H     H_    0.244981 0.872636 0.170673 0.138482
H10   H     H_    0.754570 0.127824 0.829659 0.138306
H11   H     H_    0.168770 0.773865 0.369521 0.141183
H12   H     H_    0.830793 0.226384 0.630688 0.140953
H13   H     H_    0.067984 0.451366 0.151132 0.166867
H14   H     H_    0.932488 0.548725 0.848896 0.166971
H15   H     H_    0.151902 0.547805 0.955979 0.145474
H16   H     H_    0.848549 0.452515 0.044163 0.145499
H17   H     H_    0.879484 0.574393 0.312522 0.146657
H18   H     H_    0.120520 0.425639 0.687505 0.146676
H19   H     H_    0.130869 0.251489 0.045128 0.155090
H20   H     H_    0.869055 0.748405 0.954908 0.155039
H21   H     H_    0.197032 0.133171 0.432906 0.161916
H22   H     H_    0.803048 0.867063 0.567191 0.161965
N1    N     N_1   0.500010 0.499990 0.186410 -0.138413
N2    N     N_1   0.499990 0.500010 0.813590 -0.138407
O1    O     O_R   0.499990 0.319650 0.605810 -0.586635
O2    O     O_R   0.500010 0.680350 0.394190 -0.586612
O3    O     O_R   0.499990 0.319640 0.394190 -0.562968
O4    O     O_R   0.500010 0.680360 0.605810 -0.562993
O5    O     O_R   0.319640 0.500010 0.605810 -0.580417
O6    O     O_R   0.680360 0.499990 0.394190 -0.580390
O7    O     O_R   0.319650 0.500010 0.394190 -0.567471
O8    O     O_R   0.680350 0.499990 0.605810 -0.567488
Cl1   Cl    Cl    0.995722 0.226585 0.281557 -0.703439
Cl2   Cl    Cl    0.004325 0.773608 0.718573 -0.703464

loop_
_geom_bond_atom_site_label_1
_geom_bond_atom_site_label_2
_ccdc_geom_bond_type
Cu1   O5    S    
C30   C32   A    
C5    C42   A    
Cu1   O4    S    
C41   H17   S    
C18   H20   S    
C28   N2    T    
C40   H2    S    
C30   H10   S    
C1    O3    A    
C4    C42   A    
C19   C21   A    
C16   H6    S    
C36   H14   S    
C20   C25   A    
Cu2   O3    S    
C15   C17   A    
C19   C26   A    
Cu1   N2    S    
C7    C17   A    
C6    C41   A    
C31   C33   A    
Cu2   O2    S    
C42   H18   S    
C39   H1    S    
C1    O1    A    
C1    C22   S    
Cu1   O1    S    
C8    Cl2   S    
C3    C24   S    
C23   O5    A    
C2    O4    A    
C10   H22   S    
C4    C6    A    
C23   O7    A    
C13   H3    S    
C4    C23   S    
C24   O8    A    
C14   H4    S    
C11   C26   S    
C8    C18   A    
C32   C34   A    
Cu2   O7    S    
Cu1   Cu2   S    
C29   C31   A    
C5    C34   S    
C29   C39   A    
C2    C21   S    
C30   C40   A    
Cu2   O6    S    
C9    C11   A    
C37   H15   S    
C10   C12   A    
C38   H16   S    
C8    C10   A    
C12   C14   A    
C13   C15   A    
C14   C16   A    
Cu1   O8    S    
C7    C9    A    
C21   C25   A    
C3    C41   A    
C35   C37   A    
C20   C22   A    
C3    C5    A    
C20   H8    S    
C6    C33   S    
C7    Cl1   S    
C12   C25   S    
C35   H13   S    
C36   C38   A    
C37   C39   A    
C17   H19   S    
C38   C40   A    
C11   C13   A    
C24   O6    A    
C29   H9    S    
C33   C35   A    
C34   C36   A    
C15   H5    S    
C9    H21   S    
C27   N1    T    
C19   H7    S    
C16   C18   A    
C22   C26   A    
C27   C28   S    
Cu2   N1    S    
C31   H11   S    
C2    O2    A    
C32   H12   S    
