data_mof_unit_14385.cif
_audit_creation_date              2012-12-10T17:38:14-0500
_audit_creation_method            fapswitch 2.2
_symmetry_space_group_name_H-M    P1
_symmetry_Int_Tables_number       1
_space_group_crystal_system       triclinic
_cell_length_a                    12.11599
_cell_length_b                    12.727641
_cell_length_c                    19.232178
_cell_angle_alpha                 92.532467
_cell_angle_beta                  85.666856
_cell_angle_gamma                 94.688658
_cell_volume                      2945.2250544

loop_
_atom_site_label
_atom_site_type_symbol
_atom_type_description
_atom_site_fract_x
_atom_site_fract_y
_atom_site_fract_z
_atom_type_partial_charge
C1    C     C_R   0.523562 0.699759 0.490392 0.882094
C2    C     C_R   0.477063 0.298515 0.504789 0.892680
C3    C     C_R   0.463139 0.182987 0.503200 -0.138293
C4    C     C_R   0.543296 0.809603 0.467799 -0.213607
C5    C     C_R   0.660228 0.973647 0.469305 -0.144330
C6    C     C_R   0.373139 0.035369 0.441236 -0.086367
C7    C     C_R   0.651041 0.863338 0.467363 -0.082620
C8    C     C_R   0.365068 0.129989 0.480267 -0.197427
C9    C     C_R   0.453576 0.863691 0.447614 -0.049224
C10   C     C_R   0.559205 0.128516 0.505667 0.023618
C11   C     C_R   0.463585 0.975117 0.450726 0.146090
C12   C     C_R   0.562064 0.026840 0.474913 0.044248
C13   C     C_R   0.955096 0.416222 0.425407 -0.277585
C14   C     C_R   0.046074 0.597577 0.566307 -0.374178
C15   C     C_R   0.840560 0.424872 0.431741 0.126401
C16   C     C_R   0.161151 0.595019 0.556776 0.182642
C17   C     C_R   0.858306 0.534512 0.534369 0.090676
C18   C     C_R   0.140274 0.452468 0.472800 0.089210
C19   C     C_R   0.975566 0.530810 0.526751 -0.003968
C20   C     C_R   0.023771 0.464267 0.475151 0.099966
C21   C     C_R   0.497783 0.491137 0.634226 0.926688
C22   C     C_R   0.500511 0.499802 0.366232 0.820431
C23   C     C_R   0.396585 0.486856 0.754883 -0.052840
C24   C     C_R   0.543438 0.591084 0.256035 -0.084927
C25   C     C_R   0.403679 0.490715 0.827739 0.089093
C26   C     C_R   0.553365 0.588069 0.182729 0.146120
C27   C     C_R   0.508036 0.483400 0.854737 0.024582
C28   C     C_R   0.504876 0.499492 0.146042 -0.006009
C29   C     C_R   0.601057 0.457715 0.810662 0.161109
C30   C     C_R   0.453204 0.411420 0.181711 0.157982
C31   C     C_R   0.589061 0.440051 0.739033 0.142227
C32   C     C_R   0.460078 0.407971 0.254211 0.167533
C33   C     C_R   0.493455 0.471694 0.710062 -0.179884
C34   C     C_R   0.502158 0.499198 0.290890 -0.168950
C35   C     C_R   0.511058 0.498052 0.070125 0.297521
C36   C     C_R   0.516524 0.492311 0.930028 0.310321
H1    H     H_    0.989595 0.375218 0.379397 0.187531
H2    H     H_    0.012690 0.656583 0.602551 0.131641
N1    N     N_R   0.477951 0.575977 0.967498 -0.164033
N2    N     N_R   0.552259 0.415650 0.032630 -0.160878
N3    N     N_R   0.474919 0.578668 0.036631 -0.160138
N4    N     N_R   0.553917 0.412366 0.963555 -0.166534
N5    N     N_R   0.207800 0.519350 0.512860 -0.146365
N6    N     N_R   0.792200 0.480650 0.487140 -0.112949
O1    O     O_R   0.421690 0.658830 0.503430 -0.609501
O2    O     O_R   0.578310 0.341170 0.496570 -0.537988
O3    O     O_R   0.609320 0.646410 0.495180 -0.533307
O4    O     O_R   0.390680 0.353590 0.504820 -0.607634
O5    O     O_R   0.406160 0.506220 0.605990 -0.523185
O6    O     O_R   0.593840 0.493780 0.394010 -0.614534
O7    O     O_R   0.593780 0.493810 0.597740 -0.605207
O8    O     O_R   0.406220 0.506190 0.402260 -0.674039
Zn1   Zn    Zn3+2 0.374720 0.508290 0.505510 1.016545
Zn2   Zn    Zn3+2 0.625280 0.491710 0.494490 1.057884
C37   C     C_2   0.286256 0.493532 0.727483 0.524677
H3    H     H_    0.237922 0.559866 0.743123 0.063776
O9    O     O_2   0.245998 0.421783 0.690802 -0.516922
C38   C     C_2   0.573902 0.689950 0.296968 0.393414
H4    H     H_    0.606709 0.686186 0.347336 0.105804
O10   O     O_2   0.558169 0.776316 0.276059 -0.524812
C39   C     C_3   0.300250 0.498969 0.877340 -0.865200
H5    H     H_    0.297359 0.581014 0.899054 0.255175
H6    H     H_    0.221627 0.476584 0.852654 0.228244
H7    H     H_    0.300692 0.444113 0.920631 0.252294
C40   C     C_3   0.621018 0.675751 0.143764 -0.729275
H8    H     H_    0.667099 0.644159 0.096356 0.211640
H9    H     H_    0.565428 0.734715 0.128705 0.268201
H10   H     H_    0.686063 0.715516 0.175538 0.254667
C41   C     C_3   0.712806 0.449589 0.839964 -0.866320
H11   H     H_    0.713399 0.373418 0.865815 0.257525
H12   H     H_    0.782396 0.455209 0.799052 0.245083
H13   H     H_    0.730124 0.515843 0.878124 0.241059
C42   C     C_3   0.390148 0.321102 0.143554 -0.832726
H14   H     H_    0.309498 0.299503 0.172675 0.244094
H15   H     H_    0.368336 0.341566 0.091175 0.241921
H16   H     H_    0.439991 0.251421 0.138172 0.256444
C43   C     C_3   0.669865 0.373501 0.696648 -0.785818
H17   H     H_    0.694080 0.309361 0.728326 0.237319
H18   H     H_    0.630763 0.332984 0.651610 0.242589
H19   H     H_    0.745480 0.422094 0.678468 0.232773
C44   C     C_3   0.422546 0.306733 0.291359 -0.821661
H20   H     H_    0.461879 0.239239 0.263933 0.264363
H21   H     H_    0.446310 0.307471 0.345892 0.231114
H22   H     H_    0.330952 0.291996 0.292102 0.234020
C45   C     C_2   0.639777 0.163774 0.558225 0.367291
H23   H     H_    0.625744 0.135245 0.610724 0.040765
O11   O     O_2   0.722037 0.222642 0.543301 -0.499458
C46   C     C_2   0.348086 0.803159 0.430303 0.522052
H24   H     H_    0.350753 0.735159 0.394264 0.083141
O12   O     O_2   0.258897 0.825146 0.458696 -0.621943
C47   C     C_2   0.253397 0.159340 0.508135 0.500198
H25   H     H_    0.179119 0.124043 0.485757 0.090646
O13   O     O_2   0.241954 0.216477 0.560456 -0.502820
C48   C     C_2   0.754692 0.807633 0.463586 0.506382
H26   H     H_    0.816513 0.828066 0.500904 0.057647
O14   O     O_2   0.773947 0.742065 0.416934 -0.571208
C49   C     C_2   0.771306 0.032240 0.458060 0.518875
H27   H     H_    0.843666 0.005659 0.479823 0.020871
O15   O     O_2   0.783398 0.109199 0.421749 -0.465591
C50   C     C_2   0.299857 0.012420 0.382688 0.481914
H28   H     H_    0.221619 0.047827 0.382252 0.070173
O16   O     O_2   0.329833 0.958708 0.331607 -0.531898
C51   C     C_2   0.188309 0.365592 0.429475 0.383200
H29   H     H_    0.273513 0.370446 0.410403 0.130812
O17   O     O_2   0.132996 0.283635 0.416318 -0.617279
C52   C     C_2   0.809507 0.594449 0.595175 0.442491
H30   H     H_    0.835844 0.582728 0.646751 0.027232
O18   O     O_2   0.747562 0.663187 0.588379 -0.558941
C53   C     C_2   0.225486 0.682719 0.592226 0.460890
H31   H     H_    0.195929 0.761111 0.593739 0.076704
O19   O     O_2   0.305344 0.669436 0.624433 -0.566758
C54   C     C_2   0.777541 0.376420 0.374412 0.559052
H32   H     H_    0.804315 0.395584 0.321022 -0.000279
O20   O     O_2   0.701381 0.309227 0.384981 -0.485954

loop_
_geom_bond_atom_site_label_1
_geom_bond_atom_site_label_2
_ccdc_geom_bond_type
C37   H3    S    
C10   C45   S    
C27   C29   A    
C42   H14   S    
C36   N4    A    
C19   C20   A    
C54   O20   D    
C44   H20   S    
N1    N3    A    
C43   H17   S    
C2    O2    A    
C32   C44   S    
C6    C11   A    
O6    Zn2   S    
C24   C26   A    
C15   N6    A    
C53   O19   D    
C9    C46   S    
C14   H2    S    
C52   H30   S    
C38   O10   D    
C49   H27   S    
C41   H12   S    
C39   H6    S    
C49   O15   D    
N5    Zn1   S    
C40   H9    S    
C28   C35   S    
C23   C33   A    
C31   C33   A    
C13   H1    S    
C22   O6    A    
N2    N4    A    
O1    Zn1   S    
C42   H15   S    
C39   H5    S    
C4    C7    A    
C15   C54   S    
C21   O5    A    
C54   H32   S    
C44   H21   S    
C16   C53   S    
C31   C43   S    
C29   C41   S    
C43   H18   S    
O4    Zn1   S    
C22   C34   S    
C45   O11   D    
C5    C12   A    
C3    C8    A    
C47   H25   S    
C5    C7    A    
C30   C42   S    
C1    O3    A    
C6    C8    A    
C2    O4    A    
C38   H4    S    
C45   H23   S    
C24   C34   A    
C6    C50   S    
C41   H13   S    
C47   O13   D    
C40   H10   S    
O2    Zn2   S    
C50   O16   D    
C48   H26   S    
C51   O17   D    
C8    C47   S    
C25   C39   S    
C48   O14   D    
C9    C11   A    
C16   N5    A    
C10   C12   A    
O3    Zn2   S    
C46   O12   D    
C13   C15   A    
C42   H16   S    
C14   C16   A    
C21   O7    A    
C44   H22   S    
O8    Zn1   S    
C22   O8    A    
C43   H19   S    
C7    C48   S    
C13   C20   A    
C26   C40   S    
C14   C19   A    
C36   N1    A    
C5    C49   S    
C11   C12   A    
C23   C37   S    
C27   C36   S    
C25   C27   A    
C26   C28   A    
O7    Zn2   S    
C1    C4    S    
C37   O9    D    
C2    C3    S    
C17   N6    A    
C29   C31   A    
C3    C10   A    
C17   C52   S    
C39   H7    S    
C30   C32   A    
C1    O1    A    
C52   O18   D    
O5    Zn1   S    
C28   C30   A    
C50   H28   S    
C17   C19   A    
C35   N2    A    
C18   C20   A    
C18   C51   S    
C23   C25   A    
C41   H11   S    
C35   N3    A    
N6    Zn2   S    
C21   C33   S    
C46   H24   S    
C24   C38   S    
C40   H8    S    
C53   H31   S    
C51   H29   S    
C4    C9    A    
C18   N5    A    
C32   C34   A    
