data_mof_unit_26872.cif
_audit_creation_date              2012-12-11T16:44:16-0500
_audit_creation_method            fapswitch 2.2
_symmetry_space_group_name_H-M    P1
_symmetry_Int_Tables_number       1
_space_group_crystal_system       triclinic
_cell_length_a                    27.216221
_cell_length_b                    7.198545
_cell_length_c                    22.777964
_cell_angle_alpha                 90.001083
_cell_angle_beta                  101.361683
_cell_angle_gamma                 89.996839
_cell_volume                      4375.14188742

loop_
_atom_site_label
_atom_site_type_symbol
_atom_type_description
_atom_site_fract_x
_atom_site_fract_y
_atom_site_fract_z
_atom_type_partial_charge
O1    O     O_R   0.707300 0.594030 0.176840 -0.536593
O2    O     O_R   0.292700 0.405970 0.823160 -0.536594
O3    O     O_R   0.792700 0.094030 0.323160 -0.536606
O4    O     O_R   0.207300 0.905970 0.676840 -0.536606
O5    O     O_R   0.697330 0.262360 0.295660 -0.515156
O6    O     O_R   0.302670 0.737640 0.704340 -0.515156
O7    O     O_R   0.802670 0.762360 0.204340 -0.515110
O8    O     O_R   0.197330 0.237640 0.795660 -0.515110
C1    C     C_R   0.684163 0.432146 0.310974 0.710407
C2    C     C_R   0.315837 0.567854 0.689026 0.710408
C3    C     C_R   0.815839 0.932135 0.189026 0.710402
C4    C     C_R   0.184161 0.067865 0.810974 0.710402
O9    O     O_R   0.701410 0.264250 0.175600 -0.532707
O10   O     O_R   0.298590 0.735750 0.824400 -0.532707
O11   O     O_R   0.798590 0.764250 0.324400 -0.532746
O12   O     O_R   0.201410 0.235750 0.675600 -0.532746
O13   O     O_R   0.796800 0.094950 0.202240 -0.537864
O14   O     O_R   0.203200 0.905050 0.797760 -0.537864
O15   O     O_R   0.703200 0.594950 0.297760 -0.537861
O16   O     O_R   0.296800 0.405050 0.702240 -0.537861
C5    C     C_R   0.689739 0.432532 0.153487 0.686886
C6    C     C_R   0.310261 0.567468 0.846513 0.686886
C7    C     C_R   0.810261 0.932528 0.346513 0.686770
C8    C     C_R   0.189739 0.067472 0.653487 0.686770
O17   O     O_3   0.781290 0.427390 0.258880 -0.360662
O18   O     O_3   0.218710 0.572610 0.741120 -0.360662
O19   O     O_3   0.718710 0.927390 0.241120 -0.360684
O20   O     O_3   0.281290 0.072610 0.758880 -0.360684
V1    V     V_3+5 0.744190 0.152150 0.248350 1.516751
V2    V     V_3+5 0.255810 0.847850 0.751650 1.516751
V3    V     V_3+5 0.755810 0.652150 0.251650 1.516750
V4    V     V_3+5 0.244190 0.347850 0.748350 1.516750
C9    C     C_R   0.154720 0.062378 0.595173 -0.041088
C10   C     C_R   0.845280 0.937622 0.404827 -0.041088
C11   C     C_R   0.345278 0.562355 0.904826 -0.041100
C12   C     C_R   0.654722 0.437645 0.095174 -0.041100
C13   C     C_R   0.139030 0.122664 0.488736 -0.142514
C14   C     C_R   0.860970 0.877336 0.511264 -0.142514
C15   C     C_R   0.360954 0.622421 0.011275 -0.142486
C16   C     C_R   0.639046 0.377579 0.988724 -0.142486
C17   C     C_R   0.171934 0.114546 0.543794 -0.165944
C18   C     C_R   0.828066 0.885454 0.456205 -0.165943
C19   C     C_R   0.328054 0.614368 0.956214 -0.165966
C20   C     C_R   0.671946 0.385632 0.043786 -0.165965
C21   C     C_R   0.103746 0.018983 0.591179 -0.187692
C22   C     C_R   0.896254 0.981017 0.408821 -0.187693
C23   C     C_R   0.396259 0.519047 0.908816 -0.187585
C24   C     C_R   0.603741 0.480953 0.091184 -0.187586
C25   C     C_R   0.068992 0.029401 0.535479 0.083730
C26   C     C_R   0.931008 0.970599 0.464521 0.083730
C27   C     C_R   0.431007 0.529388 0.964520 0.083726
C28   C     C_R   0.568992 0.470612 0.035480 0.083726
C29   C     C_R   0.087976 0.081902 0.484145 0.122620
C30   C     C_R   0.912024 0.918098 0.515855 0.122620
C31   C     C_R   0.412013 0.581736 0.015863 0.122594
C32   C     C_R   0.587987 0.418264 0.984137 0.122594
C33   C     C_R   0.016257 0.992101 0.528889 0.050168
C34   C     C_R   0.983743 0.007899 0.471111 0.050168
C35   C     C_R   0.483746 0.492147 0.971108 0.050152
C36   C     C_R   0.516254 0.507853 0.028892 0.050152
C37   C     C_R   0.005080 0.059864 0.421886 -0.157203
C38   C     C_R   0.994920 0.940135 0.578114 -0.157203
C39   C     C_R   0.494908 0.559673 0.078125 -0.157109
C40   C     C_R   0.505092 0.440327 0.921875 -0.157109
C41   C     C_R   0.055981 0.095624 0.428428 -0.169630
C42   C     C_R   0.944019 0.904376 0.571572 -0.169630
C43   C     C_R   0.444003 0.595374 0.071585 -0.169599
C44   C     C_R   0.555997 0.404626 0.928415 -0.169599
H1    H     H_    0.070470 0.135683 0.389201 0.152332
H2    H     H_    0.929530 0.864317 0.610799 0.152332
H3    H     H_    0.429506 0.635318 0.110820 0.152367
H4    H     H_    0.570493 0.364682 0.889180 0.152367
H5    H     H_    0.907495 0.017901 0.367573 0.115440
H6    H     H_    0.092505 0.982099 0.632426 0.115440
H7    H     H_    0.592494 0.517725 0.132438 0.115498
H8    H     H_    0.407506 0.482275 0.867562 0.115498
H9    H     H_    0.789006 0.849795 0.453568 0.108500
H10   H     H_    0.210994 0.150205 0.546432 0.108500
H11   H     H_    0.711011 0.350050 0.046420 0.108537
H12   H     H_    0.288988 0.649950 0.953580 0.108537
H13   H     H_    0.153484 0.163491 0.449577 0.130615
H14   H     H_    0.846516 0.836509 0.550423 0.130615
H15   H     H_    0.346492 0.663129 0.050441 0.130630
H16   H     H_    0.653507 0.336871 0.949559 0.130630
H17   H     H_    0.983381 0.074872 0.377234 0.148594
H18   H     H_    0.016619 0.925128 0.622766 0.148594
H19   H     H_    0.516601 0.574605 0.122782 0.148649
H20   H     H_    0.483398 0.425395 0.877217 0.148649
C45   C     C_R   0.855191 0.094630 0.112834 -0.166320
C46   C     C_R   0.144809 0.905370 0.887166 -0.166320
C47   C     C_R   0.644912 0.594349 0.387313 -0.166550
C48   C     C_R   0.355088 0.405651 0.612687 -0.166550
H21   H     H_    0.827102 0.202616 0.110003 0.143226
H22   H     H_    0.172898 0.797384 0.889996 0.143226
H23   H     H_    0.673077 0.702085 0.390249 0.142851
H24   H     H_    0.326923 0.297915 0.609751 0.142851
C49   C     C_R   0.890857 0.109442 0.076434 -0.107995
C50   C     C_R   0.109143 0.890558 0.923566 -0.107994
C51   C     C_R   0.609251 0.609137 0.423722 -0.108094
C52   C     C_R   0.390748 0.390863 0.576278 -0.108094
H25   H     H_    0.889737 0.228290 0.047027 0.134342
H26   H     H_    0.110263 0.771710 0.952972 0.134342
H27   H     H_    0.610448 0.727732 0.453246 0.134298
H28   H     H_    0.389552 0.272268 0.546754 0.134298
C53   C     C_R   0.927844 0.973052 0.078134 0.082061
C54   C     C_R   0.072156 0.026948 0.921866 0.082061
C55   C     C_R   0.572168 0.473056 0.421877 0.082046
C56   C     C_R   0.427832 0.526944 0.578123 0.082047
C57   C     C_R   0.928156 0.820244 0.116404 -0.093838
C58   C     C_R   0.071844 0.179756 0.883596 -0.093838
C59   C     C_R   0.571756 0.320569 0.383453 -0.093731
C60   C     C_R   0.428244 0.679431 0.616547 -0.093731
H29   H     H_    0.956255 0.712922 0.117672 0.173668
H30   H     H_    0.043745 0.287078 0.882328 0.173668
H31   H     H_    0.543577 0.213497 0.382064 0.173718
H32   H     H_    0.456423 0.786503 0.617936 0.173718
C61   C     C_R   0.892724 0.804004 0.153315 0.249431
C62   C     C_R   0.107276 0.195996 0.846685 0.249432
C63   C     C_R   0.607190 0.304346 0.346542 0.249423
C64   C     C_R   0.392810 0.695654 0.653458 0.249423
C65   C     C_R   0.855172 0.942083 0.151668 -0.110380
C66   C     C_R   0.144828 0.057917 0.848332 -0.110380
C67   C     C_R   0.644835 0.442114 0.348334 -0.110222
C68   C     C_R   0.355165 0.557886 0.651666 -0.110222
C69   C     C_R   0.017345 0.989947 0.062230 0.306522
C70   C     C_R   0.982655 0.010053 0.937770 0.306522
C71   C     C_R   0.482670 0.490782 0.437754 0.306529
C72   C     C_R   0.517330 0.509218 0.562245 0.306529
C73   C     C_R   0.051397 0.000963 0.023495 -0.221607
C74   C     C_R   0.948603 0.999037 0.976505 -0.221607
C75   C     C_R   0.448609 0.501800 0.476479 -0.221599
C76   C     C_R   0.551391 0.498200 0.523521 -0.221599
H33   H     H_    0.091204 0.004204 0.042196 0.167030
H34   H     H_    0.908796 0.995796 0.957804 0.167030
H35   H     H_    0.408809 0.505687 0.457762 0.167046
H36   H     H_    0.591191 0.494313 0.542238 0.167046
C77   C     C_R   0.034691 0.012003 0.961188 -0.028974
C78   C     C_R   0.965309 0.987997 0.038812 -0.028974
C79   C     C_R   0.465300 0.512005 0.538804 -0.029007
C80   C     C_R   0.534699 0.487995 0.461196 -0.029007
Br1   Br    Br    0.043915 0.989125 0.146796 -0.489494
Br2   Br    Br    0.956085 0.010875 0.853204 -0.489494
Br3   Br    Br    0.456137 0.491089 0.353179 -0.489503
Br4   Br    Br    0.543863 0.508911 0.646821 -0.489503
Br5   Br    Br    0.900332 0.594451 0.206684 -0.516686
Br6   Br    Br    0.099667 0.405549 0.793315 -0.516685
Br7   Br    Br    0.599466 0.095318 0.292958 -0.516407
Br8   Br    Br    0.400533 0.904682 0.707042 -0.516407

loop_
_geom_bond_atom_site_label_1
_geom_bond_atom_site_label_2
_ccdc_geom_bond_type
O17   V3    S    
C51   H27   S    
C70   C77   A    
O1    C5    A    
O19   V1    S    
C9    C21   A    
C16   H16   S    
O3    C7    A    
C10   C18   A    
O1    V3    S    
O15   V3    S    
C58   C62   A    
C57   C61   A    
C33   C38   A    
C5    C12   S    
C3    C65   S    
O7    C3    A    
C6    C11   S    
C38   H18   S    
C35   C40   A    
C26   C30   A    
C36   C39   A    
C40   C44   A    
O2    V4    S    
C61   Br5   S    
C72   C79   A    
C23   H8    S    
C14   C18   A    
C2    C68   S    
C48   C68   A    
C54   C58   A    
O4    C8    A    
C25   C29   A    
C76   H36   S    
C44   H4    S    
C70   C74   A    
C63   Br7   S    
C48   H24   S    
O13   V1    S    
C59   C63   A    
C62   C66   A    
C55   C80   S    
O3    V1    S    
C61   C65   A    
C28   C36   A    
C53   C78   S    
C64   C68   A    
C1    O15   A    
C52   H28   S    
C15   C31   A    
C76   C80   A    
C69   Br1   S    
C16   C32   A    
O2    C6    A    
C10   C22   A    
C11   C19   A    
C58   H30   S    
C16   C20   A    
C43   H3    S    
C57   H29   S    
C13   C29   A    
C34   C37   A    
O11   C7    A    
C11   C23   A    
C35   C36   A    
O12   C8    A    
C47   C67   A    
C14   H14   S    
C45   H21   S    
C46   C66   A    
C24   H7    S    
C13   H13   S    
C74   H34   S    
O10   V2    S    
C72   C76   A    
C73   C77   A    
C46   H22   S    
O5    V1    S    
C39   C43   A    
C52   C56   A    
O7    V3    S    
C38   C42   A    
C26   C34   A    
C62   Br6   S    
C2    O16   A    
C17   H10   S    
C60   C64   A    
O18   V4    S    
C54   C77   S    
C15   C19   A    
C19   H12   S    
C32   C44   A    
C47   H23   S    
C70   Br2   S    
C25   C33   A    
C56   C60   A    
C45   C49   A    
C21   H6    S    
O8    V4    S    
O5    C1    A    
C37   C41   A    
C31   C43   A    
C14   C30   A    
C21   C25   A    
O8    C4    A    
C7    C10   S    
C49   H25   S    
O9    C5    A    
C71   Br3   S    
C72   Br4   S    
C37   H17   S    
C73   H33   S    
O6    V2    S    
C64   Br8   S    
O14   V2    S    
C12   C20   A    
C27   C35   A    
C71   C80   A    
C74   C78   A    
C60   H32   S    
C29   C41   A    
C48   C52   A    
O16   V4    S    
O9    V1    S    
C53   C57   A    
C3    O13   A    
C39   H19   S    
C55   C59   A    
C20   H11   S    
O6    C2    A    
C56   C79   S    
C23   C27   A    
O11   V3    S    
C30   C42   A    
C63   C67   A    
C69   C78   A    
O12   V4    S    
C51   C55   A    
C22   C26   A    
C75   H35   S    
C8    C9    S    
C50   C54   A    
C9    C17   A    
O10   C6    A    
O20   V2    S    
C49   C53   A    
C50   H26   S    
C33   C34   A    
C42   H2    S    
C45   C65   A    
C41   H1    S    
C1    C67   S    
C46   C50   A    
C12   C24   A    
C27   C31   A    
C13   C17   A    
C71   C75   A    
C75   C79   A    
C15   H15   S    
C69   C73   A    
C24   C28   A    
C4    C66   S    
C18   H9    S    
C4    O14   A    
C59   H31   S    
C47   C51   A    
C40   H20   S    
C22   H5    S    
O4    V2    S    
C28   C32   A    
