data_mof_unit_12248.cif
_audit_creation_date              2012-12-11T15:36:54-0500
_audit_creation_method            fapswitch 2.2
_symmetry_space_group_name_H-M    P1
_symmetry_Int_Tables_number       1
_space_group_crystal_system       triclinic
_cell_length_a                    15.058955
_cell_length_b                    15.083833
_cell_length_c                    34.842281
_cell_angle_alpha                 91.299343
_cell_angle_beta                  91.715346
_cell_angle_gamma                 60.057601
_cell_volume                      6854.62287668

loop_
_atom_site_label
_atom_site_type_symbol
_atom_type_description
_atom_site_fract_x
_atom_site_fract_y
_atom_site_fract_z
_atom_type_partial_charge
C1    C     C_R   0.610939 0.302575 0.444035 0.548204
C2    C     C_R   0.736554 0.677961 0.181091 0.044231
C3    C     C_R   0.612233 0.149745 0.830829 0.029254
C4    C     C_R   0.679741 0.172306 0.851783 -0.118433
C5    C     C_R   0.709740 0.137342 0.889139 -0.124928
C6    C     C_R   0.588262 0.260428 0.774752 -0.120027
C7    C     C_R   0.592384 0.271835 0.735413 -0.116112
C8    C     C_R   0.604325 0.193690 0.709779 0.029226
C9    C     C_R   0.606763 0.106154 0.723865 -0.115619
C10   C     C_R   0.603472 0.094297 0.763332 -0.113902
C11   C     C_R   0.596855 0.170259 0.789182 0.027792
C12   C     C_R   0.555397 0.188123 0.641039 -0.105566
C13   C     C_R   0.823250 0.613966 0.159648 -0.141828
C14   C     C_R   0.554701 0.213776 0.602375 0.273988
C15   C     C_R   0.687368 0.256582 0.618480 -0.175704
C16   C     C_R   0.684340 0.234871 0.656826 -0.142204
C17   C     C_R   0.615998 0.203840 0.668555 -0.015111
C18   C     C_R   0.620189 0.250229 0.591147 0.037603
C19   C     C_R   0.044634 0.739539 0.048858 0.539219
C20   C     C_R   0.747029 0.746229 0.063914 0.541120
C21   C     C_R   0.751424 0.040125 0.050780 0.539942
C22   C     C_R   0.017139 0.722351 0.939807 0.544024
C23   C     C_R   0.717109 0.730052 0.954849 0.553690
C24   C     C_R   0.824600 0.631919 0.120610 -0.131078
C25   C     C_R   0.721313 0.024546 0.942143 0.541981
C26   C     C_R   0.760961 0.576198 0.239488 -0.168577
C27   C     C_R   0.753002 0.570124 0.278959 -0.135246
C28   C     C_R   0.723104 0.656823 0.302569 -0.019472
C29   C     C_R   0.706760 0.748217 0.286409 -0.089777
C30   C     C_R   0.716570 0.754271 0.246951 0.278521
C31   C     C_R   0.739185 0.668951 0.223088 0.023498
C32   C     C_R   0.607139 0.731925 0.358195 -0.116057
C33   C     C_R   0.593458 0.610007 0.449377 0.545598
C34   C     C_R   0.575240 0.720866 0.394058 -0.123883
C35   C     C_R   0.731031 0.557216 0.401460 -0.127100
C36   C     C_R   0.762711 0.568222 0.365607 -0.118617
C37   C     C_R   0.699379 0.653926 0.343121 0.035286
C38   C     C_R   0.635182 0.631606 0.415369 0.021500
C39   C     C_R   0.097337 0.731164 0.086140 0.020312
C40   C     C_R   0.140652 0.638610 0.106274 -0.127325
C41   C     C_R   0.158948 0.637100 0.145721 -0.121370
C42   C     C_R   0.135654 0.727683 0.165644 0.030013
C43   C     C_R   0.102771 0.818111 0.145108 -0.126474
C44   C     C_R   0.303541 0.591670 0.442475 0.540958
C45   C     C_R   0.083614 0.819925 0.105525 -0.128287
C46   C     C_R   0.191793 0.766769 0.228944 -0.125161
C47   C     C_R   0.200031 0.758384 0.268910 -0.127991
C48   C     C_R   0.152443 0.713030 0.288438 0.025942
C49   C     C_R   0.092490 0.680863 0.267336 -0.123281
C50   C     C_R   0.085679 0.687802 0.227449 -0.131875
C51   C     C_R   0.137255 0.728513 0.207932 0.023697
C52   C     C_R   0.192568 0.595245 0.343782 -0.117079
C53   C     C_R   0.228181 0.566035 0.381354 -0.126996
C54   C     C_R   0.221696 0.728113 0.392764 -0.123147
C55   C     C_R   0.605619 0.300382 0.553724 0.568640
C56   C     C_R   0.185429 0.757606 0.355207 -0.118834
C57   C     C_R   0.173842 0.690041 0.329925 0.036452
C58   C     C_R   0.246627 0.630649 0.405787 0.020918
C59   C     C_R   0.725585 0.097200 0.087402 0.022517
C60   C     C_R   0.801229 0.107368 0.108381 -0.127902
C61   C     C_R   0.787255 0.135759 0.147031 -0.126919
C62   C     C_R   0.697010 0.155697 0.165080 0.032722
C63   C     C_R   0.617659 0.154760 0.143273 -0.112801
C64   C     C_R   0.631951 0.125399 0.104714 -0.126031
C65   C     C_R   0.601182 0.241561 0.224322 -0.131805
C66   C     C_R   0.587440 0.606353 0.559127 0.541917
C67   C     C_R   0.592725 0.245681 0.264032 -0.165436
C68   C     C_R   0.672633 0.173062 0.287372 0.049722
C69   C     C_R   0.763059 0.095385 0.270570 0.290558
C70   C     C_R   0.770664 0.092803 0.230228 -0.110509
C71   C     C_R   0.690254 0.165466 0.207186 -0.008127
C72   C     C_R   0.743100 0.185688 0.351507 -0.082436
C73   C     C_R   0.728642 0.215431 0.389936 -0.132055
C74   C     C_R   0.556778 0.240186 0.385750 -0.130391
C75   C     C_R   0.571722 0.209386 0.347268 -0.126607
C76   C     C_R   0.663695 0.185500 0.329509 0.066019
C77   C     C_R   0.297895 0.589231 0.551663 0.539246
C78   C     C_R   0.633772 0.247382 0.406964 0.021121
C79   C     C_R   0.691570 0.688599 0.919910 0.023136
C80   C     C_R   0.768700 0.597904 0.903128 -0.179161
C81   C     C_R   0.757743 0.571562 0.865400 -0.145243
C82   C     C_R   0.669564 0.635372 0.843575 -0.014128
C83   C     C_R   0.588103 0.720124 0.861438 -0.099798
C84   C     C_R   0.597385 0.746026 0.899634 0.268494
C85   C     C_R   0.575340 0.641975 0.782199 -0.120051
C86   C     C_R   0.569732 0.641979 0.742177 -0.118238
C87   C     C_R   0.655684 0.620655 0.720654 0.026877
C88   C     C_R   0.738975 0.713899 0.102613 0.018953
C89   C     C_R   0.748353 0.595836 0.739748 -0.117501
C90   C     C_R   0.753805 0.596642 0.779794 -0.109947
C91   C     C_R   0.666880 0.621294 0.801440 0.032966
C92   C     C_R   0.721113 0.544437 0.656021 -0.123769
C93   C     C_R   0.706041 0.542418 0.616343 -0.129766
C94   C     C_R   0.548673 0.705515 0.620533 -0.124111
C95   C     C_R   0.563403 0.707034 0.660166 -0.122265
C96   C     C_R   0.647776 0.624858 0.678357 0.030675
C97   C     C_R   0.617585 0.621126 0.598414 0.022423
C98   C     C_R   0.066908 0.698026 0.902488 0.023350
C99   C     C_R   0.649866 0.773136 0.123733 -0.129103
C100  C     C_R   0.094102 0.765276 0.886274 -0.129058
C101  C     C_R   0.122869 0.753360 0.848105 -0.124390
C102  C     C_R   0.124334 0.674384 0.825594 0.031850
C103  C     C_R   0.103963 0.603042 0.842542 -0.121296
C104  C     C_R   0.075812 0.614547 0.880790 -0.126025
C105  C     C_R   0.197563 0.577447 0.764949 -0.119908
C106  C     C_R   0.206005 0.574355 0.725252 -0.117319
C107  C     C_R   0.155895 0.664994 0.703987 0.028734
C108  C     C_R   0.097676 0.758887 0.722882 -0.117777
C109  C     C_R   0.088662 0.761959 0.762596 -0.115134
C110  C     C_R   0.648788 0.755297 0.162677 -0.077019
C111  C     C_R   0.138592 0.671227 0.783921 0.028967
C112  C     C_R   0.201649 0.724348 0.645831 -0.121562
C113  C     C_R   0.235599 0.706511 0.608220 -0.127467
C114  C     C_R   0.197398 0.568337 0.602363 -0.132627
C115  C     C_R   0.163965 0.585910 0.639982 -0.124392
C116  C     C_R   0.170216 0.660966 0.662417 0.032308
C117  C     C_R   0.238403 0.625041 0.586883 0.023541
C118  C     C_R   0.672661 0.079358 0.906348 0.017864
C119  C     C_R   0.599235 0.063189 0.886555 -0.126700
C120  C     C_R   0.569575 0.097775 0.848938 -0.121920
Cr1   Cr    Cr6+3 0.426010 0.422500 0.497000 1.031670
Cr2   Cr    Cr6+3 0.651300 0.426310 0.501970 1.008268
Cr3   Cr    Cr6+3 0.422670 0.651170 0.501050 1.011546
Cr4   Cr    Cr6+3 0.905130 0.911420 0.992650 1.006621
Cr5   Cr    Cr6+3 0.911860 0.682710 0.002320 1.005895
Cr6   Cr    Cr6+3 0.682710 0.906840 0.004710 1.032773
H1    H     H_    0.582521 0.836390 0.110646 0.127646
H2    H     H_    0.501172 0.779541 0.404068 0.128391
H3    H     H_    0.891497 0.553734 0.173523 0.100219
H4    H     H_    0.779486 0.487978 0.417401 0.124630
H5    H     H_    0.152838 0.568824 0.092141 0.124329
H6    H     H_    0.049907 0.892534 0.090866 0.123555
H7    H     H_    0.169763 0.831892 0.345571 0.091951
H8    H     H_    0.247635 0.782980 0.284277 0.104619
H9    H     H_    0.231670 0.798828 0.214329 0.106432
H10   H     H_    0.186400 0.566109 0.161057 0.105945
H11   H     H_    0.052912 0.647943 0.281584 0.105810
H12   H     H_    0.894420 0.585035 0.105079 0.128726
H13   H     H_    0.041314 0.659876 0.211691 0.099658
H14   H     H_    0.185655 0.540806 0.324960 0.101408
H15   H     H_    0.246911 0.490360 0.390468 0.125318
H16   H     H_    0.084861 0.888681 0.160049 0.096917
H17   H     H_    0.234337 0.779975 0.411050 0.123149
H18   H     H_    0.874242 0.086055 0.095833 0.121996
H19   H     H_    0.572268 0.118524 0.089168 0.120700
H20   H     H_    0.509726 0.208900 0.330859 0.106712
H21   H     H_    0.524016 0.307054 0.276652 0.113934
H22   H     H_    0.538357 0.298167 0.206946 0.116427
H23   H     H_    0.834865 0.507865 0.354776 0.102402
H24   H     H_    0.848897 0.137255 0.163336 0.098620
H25   H     H_    0.837084 0.031860 0.216366 0.085422
H26   H     H_    0.814089 0.169330 0.338408 0.130641
H27   H     H_    0.789655 0.219833 0.405525 0.127302
H28   H     H_    0.547509 0.169614 0.156691 0.111487
H29   H     H_    0.482961 0.264118 0.398125 0.126548
H30   H     H_    0.840838 0.550663 0.918180 0.134049
H31   H     H_    0.506964 0.770861 0.676825 0.103568
H32   H     H_    0.764921 0.499057 0.290730 0.117658
H33   H     H_    0.498010 0.659076 0.727976 0.107259
H34   H     H_    0.507635 0.659723 0.798099 0.099242
H35   H     H_    0.820674 0.504158 0.852621 0.112716
H36   H     H_    0.815484 0.579336 0.723692 0.104761
H37   H     H_    0.824946 0.582210 0.793754 0.105790
H38   H     H_    0.786927 0.480355 0.669487 0.100479
H39   H     H_    0.760459 0.476243 0.600121 0.121182
H40   H     H_    0.519403 0.770866 0.845133 0.114447
H41   H     H_    0.479863 0.767461 0.607650 0.127711
H42   H     H_    0.779605 0.509839 0.221532 0.115814
H43   H     H_    0.054965 0.561765 0.892583 0.126472
H44   H     H_    0.138025 0.537578 0.652203 0.102023
H45   H     H_    0.253345 0.501332 0.711199 0.105731
H46   H     H_    0.237628 0.506718 0.780842 0.104586
H47   H     H_    0.140537 0.807916 0.835801 0.100677
H48   H     H_    0.058528 0.829486 0.706869 0.106258
H49   H     H_    0.041047 0.835033 0.776544 0.107332
H50   H     H_    0.207025 0.782655 0.662779 0.102001
H51   H     H_    0.266373 0.751721 0.596927 0.125781
H52   H     H_    0.103951 0.541843 0.825681 0.101378
H53   H     H_    0.580615 0.804202 0.178809 0.136766
H54   H     H_    0.196976 0.506258 0.586279 0.114759
H55   H     H_    0.569647 0.018434 0.899188 0.160370
H56   H     H_    0.733359 0.245319 0.677627 0.119402
H57   H     H_    0.587823 0.341154 0.724987 0.111749
H58   H     H_    0.581420 0.320827 0.794000 0.105219
H59   H     H_    0.615710 0.045162 0.704504 0.108828
H60   H     H_    0.611584 0.023421 0.773690 0.109107
H61   H     H_    0.505291 0.160549 0.649940 0.104615
H62   H     H_    0.684937 0.815389 0.304287 0.131698
H63   H     H_    0.714737 0.211237 0.838498 0.105176
H64   H     H_    0.556583 0.798493 0.341258 0.106743
O1    O     O_R   0.324990 0.503440 0.453910 -0.521243
O2    O     O_R   0.639980 0.519500 0.542640 -0.504674
O3    O     O_R   0.500750 0.673190 0.545480 -0.518691
O4    O     O_R   0.336260 0.640450 0.538210 -0.503661
O5    O     O_3   0.499990 0.499990 0.500010 -0.242482
O6    O     O_R   0.834210 0.019400 0.034570 -0.523614
O7    O     O_R   0.002210 0.824620 0.031030 -0.504097
O8    O     O_R   0.024400 0.669340 0.039790 -0.518799
O9    O     O_R   0.830490 0.694950 0.045870 -0.503654
O10   O     O_R   0.675430 0.831160 0.051290 -0.520890
O11   O     O_R   0.698870 0.998880 0.039560 -0.501272
O12   O     O_R   0.522030 0.339050 0.458320 -0.498319
O13   O     O_R   0.811290 0.006780 0.950620 -0.517427
O14   O     O_R   0.980960 0.812920 0.953200 -0.500544
O15   O     O_R   0.001480 0.656720 0.955830 -0.520248
O16   O     O_R   0.809240 0.683250 0.968050 -0.515765
O17   O     O_R   0.652500 0.818540 0.967340 -0.458587
O18   O     O_R   0.677620 0.987170 0.961730 -0.496966
O19   O     O_3   0.833240 0.833660 0.999890 -0.239154
O20   O     O_R   0.676180 0.324490 0.458320 -0.520477
O21   O     O_R   0.643570 0.521510 0.464260 -0.502903
O22   O     O_R   0.504630 0.675350 0.460920 -0.516673
O23   O     O_R   0.339850 0.642450 0.459830 -0.501448
O24   O     O_R   0.321120 0.501280 0.538470 -0.526891
O25   O     O_R   0.518440 0.337050 0.536710 -0.454478
O26   O     O_R   0.672300 0.322330 0.542880 -0.532302
O27   O     O_3   0.836308 0.018788 0.294171 -0.575457
C121  C     C_3   0.937320 0.983647 0.282148 -0.144724
H65   H     H_    0.949035 0.047245 0.272921 0.096391
H66   H     H_    0.958070 0.924995 0.259074 0.130239
H67   H     H_    0.990559 0.946005 0.306809 0.148939
O28   O     O_3   0.518994 0.835160 0.914991 -0.555721
C122  C     C_3   0.444327 0.814061 0.928588 -0.120149
H68   H     H_    0.477136 0.753832 0.951013 0.115802
H69   H     H_    0.408679 0.791481 0.904713 0.101581
H70   H     H_    0.382669 0.884658 0.941990 0.139396
H71   H     H_    0.088973 0.829608 0.902583 0.119335
H72   H     H_    0.766060 0.151278 0.903858 0.125165
H73   H     H_    0.516513 0.080441 0.833495 0.109872
O29   O     O_3   0.493133 0.200789 0.575051 -0.554322
C123  C     C_3   0.388943 0.261601 0.584628 -0.100544
H74   H     H_    0.369678 0.339845 0.594561 0.123528
H75   H     H_    0.367987 0.223392 0.606585 0.096174
H76   H     H_    0.341207 0.270637 0.558537 0.140021
H77   H     H_    0.737485 0.285342 0.610802 0.135378
O30   O     O_3   0.696771 0.846167 0.231602 -0.573640
C124  C     C_3   0.790971 0.842696 0.226520 -0.107475
H78   H     H_    0.845304 0.774777 0.209410 0.109414
H79   H     H_    0.826720 0.844448 0.254727 0.151436
H80   H     H_    0.775948 0.911008 0.210151 0.153788

loop_
_geom_bond_atom_site_label_1
_geom_bond_atom_site_label_2
_ccdc_geom_bond_type
C15   C18   A    
C113  H51   S    
C101  C102  A    
C22   C98   S    
C105  H46   S    
C49   H11   S    
C64   H19   S    
C33   O21   A    
C106  H45   S    
C14   C18   A    
C101  H47   S    
C95   C96   A    
C112  C116  A    
Cr2   O5    S    
C72   C76   A    
C25   C118  S    
C56   H7    S    
C85   C91   A    
C122  H70   S    
C7    C8    A    
C85   C86   A    
C56   C57   A    
C27   H32   S    
C26   H42   S    
C59   C64   A    
C62   C63   A    
Cr4   O14   S    
C69   O27   S    
C122  H69   S    
C28   C37   S    
C66   C97   S    
C92   C93   A    
C36   C37   A    
Cr1   O12   S    
C21   C59   S    
C77   C117  S    
C69   C70   A    
C109  C111  A    
C44   O1    A    
C55   O25   A    
C79   C84   A    
C33   O22   A    
C16   H56   S    
C36   H23   S    
C26   C31   A    
C106  C107  A    
C15   C16   A    
Cr5   O16   S    
C92   C96   A    
C108  C109  A    
C41   C42   A    
C46   C51   A    
C2    C13   A    
C118  C119  A    
C20   O10   A    
C10   H60   S    
C46   H9    S    
C2    C110  A    
C35   C36   A    
C44   C58   S    
C8    C9    A    
C72   H26   S    
C66   O2    A    
C12   C17   A    
C74   H29   S    
C48   C49   A    
C107  C108  A    
Cr2   O20   S    
Cr3   O4    S    
C70   C71   A    
C85   H34   S    
C25   O18   A    
C61   H24   S    
C74   C78   A    
C53   C58   A    
C42   C51   S    
C39   C45   A    
C92   H38   S    
C54   H17   S    
C105  C111  A    
C93   H39   S    
C59   C60   A    
Cr6   O11   S    
C95   H31   S    
C124  H78   S    
C87   C96   S    
C1    C78   S    
Cr3   O5    S    
C102  C111  S    
C102  C103  A    
C115  H44   S    
C1    O12   A    
C9    C10   A    
C112  C113  A    
C77   O24   A    
C80   H30   S    
C75   H20   S    
C83   H40   S    
C54   C56   A    
C19   O7    A    
C74   C75   A    
Cr4   O13   S    
C67   C68   A    
C114  C117  A    
C47   C48   A    
C21   O11   A    
C48   C57   S    
C35   C38   A    
C122  H68   S    
O30   C124  S    
C3    C120  A    
Cr6   O18   S    
C6    C11   A    
Cr5   O19   S    
C50   H13   S    
C68   C69   A    
C99   H1    S    
C94   C97   A    
C65   C67   A    
O27   C121  S    
C65   C71   A    
C99   C110  A    
Cr4   O7    S    
C119  H55   S    
C81   C82   A    
C82   C91   S    
C44   O23   A    
C22   O15   A    
C6    H58   S    
C2    C31   S    
C32   C34   A    
C120  H73   S    
C100  H71   S    
C75   C76   A    
C20   O9    A    
C29   C30   A    
C24   C88   A    
C121  H66   S    
C83   C84   A    
Cr6   O17   S    
C73   C78   A    
Cr3   O22   S    
Cr4   O6    S    
C54   C58   A    
C50   C51   A    
C26   C27   A    
C32   H64   S    
C94   C95   A    
C123  H75   S    
C32   C37   A    
C65   H22   S    
Cr2   O2    S    
C43   C45   A    
C35   H4    S    
Cr5   O9    S    
C19   C39   S    
C18   C55   S    
C55   O26   A    
C113  C117  A    
C40   C41   A    
C112  H50   S    
C40   H5    S    
C12   C14   A    
Cr5   O8    S    
C49   C50   A    
C114  H54   S    
C124  H79   S    
C23   O16   A    
C67   H21   S    
C42   C43   A    
C90   C91   A    
C3    C4    A    
C93   C97   A    
C89   H36   S    
C123  H74   S    
C66   O3    A    
C52   C53   A    
C86   C87   A    
C121  H67   S    
C73   H27   S    
C86   H33   S    
Cr6   O10   S    
C30   O30   S    
C46   C47   A    
C28   C29   A    
C19   O8    A    
C23   O17   A    
C1    O20   A    
C34   C38   A    
C98   C100  A    
C81   H35   S    
C4    H63   S    
Cr3   O3    S    
C70   H25   S    
C33   C38   S    
C63   H28   S    
C80   C81   A    
C25   O13   A    
Cr6   O19   S    
C94   H41   S    
Cr1   O1    S    
C52   C57   A    
C119  C120  A    
C109  H49   S    
C114  C115  A    
C6    C7    A    
C63   C64   A    
C22   O14   A    
C68   C76   S    
C105  C106  A    
C5    C118  A    
C9    H59   S    
C8    C17   S    
C5    H72   S    
C7    H57   S    
C90   H37   S    
C103  H52   S    
C24   H12   S    
Cr1   O24   S    
C87   C89   A    
O29   C123  S    
C47   H8    S    
C77   O4    A    
C84   O28   S    
C60   H18   S    
C12   H61   S    
C30   C31   A    
C121  H65   S    
C16   C17   A    
C110  H53   S    
C72   C73   A    
C98   C104  A    
C20   C88   S    
Cr5   O15   S    
C100  C101  A    
C52   H14   S    
Cr2   O26   S    
C62   C71   S    
C123  H76   S    
C53   H15   S    
C21   O6    A    
C108  H48   S    
C61   C62   A    
Cr3   O23   S    
C107  C116  S    
C14   O29   S    
C88   C99   A    
C3    C11   S    
C10   C11   A    
C79   C80   A    
C39   C40   A    
C4    C5    A    
C13   C24   A    
C45   H6    S    
C34   H2    S    
C82   C83   A    
Cr4   O19   S    
C124  H80   S    
C15   H77   S    
C103  C104  A    
C29   H62   S    
C13   H3    S    
Cr2   O21   S    
C60   C61   A    
C43   H16   S    
C23   C79   S    
C89   C90   A    
Cr1   O25   S    
O28   C122  S    
Cr1   O5    S    
C41   H10   S    
C115  C116  A    
C104  H43   S    
C27   C28   A    
