data_mof_unit_14326.cif
_audit_creation_date              2012-12-10T17:44:37-0500
_audit_creation_method            fapswitch 2.2
_symmetry_space_group_name_H-M    P1
_symmetry_Int_Tables_number       1
_space_group_crystal_system       triclinic
_cell_length_a                    9.993223
_cell_length_b                    10.802472
_cell_length_c                    15.544737
_cell_angle_alpha                 91.767199
_cell_angle_beta                  67.80212
_cell_angle_gamma                 89.496248
_cell_volume                      1552.58846656

loop_
_atom_site_label
_atom_site_type_symbol
_atom_type_description
_atom_site_fract_x
_atom_site_fract_y
_atom_site_fract_z
_atom_type_partial_charge
C1    C     C_R   0.505249 0.738104 0.488850 0.914667
C2    C     C_R   0.740242 0.509211 0.026758 0.137477
C3    C     C_R   0.593314 0.531439 0.082772 0.096876
C4    C     C_R   0.409165 0.501148 0.675437 0.916719
C5    C     C_R   0.842098 0.504717 0.068440 -0.182414
C6    C     C_R   0.797715 0.517343 0.165145 0.181650
C7    C     C_R   0.548668 0.523284 0.178912 -0.235954
C8    C     C_R   0.274933 0.884875 0.447336 0.209285
C9    C     C_R   0.158800 0.963829 0.457123 -0.132699
C10   C     C_R   0.187404 0.085535 0.431756 -0.171198
C11   C     C_R   0.325935 0.128359 0.412288 0.180042
C12   C     C_R   0.426170 0.543775 0.907122 0.008713
C13   C     C_R   0.415698 0.064767 0.447687 0.017767
C14   C     C_R   0.401387 0.935973 0.454725 0.005827
C15   C     C_R   0.516261 0.867806 0.464941 -0.187371
C16   C     C_R   0.504145 0.259248 0.495152 0.940400
C17   C     C_R   0.642018 0.929359 0.459675 0.145802
C18   C     C_R   0.633018 0.054828 0.482671 0.139051
C19   C     C_R   0.518261 0.125285 0.475504 -0.196558
C20   C     C_R   0.791920 0.670422 0.616826 -0.165337
C21   C     C_R   0.831393 0.760481 0.668115 -0.201785
C22   C     C_R   0.971050 0.761376 0.666310 0.177241
C23   C     C_R   0.302582 0.621194 0.953951 0.063162
C24   C     C_R   0.070423 0.669369 0.615866 -0.210583
C25   C     C_R   0.037479 0.582588 0.557914 0.134124
C26   C     C_R   0.893456 0.582889 0.558001 0.151083
C27   C     C_R   0.964617 0.422144 0.441679 0.293159
C28   C     C_R   0.591440 0.504645 0.323937 0.915771
C29   C     C_R   0.105492 0.421630 0.444651 -0.088031
C30   C     C_R   0.354069 0.522611 0.775776 -0.135764
C31   C     C_R   0.648860 0.514226 0.221628 -0.094077
C32   C     C_R   0.208846 0.652627 0.908885 0.161419
C33   C     C_R   0.238342 0.606248 0.818751 -0.271799
C34   C     C_R   0.532962 0.531731 0.945566 0.093509
C35   C     C_R   0.438575 0.482015 0.823711 0.089057
C36   C     C_3   0.044921 0.298359 0.290909 -0.723134
C37   C     C_R   0.494472 0.559677 0.041022 0.071266
C38   C     C_R   0.365183 0.626933 0.089575 -0.185574
C39   C     C_R   0.276555 0.664915 0.044462 -0.130029
C40   C     C_R   0.679942 0.506524 0.890085 -0.160381
C41   C     C_R   0.783159 0.498965 0.930156 -0.166866
H1    H     H_    0.185713 0.725804 0.082367 0.212082
H2    H     H_    0.896023 0.484511 0.885743 0.163618
H3    H     H_    0.173709 0.638641 0.781301 0.185751
H4    H     H_    0.337805 0.660696 0.160080 0.194704
H5    H     H_    0.717456 0.501335 0.815025 0.175261
H6    H     H_    0.832662 0.338892 0.379360 0.297563
H7    H     H_    0.998211 0.296789 0.236443 0.261297
H8    H     H_    0.084135 0.202825 0.292289 0.257920
H9    H     H_    0.136930 0.362667 0.269412 0.260129
H10   H     H_    0.956456 0.498737 0.025725 0.170354
H11   H     H_    0.057344 0.926074 0.461860 0.209941
H12   H     H_    0.108935 0.138997 0.416170 0.184230
H13   H     H_    0.681916 0.674395 0.623675 0.214143
H14   H     H_    0.752938 0.830385 0.708996 0.197014
H15   H     H_    0.434352 0.521460 0.220567 0.196268
H16   H     H_    0.172904 0.669303 0.622243 0.210613
H17   H     H_    0.186238 0.356950 0.401718 0.171454
I1    I     I_    0.850867 0.845150 0.390576 -0.269353
I2    I     I_    0.282628 0.739696 0.351304 -0.337476
I3    I     I_    0.429136 0.219191 0.285818 -0.377180
I4    I     I_    0.780200 0.118881 0.543908 -0.304306
I5    I     I_    0.035264 0.907091 0.734434 -0.288701
I6    I     I_    0.960158 0.565516 0.215154 -0.352719
I7    I     I_    0.030766 0.779506 0.967610 -0.294243
I8    I     I_    0.549330 0.305730 0.781922 -0.263026
N1    N     N_R   0.856800 0.501200 0.500850 -0.136560
N2    N     N_R   0.142390 0.501280 0.500880 -0.121137
N3    N     N_2   0.934007 0.335122 0.380470 -0.296991
O1    O     O_R   0.385310 0.683220 0.500000 -0.628347
O2    O     O_R   0.614640 0.683250 0.500010 -0.612182
O3    O     O_R   0.319840 0.499980 0.632240 -0.628750
O4    O     O_R   0.549160 0.500000 0.632250 -0.614989
O5    O     O_R   0.385360 0.316750 0.499990 -0.601561
O6    O     O_R   0.614690 0.316780 0.500000 -0.605269
O7    O     O_R   0.450840 0.500000 0.367750 -0.592959
O8    O     O_R   0.680160 0.500020 0.367760 -0.607989
Zn1   Zn    Zn3+2 0.346880 0.499980 0.499990 0.973055
Zn2   Zn    Zn3+2 0.653120 0.500020 0.500010 0.993831

loop_
_geom_bond_atom_site_label_1
_geom_bond_atom_site_label_2
_ccdc_geom_bond_type
C8    C9    A    
O1    Zn1   S    
C34   C37   A    
O2    Zn2   S    
C40   H5    S    
C25   N2    A    
C12   C23   A    
C1    O2    A    
C30   C35   A    
C16   O5    A    
C26   N1    A    
O7    Zn1   S    
C3    C7    A    
C5    C6    A    
C27   C29   A    
C2    C41   A    
C16   O6    A    
C18   C19   A    
C6    I6    S    
C10   H12   S    
H6    N3    S    
C38   H4    S    
O3    Zn1   S    
C22   I5    S    
C24   H16   S    
C1    C15   S    
C9    C10   A    
C27   N3    S    
C6    C31   A    
C13   C14   A    
C41   H2    S    
C9    H11   S    
C7    H15   S    
C39   H1    S    
O8    Zn2   S    
N2    Zn1   S    
C7    C31   A    
C13   C19   A    
N1    Zn2   S    
C24   C25   A    
C20   H13   S    
C21   H14   S    
C18   I4    S    
C35   I8    S    
C25   C26   A    
C37   C38   A    
C29   N2    A    
C17   C18   A    
O4    Zn2   S    
C29   H17   S    
C12   C35   A    
C28   O8    A    
C4    O4    A    
C17   I1    S    
C34   C40   A    
C40   C41   A    
C22   C24   A    
C2    C5    A    
C12   C34   A    
C28   O7    A    
C4    O3    A    
C36   H9    S    
C36   N3    S    
C15   C17   A    
C8    C14   A    
C30   C33   A    
C33   H3    S    
C28   C31   S    
C23   C32   A    
C11   I3    S    
C1    O1    A    
C32   C33   A    
C2    C3    A    
C8    I2    S    
C11   C13   A    
C38   C39   A    
C20   C26   A    
C16   C19   S    
C23   C39   A    
C36   H7    S    
C27   N1    A    
C10   C11   A    
C20   C21   A    
C3    C37   A    
O5    Zn1   S    
C14   C15   A    
C5    H10   S    
C21   C22   A    
O6    Zn2   S    
C4    C30   S    
C36   H8    S    
C32   I7    S    
