data_mof_unit_59512.cif
_audit_creation_date              2012-12-11T16:44:10-0500
_audit_creation_method            fapswitch 2.2
_symmetry_space_group_name_H-M    P1
_symmetry_Int_Tables_number       1
_space_group_crystal_system       triclinic
_cell_length_a                    27.238548
_cell_length_b                    7.198432
_cell_length_c                    22.835319
_cell_angle_alpha                 90.009573
_cell_angle_beta                  101.508655
_cell_angle_gamma                 90.01256
_cell_volume                      4387.41055946

loop_
_atom_site_label
_atom_site_type_symbol
_atom_type_description
_atom_site_fract_x
_atom_site_fract_y
_atom_site_fract_z
_atom_type_partial_charge
O1    O     O_R   0.707300 0.594030 0.176840 -0.537123
O2    O     O_R   0.292700 0.405970 0.823160 -0.537123
O3    O     O_R   0.792700 0.094030 0.323160 -0.537037
O4    O     O_R   0.207300 0.905970 0.676840 -0.537035
O5    O     O_R   0.697330 0.262360 0.295660 -0.496676
O6    O     O_R   0.302670 0.737640 0.704340 -0.496676
O7    O     O_R   0.802670 0.762360 0.204340 -0.496741
O8    O     O_R   0.197330 0.237640 0.795660 -0.496742
C1    C     C_R   0.684754 0.432265 0.311780 0.714844
C2    C     C_R   0.315246 0.567735 0.688220 0.714846
C3    C     C_R   0.815245 0.932273 0.188222 0.714764
C4    C     C_R   0.184755 0.067726 0.811778 0.714762
O9    O     O_R   0.701410 0.264250 0.175600 -0.537669
O10   O     O_R   0.298590 0.735750 0.824400 -0.537669
O11   O     O_R   0.798590 0.764250 0.324400 -0.537595
O12   O     O_R   0.201410 0.235750 0.675600 -0.537595
O13   O     O_R   0.796800 0.094950 0.202240 -0.545788
O14   O     O_R   0.203200 0.905050 0.797760 -0.545788
O15   O     O_R   0.703200 0.594950 0.297760 -0.545835
O16   O     O_R   0.296800 0.405050 0.702240 -0.545834
C5    C     C_R   0.689747 0.432484 0.153483 0.679477
C6    C     C_R   0.310253 0.567516 0.846516 0.679477
C7    C     C_R   0.810250 0.932547 0.346512 0.679702
C8    C     C_R   0.189750 0.067452 0.653488 0.679700
O17   O     O_3   0.781290 0.427390 0.258880 -0.366662
O18   O     O_3   0.218710 0.572610 0.741120 -0.366662
O19   O     O_3   0.718710 0.927390 0.241120 -0.366762
O20   O     O_3   0.281290 0.072610 0.758880 -0.366763
V1    V     V_3+5 0.744190 0.152150 0.248350 1.518995
V2    V     V_3+5 0.255810 0.847850 0.751650 1.518997
V3    V     V_3+5 0.755810 0.652150 0.251650 1.518962
V4    V     V_3+5 0.244190 0.347850 0.748350 1.518965
C9    C     C_R   0.154760 0.062326 0.595185 -0.039847
C10   C     C_R   0.845239 0.937667 0.404816 -0.039848
C11   C     C_R   0.345251 0.562723 0.904826 -0.039976
C12   C     C_R   0.654749 0.437277 0.095174 -0.039976
C13   C     C_R   0.139116 0.122893 0.489021 -0.090914
C14   C     C_R   0.860887 0.876994 0.510977 -0.090917
C15   C     C_R   0.361109 0.626852 0.010783 -0.091072
C16   C     C_R   0.638891 0.373148 0.989217 -0.091072
C17   C     C_R   0.171974 0.114587 0.544045 -0.189784
C18   C     C_R   0.828028 0.885329 0.455952 -0.189770
C19   C     C_R   0.328188 0.617403 0.955827 -0.189567
C20   C     C_R   0.671812 0.382597 0.044173 -0.189567
C21   C     C_R   0.103819 0.018897 0.590984 -0.159303
C22   C     C_R   0.896179 0.981136 0.409018 -0.159312
C23   C     C_R   0.396114 0.517962 0.909105 -0.159444
C24   C     C_R   0.603886 0.482038 0.090895 -0.159445
C25   C     C_R   0.069036 0.029483 0.535324 0.046083
C26   C     C_R   0.930963 0.970496 0.464677 0.046100
C27   C     C_R   0.430972 0.529765 0.964686 0.046120
C28   C     C_R   0.569028 0.470235 0.035314 0.046120
C29   C     C_R   0.087960 0.082231 0.484087 -0.001287
C30   C     C_R   0.912041 0.917690 0.515913 -0.001292
C31   C     C_R   0.412195 0.585036 0.015775 -0.001118
C32   C     C_R   0.587805 0.414964 0.984225 -0.001118
C33   C     C_R   0.016319 0.992053 0.528777 -0.037601
C34   C     C_R   0.983681 0.007917 0.471224 -0.037619
C35   C     C_R   0.483635 0.491297 0.971278 -0.037558
C36   C     C_R   0.516365 0.508703 0.028722 -0.037558
C37   C     C_R   0.004857 0.060050 0.422102 -0.220754
C38   C     C_R   0.995144 0.939867 0.577898 -0.220760
C39   C     C_R   0.495333 0.563395 0.077694 -0.220693
C40   C     C_R   0.504666 0.436605 0.922306 -0.220693
C41   C     C_R   0.055724 0.096023 0.428362 0.607562
C42   C     C_R   0.944278 0.903861 0.571636 0.607535
C43   C     C_R   0.444518 0.600316 0.071397 0.607539
C44   C     C_R   0.555482 0.399684 0.928603 0.607539
H1    H     H_    0.907342 0.018231 0.367892 0.103309
H2    H     H_    0.092654 0.981881 0.632114 0.103309
H3    H     H_    0.592818 0.520789 0.131929 0.103409
H4    H     H_    0.407182 0.479211 0.868071 0.103409
H5    H     H_    0.788972 0.849649 0.453163 0.117373
H6    H     H_    0.211032 0.150231 0.546833 0.117375
H7    H     H_    0.710796 0.345821 0.047027 0.117256
H8    H     H_    0.289204 0.654179 0.952973 0.117256
H9    H     H_    0.153873 0.163900 0.450265 0.184722
H10   H     H_    0.846132 0.835931 0.549731 0.184720
H11   H     H_    0.346467 0.669801 0.049421 0.184688
H12   H     H_    0.653533 0.330199 0.950578 0.184688
H13   H     H_    0.982984 0.075036 0.377606 0.160563
H14   H     H_    0.017018 0.924826 0.622393 0.160567
H15   H     H_    0.517287 0.579779 0.122093 0.160486
H16   H     H_    0.482713 0.420221 0.877907 0.160486
C45   C     C_R   0.863195 0.113312 0.123890 -0.202174
C46   C     C_R   0.136805 0.886688 0.876110 -0.202173
C47   C     C_R   0.636669 0.613456 0.375928 -0.202367
C48   C     C_R   0.363331 0.386544 0.624071 -0.202365
H17   H     H_    0.842540 0.237201 0.130797 0.196943
H18   H     H_    0.157460 0.762799 0.869203 0.196943
H19   H     H_    0.657220 0.737488 0.368878 0.197641
H20   H     H_    0.342780 0.262512 0.631121 0.197641
C49   C     C_R   0.898795 0.126842 0.087610 -0.119210
C50   C     C_R   0.101205 0.873158 0.912390 -0.119209
C51   C     C_R   0.601064 0.626993 0.412202 -0.119193
C52   C     C_R   0.398935 0.373007 0.587798 -0.119194
H21   H     H_    0.904072 0.259769 0.067545 0.135813
H22   H     H_    0.095928 0.740231 0.932454 0.135813
H23   H     H_    0.595678 0.760070 0.432117 0.136043
H24   H     H_    0.404322 0.239930 0.567883 0.136042
C53   C     C_R   0.926391 0.970543 0.076334 0.001924
C54   C     C_R   0.073609 0.029457 0.923666 0.001924
C55   C     C_R   0.573602 0.470524 0.423664 0.001835
C56   C     C_R   0.426398 0.529476 0.576336 0.001835
C57   C     C_R   0.917407 0.800144 0.102492 -0.206633
C58   C     C_R   0.082593 0.199856 0.897508 -0.206634
C59   C     C_R   0.582718 0.299953 0.397695 -0.206640
C60   C     C_R   0.417282 0.700047 0.602305 -0.206640
H25   H     H_    0.938560 0.677574 0.095513 0.134760
H26   H     H_    0.061440 0.322425 0.904487 0.134761
H27   H     H_    0.561670 0.177237 0.404828 0.134618
H28   H     H_    0.438331 0.822763 0.595172 0.134618
C61   C     C_R   0.881743 0.785799 0.138881 0.623157
C62   C     C_R   0.118257 0.214201 0.861119 0.623157
C63   C     C_R   0.618379 0.285610 0.361303 0.623239
C64   C     C_R   0.381621 0.714390 0.638697 0.623237
C65   C     C_R   0.853920 0.942931 0.150119 -0.183889
C66   C     C_R   0.146079 0.057069 0.849881 -0.183890
C67   C     C_R   0.646074 0.442909 0.349882 -0.183996
C68   C     C_R   0.353925 0.557091 0.650118 -0.183995
C69   C     C_R   0.970195 0.841146 0.997746 -0.147779
C70   C     C_R   0.029805 0.158854 0.002253 -0.147778
C71   C     C_R   0.529976 0.341568 0.502474 -0.147791
C72   C     C_R   0.470023 0.658432 0.497526 -0.147791
H29   H     H_    0.946965 0.718038 0.994393 0.116003
H30   H     H_    0.053035 0.281962 0.005607 0.116003
H31   H     H_    0.553341 0.218816 0.505996 0.116157
H32   H     H_    0.446659 0.781184 0.494004 0.116157
C73   C     C_R   0.005448 0.855596 0.960936 -0.136297
C74   C     C_R   0.994552 0.144404 0.039064 -0.136296
C75   C     C_R   0.494726 0.356033 0.539287 -0.136448
C76   C     C_R   0.505274 0.643967 0.460713 -0.136447
H33   H     H_    0.008357 0.743061 0.930358 0.123082
H34   H     H_    0.991643 0.256939 0.069642 0.123081
H35   H     H_    0.491949 0.243865 0.570039 0.123233
H36   H     H_    0.508051 0.756135 0.429961 0.123233
C77   C     C_R   0.035772 0.014641 0.962668 0.115898
C78   C     C_R   0.964228 0.985358 0.037332 0.115898
C79   C     C_R   0.464232 0.514656 0.537333 0.115793
C80   C     C_R   0.535768 0.485344 0.462666 0.115792
F1    F     F_    0.073466 0.146158 0.379081 -0.668791
F2    F     F_    0.926539 0.853643 0.620916 -0.668778
F3    F     F_    0.426919 0.652971 0.120529 -0.668943
F4    F     F_    0.573081 0.347029 0.879471 -0.668943
F5    F     F_    0.875212 0.618088 0.163384 -0.692326
F6    F     F_    0.124788 0.381912 0.836616 -0.692326
F7    F     F_    0.625041 0.117716 0.336990 -0.692703
F8    F     F_    0.374959 0.882283 0.663010 -0.692703

loop_
_geom_bond_atom_site_label_1
_geom_bond_atom_site_label_2
_ccdc_geom_bond_type
O17   V3    S    
C48   C52   A    
O1    C5    A    
C47   H19   S    
O19   V1    S    
C9    C21   A    
C72   C79   A    
O3    C7    A    
C10   C18   A    
O15   V3    S    
C25   C33   A    
C33   C38   A    
C5    C12   S    
O7    C3    A    
C6    C11   S    
C35   C40   A    
C26   C30   A    
C58   C62   A    
C36   C39   A    
C40   C44   A    
C57   C61   A    
C14   C18   A    
C75   H35   S    
C58   H26   S    
O4    C8    A    
C51   H23   S    
C50   H22   S    
C63   F7    S    
O1    V3    S    
O13   V1    S    
C31   C43   A    
C72   C76   A    
O2    V4    S    
C61   F5    S    
O3    V1    S    
C40   H16   S    
C22   H1    S    
C46   C50   A    
C17   H6    S    
C45   C49   A    
C1    O15   A    
C15   C31   A    
C76   C80   A    
C48   H20   S    
C2    O16   A    
C16   C32   A    
C47   C51   A    
O2    C6    A    
C16   H12   S    
C44   F4    S    
C10   C22   A    
C48   C68   A    
C11   C19   A    
C16   C20   A    
C76   H36   S    
C72   H32   S    
C13   C29   A    
C34   C37   A    
O11   C7    A    
C38   H14   S    
C11   C23   A    
C35   C36   A    
O12   C8    A    
C43   F3    S    
C74   H34   S    
O10   V2    S    
C51   C55   A    
O5    V1    S    
C53   C57   A    
C39   C43   A    
O7    V3    S    
C38   C42   A    
O8    V4    S    
C2    C68   S    
C62   F6    S    
C46   H18   S    
C49   C53   A    
C64   F8    S    
C45   H17   S    
O18   V4    S    
C15   C19   A    
C14   H10   S    
C32   C44   A    
C13   H9    S    
C71   C80   A    
C64   C68   A    
C39   H15   S    
C54   C77   S    
C26   C34   A    
C69   C78   A    
C70   H30   S    
C20   H7    S    
C47   C67   A    
C37   C41   A    
C41   F1    S    
C71   H31   S    
C14   C30   A    
C21   C25   A    
O8    C4    A    
C7    C10   S    
O9    C5    A    
C46   C66   A    
C45   C65   A    
C59   C63   A    
C62   C66   A    
C61   C65   A    
O6    V2    S    
C69   H29   S    
C73   H33   S    
C63   C67   A    
C52   C56   A    
O14   V2    S    
C1    C67   S    
C4    C66   S    
C12   C20   A    
C27   C35   A    
C24   H3    S    
C3    C65   S    
C49   H21   S    
C56   C60   A    
C29   C41   A    
O16   V4    S    
O9    V1    S    
C19   H8    S    
C57   H25   S    
C3    O13   A    
C18   H5    S    
C71   C75   A    
C21   H2    S    
C59   H27   S    
C70   C77   A    
C69   C73   A    
O6    C2    A    
C23   C27   A    
C53   C78   S    
O11   V3    S    
C42   F2    S    
O12   V4    S    
C22   C26   A    
C8    C9    S    
C56   C79   S    
C9    C17   A    
O10   C6    A    
O20   V2    S    
C37   H13   S    
C55   C80   S    
C60   C64   A    
C33   C34   A    
C25   C29   A    
C52   H24   S    
C12   C24   A    
C27   C31   A    
C13   C17   A    
C23   H4    S    
C75   C79   A    
C60   H28   S    
C24   C28   A    
C73   C77   A    
C50   C54   A    
C28   C36   A    
C54   C58   A    
C4    O14   A    
C55   C59   A    
O5    C1    A    
C30   C42   A    
C70   C74   A    
O4    V2    S    
C28   C32   A    
C15   H11   S    
C74   C78   A    
