data_mof_unit_6419.cif
_audit_creation_date              2012-12-10T17:42:36-0500
_audit_creation_method            fapswitch 2.2
_symmetry_space_group_name_H-M    P1
_symmetry_Int_Tables_number       1
_space_group_crystal_system       triclinic
_cell_length_a                    9.923138
_cell_length_b                    10.602191
_cell_length_c                    13.097243
_cell_angle_alpha                 91.668427
_cell_angle_beta                  69.690425
_cell_angle_gamma                 92.024739
_cell_volume                      1291.24202491

loop_
_atom_site_label
_atom_site_type_symbol
_atom_type_description
_atom_site_fract_x
_atom_site_fract_y
_atom_site_fract_z
_atom_type_partial_charge
C1    C     C_R   0.502941 0.739398 0.499205 0.846218
C2    C     C_R   0.431392 0.488620 0.984594 -0.020335
C3    C     C_R   0.452594 0.446869 0.877503 0.060679
C4    C     C_R   0.538452 0.463562 0.029316 0.108339
C5    C     C_R   0.651830 0.381226 0.974140 0.154599
C6    C     C_R   0.659397 0.327164 0.874229 -0.223131
C7    C     C_R   0.560897 0.359319 0.826410 -0.151124
C8    C     C_R   0.536627 0.519341 0.127244 -0.277671
C9    C     C_R   0.739982 0.398586 0.124957 -0.205238
C10   C     C_R   0.367570 0.496767 0.822806 -0.111289
C11   C     C_R   0.376321 0.863719 0.706095 -0.178263
C12   C     C_R   0.419770 0.496815 0.704222 0.847782
C13   C     C_R   0.294976 0.922955 0.802618 -0.168982
C14   C     C_R   0.252103 0.045889 0.801062 -0.137786
C15   C     C_R   0.295663 0.113050 0.703448 -0.159132
C16   C     C_R   0.399602 0.059959 0.607905 -0.017754
C17   C     C_R   0.427020 0.930927 0.607940 0.134950
C18   C     C_R   0.504949 0.871740 0.508742 -0.072213
C19   C     C_R   0.575804 0.938222 0.414861 -0.208378
C20   C     C_R   0.568204 0.066833 0.418050 -0.174002
C21   C     C_R   0.481390 0.127438 0.512700 -0.104726
C22   C     C_R   0.802821 0.666501 0.641050 -0.252072
C23   C     C_R   0.492148 0.260925 0.510019 0.851488
C24   C     C_R   0.842563 0.744416 0.714621 0.556406
C25   C     C_R   0.982130 0.742073 0.714693 -0.297530
C26   C     C_R   0.080052 0.659872 0.645301 -0.235022
C27   C     C_R   0.042759 0.579185 0.571448 0.193568
C28   C     C_R   0.898957 0.580835 0.570292 0.105696
C29   C     C_R   0.956614 0.423225 0.432377 -0.090177
C30   C     C_R   0.099775 0.423610 0.432108 -0.053923
C31   C     C_R   0.580133 0.498815 0.295779 0.873062
C32   C     C_R   0.753887 0.351744 0.021301 -0.203930
C33   C     C_R   0.628063 0.479593 0.178785 -0.064330
C34   C     C_R   0.244628 0.564569 0.880230 -0.307608
C35   C     C_R   0.207478 0.588087 0.992953 0.584222
C36   C     C_R   0.304017 0.553408 0.042753 -0.273749
H1    H     H_    0.811111 0.366513 0.165005 0.161780
H2    H     H_    0.401915 0.765938 0.709081 0.106498
H3    H     H_    0.258044 0.870974 0.877695 0.154402
H4    H     H_    0.175962 0.085380 0.874996 0.159405
H5    H     H_    0.628496 0.119539 0.345898 0.141872
H6    H     H_    0.925919 0.360479 0.377093 0.139275
H7    H     H_    0.697116 0.677839 0.640651 0.213908
H8    H     H_    0.015195 0.804632 0.768974 0.171748
H9    H     H_    0.184039 0.662478 0.651634 0.218588
H10   H     H_    0.742600 0.261258 0.832308 0.180318
H11   H     H_    0.176457 0.361080 0.376634 0.143418
H12   H     H_    0.839993 0.288100 0.980324 0.167732
H13   H     H_    0.459334 0.589481 0.168821 0.149502
H14   H     H_    0.182258 0.602398 0.835605 0.155022
H15   H     H_    0.274005 0.575405 0.128572 0.165449
H16   H     H_    0.569670 0.314191 0.749248 0.173295
H17   H     H_    0.637127 0.890377 0.339552 0.142362
N1    N     N_R   0.856860 0.501200 0.500990 -0.103276
N2    N     N_R   0.142450 0.501280 0.501020 -0.094354
O1    O     O_R   0.385310 0.683220 0.500000 -0.632699
O2    O     O_R   0.614640 0.683250 0.500010 -0.626015
O3    O     O_R   0.328400 0.499950 0.653610 -0.592628
O4    O     O_R   0.557730 0.499970 0.653620 -0.646399
O5    O     O_R   0.385360 0.316750 0.499990 -0.590450
O6    O     O_R   0.614690 0.316780 0.500000 -0.607817
O7    O     O_R   0.442270 0.500030 0.346380 -0.612287
O8    O     O_R   0.671600 0.500050 0.346390 -0.606048
Zn1   Zn    Zn3+2 0.346880 0.499980 0.499990 0.972469
Zn2   Zn    Zn3+2 0.653120 0.500020 0.500010 0.942743
C37   C     C_2   0.202747 0.218603 0.701188 0.944212
O9    O     O_2   0.169909 0.296370 0.775641 -0.612855
O10   O     O_R   0.136463 0.221904 0.622912 -0.750527
H18   H     H_    0.159781 0.146943 0.570539 0.305887
O11   O     O_3   0.749279 0.831138 0.781029 -0.599271
C38   C     C_3   0.637396 0.766261 0.861357 -0.305910
H19   H     H_    0.679877 0.699243 0.906050 0.161023
H20   H     H_    0.563564 0.716237 0.825626 0.158985
H21   H     H_    0.573197 0.836219 0.921689 0.199194
O12   O     O_3   0.086546 0.652923 0.057884 -0.614458
C39   C     C_3   0.979068 0.660981 0.010815 -0.304122
H22   H     H_    0.955267 0.568194 0.978047 0.189569
H23   H     H_    0.009679 0.733927 0.947085 0.153834
H24   H     H_    0.878408 0.691233 0.074945 0.197981

loop_
_geom_bond_atom_site_label_1
_geom_bond_atom_site_label_2
_ccdc_geom_bond_type
C37   O10   S    
O8    Zn2   S    
C16   C21   A    
C29   H6    S    
C35   C36   A    
C39   H24   S    
C4    C8    A    
C20   H5    S    
C24   O11   S    
N1    Zn2   S    
C35   O12   S    
C1    C18   S    
C1    O1    A    
C39   H23   S    
C7    H16   S    
C34   C35   A    
C3    C7    A    
C5    C6    A    
C27   N2    A    
C29   N1    A    
C15   C16   A    
C18   C19   A    
O7    Zn1   S    
C9    C32   A    
C12   O4    A    
C19   C20   A    
C16   C17   A    
O1    Zn1   S    
O11   C38   S    
C26   H9    S    
C5    C32   A    
C12   O3    A    
C19   H17   S    
C37   O9    D    
C22   C28   A    
C13   C14   A    
C9    C33   A    
C32   H12   S    
C31   O7    A    
C25   H8    S    
O3    Zn1   S    
C23   O5    A    
C34   H14   S    
C31   C33   S    
C31   O8    A    
C30   H11   S    
C39   H22   S    
C38   H20   S    
C28   N1    A    
O10   H18   S    
C25   C26   A    
C15   C37   S    
C11   H2    S    
C2    C4    A    
O12   C39   S    
C29   C30   A    
C1    O2    A    
C22   H7    S    
N2    Zn1   S    
C9    H1    S    
C17   C18   A    
C26   C27   A    
C10   C34   A    
C24   C25   A    
C36   H15   S    
C10   C12   S    
C21   C23   S    
C22   C24   A    
C2    C36   A    
C11   C17   A    
C6    H10   S    
O2    Zn2   S    
C4    C5    A    
C38   H21   S    
C6    C7    A    
C30   N2    A    
O5    Zn1   S    
C2    C3    A    
C38   H19   S    
C3    C10   A    
O4    Zn2   S    
C11   C13   A    
C8    C33   A    
C13   H3    S    
C14   H4    S    
O6    Zn2   S    
C23   O6    A    
C20   C21   A    
C27   C28   A    
C14   C15   A    
C8    H13   S    
