data_mof_unit_68204.cif
_audit_creation_date              2013-03-05T16:03:15-0500
_audit_creation_method            fapswitch 2.2
_symmetry_space_group_name_H-M    P1
_symmetry_Int_Tables_number       1
_space_group_crystal_system       triclinic
_cell_length_a                    7.15715
_cell_length_b                    13.630908
_cell_length_c                    17.071668
_cell_angle_alpha                 89.92495
_cell_angle_beta                  90.485593
_cell_angle_gamma                 90.507638
_cell_volume                      1665.35907251

loop_
_atom_site_label
_atom_site_type_symbol
_atom_site_description
_atom_site_fract_x
_atom_site_fract_y
_atom_site_fract_z
_atom_type_partial_charge
O1    O     O_R   0.361630 0.167340 0.164570 -0.529621
O2    O     O_R   0.638370 0.832660 0.835430 -0.532977
O3    O     O_R   0.690860 0.157560 0.338690 -0.549682
O4    O     O_R   0.309140 0.842440 0.661310 -0.561613
O5    O     O_R   0.861260 0.336420 0.339380 -0.593871
O6    O     O_R   0.138740 0.663580 0.660620 -0.605383
C1    C     C_R   0.522689 0.133574 0.366319 1.274913
C2    C     C_R   0.477940 0.867122 0.633603 1.263297
O7    O     O_R   0.691330 0.156310 0.165190 -0.510452
O8    O     O_R   0.308670 0.843690 0.834810 -0.530868
O9    O     O_R   0.861730 0.335160 0.164640 -0.619694
O10   O     O_R   0.138270 0.664840 0.835360 -0.606868
C3    C     C_R   0.522678 0.124841 0.142894 1.019264
C4    C     C_R   0.476629 0.874617 0.857498 1.086487
O11   O     O_R   0.361150 0.168600 0.339320 -0.543997
O12   O     O_R   0.638850 0.831400 0.660680 -0.548465
O13   O     O_3   0.527950 0.310560 0.252000 -0.320874
O14   O     O_3   0.472050 0.689440 0.748000 -0.321381
V1    V     V_3+5 0.802770 0.240990 0.251980 1.346262
V2    V     V_3+5 0.197230 0.759010 0.748020 1.304848
O15   O     O_R   0.191450 0.346190 0.165260 -0.577001
O16   O     O_R   0.808550 0.653810 0.834740 -0.563848
C5    C     C_R   0.023611 0.357732 0.131241 1.069424
C6    C     C_R   0.976406 0.639158 0.867194 1.077621
O17   O     O_R   0.190980 0.347440 0.338770 -0.583710
O18   O     O_R   0.809020 0.652560 0.661230 -0.583566
C7    C     C_R   0.023360 0.369534 0.367371 0.936572
C8    C     C_R   0.976697 0.629861 0.633018 0.932461
V3    V     V_3+5 0.302780 0.262760 0.251980 1.313991
V4    V     V_3+5 0.697220 0.737240 0.748020 1.294210
O19   O     O_3   0.027730 0.193200 0.251960 -0.202135
O20   O     O_3   0.972270 0.806800 0.748040 -0.209147
C9    C     C_3   0.858602 0.516257 0.450423 -0.137540
C10   C     C_3   0.141274 0.482265 0.550553 -0.127131
C11   C     C_3   0.836797 0.482971 0.536871 -0.152923
C12   C     C_3   0.163125 0.515602 0.464101 -0.146707
H1    H     H_    0.701712 0.469172 0.566585 0.152067
H2    H     H_    0.298281 0.529781 0.434534 0.149292
H3    H     H_    0.741347 0.531399 0.409269 0.164795
H4    H     H_    0.258565 0.467461 0.591763 0.165302
C13   C     C_3   0.986201 0.559078 0.562588 -0.144674
C14   C     C_3   0.013748 0.439487 0.438316 -0.157395
C15   C     C_3   0.007981 0.592747 0.476717 0.031549
C16   C     C_3   0.991777 0.405671 0.524245 0.053038
H5    H     H_    0.011072 0.669946 0.457172 0.185416
H6    H     H_    0.986729 0.328416 0.544275 0.217090
H7    H     H_    0.869174 0.325573 0.761506 0.205779
H8    H     H_    0.095641 0.673519 0.237069 0.181659
C17   C     C_R   0.011087 0.703341 0.042001 0.403403
C18   C     C_R   0.975643 0.292812 0.954147 0.449993
C19   C     C_R   0.054527 0.728131 0.120517 -0.039545
C20   C     C_R   0.926725 0.269905 0.876043 -0.082075
C21   C     C_R   0.071370 0.655203 0.176035 0.018200
C22   C     C_R   0.897988 0.343442 0.822126 -0.030997
C23   C     C_R   0.050509 0.558520 0.155916 -0.119376
C24   C     C_R   0.923239 0.439492 0.842543 -0.110198
C25   C     C_R   0.025930 0.528301 0.077231 0.052587
C26   C     C_R   0.964423 0.468285 0.920482 0.057858
C27   C     C_R   0.008307 0.601693 0.017139 -0.094352
C28   C     C_R   0.985730 0.394289 0.980163 -0.120185
C29   C     C_R   0.014905 0.425965 0.060685 -0.239017
C30   C     C_R   0.982738 0.570113 0.936935 -0.221824
H9    H     H_    0.058722 0.508206 0.204699 0.095715
H10   H     H_    0.908014 0.490404 0.794501 0.095943
C31   C     C_3   0.365099 0.981175 0.452082 0.517217
C32   C     C_3   0.641231 0.025624 0.550136 0.479645
C33   C     C_3   0.515466 0.908929 0.481153 0.439520
C34   C     C_3   0.490966 0.098160 0.520535 0.501129
C35   C     C_3   0.491306 0.944604 0.565920 -0.536178
C36   C     C_3   0.514504 0.061026 0.436355 -0.535566
C37   C     C_3   0.339009 0.018142 0.536776 -0.353207
C38   C     C_3   0.666988 0.988522 0.465454 -0.402818
H11   H     H_    0.210575 0.029715 0.568114 0.281190
H12   H     H_    0.798634 0.973015 0.437187 0.281704
C39   C     C_R   0.571446 0.204842 0.993993 -0.196780
C40   C     C_R   0.405041 0.800359 0.005791 -0.212160
C41   C     C_R   0.513670 0.263441 0.932922 -0.074636
C42   C     C_R   0.454970 0.740953 0.068081 -0.082042
C43   C     C_R   0.453923 0.221110 0.862946 0.400320
C44   C     C_R   0.523197 0.783438 0.136765 0.388578
C45   C     C_R   0.441806 0.115398 0.857231 0.321072
C46   C     C_R   0.555569 0.887910 0.139271 0.378476
C47   C     C_R   0.487379 0.053199 0.924549 -0.103314
C48   C     C_R   0.505533 0.950096 0.073238 -0.133446
C49   C     C_R   0.531413 0.103466 0.996251 0.182658
C50   C     C_R   0.456241 0.900401 0.002334 0.126619
C51   C     C_R   0.473501 0.945949 0.927469 -0.124224
C52   C     C_R   0.522938 0.056506 0.071008 -0.096949
H13   H     H_    0.619930 0.244606 0.044934 0.154060
H14   H     H_    0.347382 0.762552 0.955771 0.174338
S1    S     S_3+6 0.533835 0.705201 0.220897 -0.007240
O21   O     O_2   0.729854 0.684950 0.246635 -0.249136
O22   O     O_2   0.430909 0.756759 0.284196 -0.193443
O23   O     O_3   0.434809 0.594189 0.207737 -0.583088
H15   H     H_    0.430504 0.564308 0.260647 0.361342
S2    S     S_3+6 0.427829 0.303666 0.781969 -0.011012
O24   O     O_2   0.557944 0.270274 0.719891 -0.185879
O25   O     O_2   0.232246 0.302410 0.750389 -0.291087
O26   O     O_3   0.483099 0.421214 0.802450 -0.557924
H16   H     H_    0.484314 0.455117 0.751083 0.361110
N1    N     N_3   0.499672 0.367241 0.945758 -0.128893
H17   H     H_    0.625831 0.394123 0.967835 0.116510
H18   H     H_    0.399392 0.379944 0.988518 0.167741
N2    N     N_3   0.448828 0.635875 0.058885 -0.141254
H19   H     H_    0.586206 0.610611 0.062373 0.184589
H20   H     H_    0.399939 0.615668 0.003283 0.119919
S3    S     S_3+6 0.358521 0.061457 0.769677 -0.016290
O27   O     O_2   0.515473 0.999919 0.742154 -0.359605
O28   O     O_2   0.188195 0.000430 0.786781 -0.296241
O29   O     O_3   0.301909 0.134262 0.695214 -0.388847
H21   H     H_    0.164687 0.129510 0.689709 0.406982
S4    S     S_3+6 0.704637 0.936020 0.212642 0.026905
O30   O     O_2   0.855295 0.997819 0.176325 -0.222778
O31   O     O_2   0.583652 0.995917 0.263648 -0.384177
O32   O     O_3   0.814021 0.856254 0.269753 -0.435892
H22   H     H_    0.839445 0.894699 0.317407 0.411936
S5    S     S_3+6 0.903982 0.796113 0.986555 -0.111691
O33   O     O_2   0.730828 0.747974 0.957006 -0.362934
O34   O     O_2   0.856280 0.884365 0.033959 -0.317211
O35   O     O_3   0.026984 0.836829 0.911242 -0.527179
H23   H     H_    0.966332 0.898797 0.895097 0.402894
S6    S     S_3+6 0.063886 0.194555 0.009292 -0.090357
O36   O     O_2   0.237351 0.233942 0.044568 -0.374902
O37   O     O_2   0.936622 0.165624 0.073115 -0.284098
O38   O     O_3   0.109891 0.092542 0.958194 -0.547047
H24   H     H_    0.115453 0.039127 0.997527 0.394928
N3    N     N_3   0.071989 0.828326 0.145601 -0.089553
H25   H     H_    0.135077 0.831648 0.200718 0.206069
H26   H     H_    0.162068 0.865939 0.108428 0.132727
N4    N     N_3   0.914681 0.170594 0.849483 -0.122323
H27   H     H_    0.785683 0.159258 0.822600 0.155716
H28   H     H_    0.014995 0.161776 0.806398 0.222426
S7    S     S_3+6 0.539301 0.780123 0.459547 -0.005642
O39   O     O_2   0.355585 0.738684 0.432151 -0.298630
O40   O     O_2   0.684046 0.766021 0.398098 -0.206402
O41   O     O_3   0.607142 0.715044 0.537822 -0.573639
H29   H     H_    0.557947 0.647835 0.528774 0.346728
S8    S     S_3+6 0.481624 0.229948 0.536906 0.025737
O42   O     O_2   0.314528 0.256220 0.584426 -0.211205
O43   O     O_2   0.656865 0.262835 0.577987 -0.240765
O44   O     O_3   0.467531 0.295409 0.453742 -0.579945
H30   H     H_    0.489275 0.364498 0.469686 0.342332
S9    S     S_3+6 0.176864 0.955795 0.388499 -0.008773
O45   O     O_2   0.059337 0.046002 0.380757 -0.274680
O46   O     O_2   0.248638 0.928992 0.309334 -0.262338
O47   O     O_3   0.053994 0.862202 0.427012 -0.574069
H31   H     H_    0.055105 0.810363 0.386516 0.396780
S10   S     S_3+6 0.835729 0.059882 0.608422 0.021971
O48   O     O_2   0.953783 0.129087 0.560990 -0.300359
O49   O     O_2   0.774404 0.111861 0.680760 -0.199469
O50   O     O_3   0.954762 0.959085 0.634286 -0.492410
H32   H     H_    0.951410 0.916277 0.587427 0.347917

loop_
_geom_bond_atom_site_label_1
_geom_bond_atom_site_label_2
_geom_bond_distance
_ccdc_geom_bond_type
C26   C30   1.421195 A    
S9    O47   1.679558 S    
C32   C34   1.548527 S    
C45   S3    1.763521 S    
N1    H17   1.039400 S    
O13   V3    1.732941 S    
C12   C14   1.544917 S    
C18   S6    1.755151 S    
S10   O50   1.679670 S    
O4    C2    1.341108 A    
V1    O19   1.742206 S    
C1    C36   1.551741 S    
S4    O31   1.483843 D    
C32   C38   1.545260 S    
O9    V1    2.011221 S    
C2    C35   1.567341 S    
C9    H3    1.110477 S    
C10   H4    1.110405 S    
C9    C14   1.547836 S    
C33   S7    1.804402 S    
C40   C42   1.382268 A    
C4    C51   1.541649 S    
O3    C1    1.334293 A    
S5    O34   1.494355 D    
C31   S9    1.755241 S    
C42   C44   1.391308 A    
C25   C27   1.437532 A    
C32   C35   1.557819 S    
O12   V4    2.009724 S    
S9    O45   1.500986 D    
S2    O26   1.683428 S    
C8    C13   1.544929 S    
C33   C38   1.551858 S    
C35   C37   1.565025 S    
O7    C3    1.330173 A    
O29   H21   0.987370 S    
S4    O30   1.500182 D    
C9    C11   1.552135 S    
O5    C7    1.326640 A    
C41   N1    1.436552 S    
C39   C49   1.409294 A    
O6    C8    1.326727 A    
O7    V1    2.032708 S    
O8    V2    2.032709 S    
C31   C33   1.543613 S    
S2    O25   1.495742 D    
S7    O41   1.673861 S    
C18   C20   1.410376 A    
O50   H32   0.990776 S    
C24   H10   1.079102 S    
O3    V1    2.031156 S    
O14   V4    1.732942 S    
C32   S10   1.764139 S    
C41   C43   1.389836 A    
O38   H24   0.990651 S    
C2    O12   1.333198 A    
C13   C15   1.544278 S    
C10   C13   1.547687 S    
C14   C16   1.545953 S    
C11   C13   1.544654 S    
N2    H20   1.045305 S    
N2    H19   1.045875 S    
C45   C47   1.463534 A    
C20   C22   1.375627 A    
O11   V3    2.009725 S    
C21   C23   1.368911 A    
O17   V3    2.051542 S    
H8    C21   1.083979 S    
C22   C24   1.365363 A    
C42   N2    1.441334 S    
C9    C15   1.550788 S    
C10   C16   1.552368 S    
S10   O48   1.501652 D    
C44   C46   1.441380 A    
O8    C4    1.325273 A    
S5    O35   1.656728 S    
S1    O21   1.494515 D    
C43   C45   1.446164 A    
C50   C51   1.425982 A    
C1    O11   1.333146 A    
C16   H6    1.107143 S    
C17   C19   1.414142 A    
C31   C37   1.545147 S    
O15   V3    2.027704 S    
C23   H9    1.079702 S    
C28   C29   1.454216 A    
C19   C21   1.377939 A    
C46   S4    1.761909 S    
C31   C36   1.543929 S    
N4    H28   1.040014 S    
N3    H26   1.039939 S    
S1    O22   1.492972 D    
C39   C41   1.375631 A    
O26   H16   0.990763 S    
S3    O27   1.487598 D    
S2    O24   1.490981 D    
O10   V2    2.011221 S    
O1    V3    2.030109 S    
C11   C16   1.553189 S    
C15   H5    1.103602 S    
S8    O43   1.497279 D    
H7    C22   1.081207 S    
C38   H12   1.084804 S    
C47   C49   1.434914 A    
O18   V4    2.051544 S    
C46   C48   1.453813 A    
C23   C25   1.414638 A    
S7    O39   1.497943 D    
S3    O29   1.661356 S    
O16   C6    1.335225 A    
O1    C3    1.349342 A    
S6    O37   1.477040 D    
N3    H25   1.041075 S    
C40   C50   1.410185 A    
C12   H2    1.110218 S    
O35   H23   0.990831 S    
C37   H11   1.080365 S    
O47   H31   0.989335 S    
V2    O20   1.742205 S    
C49   C52   1.428526 A    
S9    O46   1.496749 D    
C27   C30   1.445487 A    
C6    C30   1.517309 S    
O16   V4    2.027703 S    
C11   H1    1.110091 S    
C48   C52   1.455185 A    
S10   O49   1.495553 D    
O41   H29   0.990379 S    
S8    O44   1.678644 S    
C47   C51   1.465218 A    
C25   C29   1.424971 A    
O5    V1    2.019509 S    
O17   C7    1.336054 A    
O6    V2    2.019511 S    
O10   C6    1.327773 A    
O18   C8    1.335914 A    
C17   C27   1.449556 A    
O2    V4    2.030105 S    
C20   N4    1.429834 S    
S6    O38   1.679018 S    
O15   C5    1.340268 A    
N4    H27   1.037972 S    
C18   C28   1.454326 A    
C43   S2    1.790960 S    
V3    O19   2.177434 S    
O44   H30   0.991237 S    
S1    O23   1.679797 S    
V4    O20   2.177433 S    
C7    C14   1.544821 S    
S3    O28   1.500252 D    
C44   S1    1.789300 S    
C34   C37   1.559701 S    
C3    C52   1.541668 S    
O9    C5    1.329118 A    
O13   V1    2.191152 S    
C10   C12   1.552444 S    
C24   C26   1.415606 A    
C34   S8    1.820265 S    
O14   V2    2.191153 S    
O23   H15   0.990960 S    
O2    C4    1.352312 A    
S8    O42   1.497132 D    
C39   H13   1.078551 S    
O4    V2    2.031161 S    
C5    C29   1.522039 S    
C19   N3    1.435928 S    
N1    H18   1.043742 S    
C17   S5    1.756259 S    
S7    O40   1.494368 D    
C34   C36   1.535367 S    
C48   C50   1.428005 A    
C12   C15   1.552561 S    
C36   C38   1.556664 S    
C33   C35   1.538859 S    
S6    O36   1.472629 D    
S5    O33   1.482144 D    
C26   C28   1.440860 A    
S4    O32   1.656811 S    
O32   H22   0.983100 S    
C40   H14   1.075402 S    
