data_mof_unit_12421.cif
_audit_creation_date              2012-12-10T16:50:56-0500
_audit_creation_method            fapswitch 2.2
_symmetry_space_group_name_H-M    P1
_symmetry_Int_Tables_number       1
_space_group_crystal_system       triclinic
_cell_length_a                    8.108589
_cell_length_b                    8.525766
_cell_length_c                    10.483252
_cell_angle_alpha                 91.749462
_cell_angle_beta                  85.616822
_cell_angle_gamma                 93.082826
_cell_volume                      721.308007585

loop_
_atom_site_label
_atom_site_type_symbol
_atom_type_description
_atom_site_fract_x
_atom_site_fract_y
_atom_site_fract_z
_atom_type_partial_charge
Br1   Br    Br    0.231972 0.818614 0.807082 -0.544586
Br2   Br    Br    0.768057 0.181438 0.192901 -0.544582
C1    C     C_R   0.544150 0.792964 0.496743 0.949768
C2    C     C_R   0.914279 0.399706 0.008924 -0.159824
C3    C     C_R   0.078042 0.440410 0.023854 -0.127055
C4    C     C_R   0.921974 0.559608 0.976107 -0.127052
C5    C     C_R   0.190733 0.413851 0.111477 -0.176305
C6    C     C_R   0.809275 0.586189 0.888500 -0.176336
C7    C     C_R   0.350029 0.479461 0.068696 0.007176
C8    C     C_R   0.649980 0.520587 0.931292 0.007185
C9    C     C_R   0.366757 0.568929 0.952257 -0.019646
C10   C     C_R   0.633263 0.431124 0.047740 -0.019656
C11   C     C_R   0.488288 0.440378 0.124988 -0.133032
C12   C     C_R   0.455850 0.207036 0.503256 0.949775
C13   C     C_R   0.511723 0.559665 0.874998 -0.133021
C14   C     C_2   0.566696 0.957199 0.495344 -0.313600
C15   C     C_2   0.433304 0.042801 0.504654 -0.313596
C16   C     C_R   0.504562 0.523289 0.738510 0.881302
C17   C     C_R   0.495438 0.476720 0.261490 0.881306
C18   C     C_R   0.222657 0.635368 0.910051 0.286608
C19   C     C_R   0.777371 0.364690 0.089940 0.286665
C20   C     C_R   0.085732 0.600304 0.991020 -0.159772
H1    H     H_    0.863686 0.638472 0.051063 0.184427
H2    H     H_    0.306746 0.992967 0.513329 0.201010
H3    H     H_    0.136333 0.361534 0.948911 0.184436
H4    H     H_    0.103777 0.686890 0.069447 0.172751
H5    H     H_    0.896240 0.313144 0.930481 0.172774
H6    H     H_    0.168323 0.329272 0.186728 0.187025
H7    H     H_    0.831693 0.670723 0.813229 0.187035
H8    H     H_    0.008842 0.379465 0.403973 0.205558
H9    H     H_    0.991158 0.620535 0.596027 0.205548
H10   H     H_    0.693254 0.007033 0.486668 0.201005
N1    N     N_2   0.950330 0.457950 0.466250 -0.168134
N2    N     N_2   0.049670 0.542050 0.533750 -0.168135
O1    O     O_R   0.389250 0.738570 0.508280 -0.583172
O2    O     O_R   0.610750 0.261430 0.491720 -0.583172
O3    O     O_R   0.678390 0.711630 0.486650 -0.625683
O4    O     O_R   0.321610 0.288370 0.513350 -0.625678
O5    O     O_R   0.355430 0.513480 0.694040 -0.587263
O6    O     O_R   0.644570 0.486520 0.305960 -0.587263
O7    O     O_R   0.644570 0.486540 0.672410 -0.621217
O8    O     O_R   0.355430 0.513460 0.327590 -0.621216
Zn1   Zn    Zn3+2 0.306940 0.517990 0.514440 0.983822
Zn2   Zn    Zn3+2 0.693060 0.482010 0.485560 0.983820

loop_
_geom_bond_atom_site_label_1
_geom_bond_atom_site_label_2
_ccdc_geom_bond_type
C13   C16   S    
C4    C6    A    
C16   O5    A    
C12   O4    A    
O1    Zn1   S    
C17   O8    A    
C1    O1    A    
C5    H6    S    
O3    Zn2   S    
N1    N2    D    
H9    N2    S    
O4    Zn1   S    
C2    C19   A    
C7    C9    A    
C12   C15   S    
C8    C10   A    
Br2   C19   S    
C3    H3    S    
C6    H7    S    
C2    C4    A    
C18   C20   A    
C8    C13   A    
C12   O2    A    
O7    Zn2   S    
C9    C18   A    
O2    Zn2   S    
C15   H2    S    
C14   H10   S    
O8    Zn1   S    
C4    H1    S    
C20   H4    S    
C4    C20   A    
C5    C7    A    
O6    Zn2   S    
C2    H5    S    
C7    C11   A    
C10   C11   A    
C1    O3    A    
C6    C8    A    
C17   O6    A    
C16   O7    A    
C3    C5    A    
C11   C17   S    
C2    C3    A    
Br1   C18   S    
O5    Zn1   S    
H8    N1    S    
N2    Zn1   S    
N1    Zn2   S    
C9    C13   A    
C10   C19   A    
C1    C14   S    
C3    C20   A    
C14   C15   D    
