data_mof_unit_60826.cif
_audit_creation_date              2012-12-10T17:19:57-0500
_audit_creation_method            fapswitch 2.2
_symmetry_space_group_name_H-M    P1
_symmetry_Int_Tables_number       1
_space_group_crystal_system       triclinic
_cell_length_a                    38.634041
_cell_length_b                    21.728074
_cell_length_c                    21.688175
_cell_angle_alpha                 90.000655
_cell_angle_beta                  123.96959
_cell_angle_gamma                 89.999206
_cell_volume                      15098.8537402

loop_
_atom_site_label
_atom_site_type_symbol
_atom_type_description
_atom_site_fract_x
_atom_site_fract_y
_atom_site_fract_z
_atom_type_partial_charge
C1    C     C_R   0.000002 0.999994 0.118912 0.777196
C2    C     C_3   0.773480 0.997396 0.841712 0.027063
C3    C     C_3   0.275165 0.558292 0.742585 -0.427495
C4    C     C_3   0.273511 0.042659 0.326987 0.024068
C5    C     C_3   0.726430 0.060970 0.695535 0.023777
C6    C     C_3   0.773524 0.547773 0.322458 0.023913
C7    C     C_3   0.226438 0.559350 0.692519 0.023755
C8    C     C_1   0.375192 0.000066 0.375528 -0.174597
C9    C     C_1   0.624807 0.000155 0.624493 -0.174395
C10   C     C_1   0.875192 0.500083 0.375523 -0.174555
C11   C     C_1   0.124807 0.500147 0.624490 -0.174424
C12   C     C_3   0.208623 0.000265 0.207697 0.278588
C13   C     C_3   0.726507 0.519425 0.161064 0.028301
C14   C     C_3   0.791376 0.999887 0.792350 0.279064
C15   C     C_3   0.708623 0.500180 0.207666 0.278668
C16   C     C_3   0.291376 0.499934 0.792355 0.278992
C17   C     C_3   0.274158 0.934098 0.282472 -0.368602
C18   C     C_3   0.725916 0.943489 0.690945 -0.368049
C19   C     C_3   0.774138 0.435252 0.289003 -0.368479
C20   C     C_3   0.225908 0.441813 0.693821 -0.368121
C21   C     C_3   0.291359 0.000523 0.292403 0.279532
C22   C     C_3   0.708639 0.000897 0.707906 0.279396
C23   C     C_3   0.791359 0.500615 0.292341 0.279473
C24   C     C_3   0.273481 0.500814 0.841759 0.027216
C25   C     C_3   0.208639 0.500864 0.707864 0.279392
C26   C     C_3   0.561564 0.816800 0.486760 -0.715530
C27   C     C_3   0.438427 0.816805 0.513218 -0.715284
C28   C     C_3   0.061563 0.316799 0.486756 -0.715512
C29   C     C_3   0.938430 0.316804 0.513228 -0.715327
C30   C     C_3   0.289535 0.025851 0.407782 -0.865666
C31   C     C_3   0.710402 0.072540 0.613598 -0.866811
C32   C     C_3   0.789532 0.537488 0.404599 -0.865781
C33   C     C_3   0.210409 0.567608 0.610084 -0.866594
C34   C     C_3   0.210441 0.991477 0.089914 -0.875788
C35   C     C_1   0.337513 0.000185 0.338129 -0.090264
C36   C     C_3   0.789595 0.942373 0.895744 -0.874001
C37   C     C_3   0.710443 0.479480 0.091369 -0.875493
C38   C     C_3   0.289592 0.447760 0.898505 -0.874235
C39   C     C_1   0.662486 0.000387 0.661983 -0.089885
C40   C     C_1   0.837513 0.500229 0.338107 -0.090241
C41   C     C_1   0.162486 0.500369 0.661968 -0.089941
C42   C     C_1   0.162466 0.000072 0.162041 -0.088863
C43   C     C_1   0.837533 0.999935 0.837977 -0.089277
C44   C     C_1   0.662466 0.500043 0.162026 -0.088946
C45   C     C_R   0.000000 0.999993 0.881092 0.777254
C46   C     C_1   0.337533 0.499953 0.837979 -0.089214
C47   C     C_1   0.124784 0.000006 0.124643 -0.172227
C48   C     C_1   0.875215 0.999983 0.875363 -0.172378
C49   C     C_1   0.624784 0.500002 0.124637 -0.172248
C50   C     C_1   0.375215 0.499986 0.875363 -0.172357
C51   C     C_R   0.973573 0.040019 0.191581 -0.171809
C52   C     C_R   0.026495 0.039926 0.808492 -0.171852
C53   C     C_R   0.473566 0.540011 0.191575 -0.171816
C54   C     C_R   0.526482 0.539944 0.808478 -0.171860
C55   C     C_R   0.973119 0.039327 0.255225 -0.147384
C56   C     C_R   0.500002 0.499994 0.118912 0.777205
C57   C     C_R   0.026945 0.039235 0.744846 -0.147175
C58   C     C_R   0.473113 0.539318 0.255218 -0.147359
C59   C     C_R   0.526932 0.539253 0.744832 -0.147218
C60   C     C_R   0.000172 0.000136 0.314206 0.000068
C61   C     C_R   0.999831 0.000138 0.685800 -0.000046
C62   C     C_R   0.500171 0.500136 0.314206 0.000053
C63   C     C_R   0.499830 0.500137 0.685798 -0.000011
C64   C     C_R   0.027214 0.960950 0.309041 -0.173288
C65   C     C_R   0.972730 0.961039 0.690908 -0.173234
C66   C     C_R   0.527219 0.460958 0.309045 -0.173268
C67   C     C_R   0.500000 0.499993 0.881091 0.777233
C68   C     C_R   0.472742 0.461021 0.690918 -0.173257
C69   C     C_R   0.026641 0.960128 0.244371 -0.171454
C70   C     C_R   0.973303 0.960215 0.755578 -0.171429
C71   C     C_R   0.526646 0.460135 0.244375 -0.171433
C72   C     C_R   0.473315 0.460196 0.755589 -0.171431
C73   C     C_R   0.079934 0.999999 0.079955 0.821712
C74   C     C_R   0.920065 0.999998 0.920043 0.821749
C75   C     C_R   0.579934 0.499999 0.079955 0.821710
C76   C     C_R   0.420066 0.499998 0.920043 0.821739
C77   C     C_R   0.000057 0.000015 0.185843 -0.009467
C78   C     C_3   0.275225 0.025811 0.213788 -0.429464
C79   C     C_R   0.999948 0.000012 0.814166 -0.009378
C80   C     C_R   0.500056 0.500015 0.185842 -0.009470
C81   C     C_R   0.499947 0.500012 0.814164 -0.009400
C82   C     C_R   0.500002 0.185896 0.500002 -0.006787
C83   C     C_R   0.000002 0.685896 0.500001 -0.006768
C84   C     C_R   0.499999 0.881342 0.499999 0.845276
C85   C     C_R   0.999999 0.381342 0.499999 0.845272
C86   C     C_R   0.420036 0.000080 0.420152 0.818132
C87   C     C_R   0.579964 0.000087 0.579849 0.817870
C88   C     C_R   0.920036 0.500080 0.420151 0.818079
C89   C     C_3   0.724753 0.998019 0.791384 -0.428569
C90   C     C_R   0.079964 0.500086 0.579849 0.817903
C91   C     C_R   0.500001 0.119125 0.500002 0.778021
C92   C     C_R   0.000001 0.619125 0.500001 0.778013
C93   C     C_R   0.000000 0.880730 0.500000 0.767572
C94   C     C_R   0.500000 0.380730 0.500000 0.767574
C95   C     C_R   0.000066 0.000006 0.380951 0.799099
C96   C     C_R   0.999934 0.000007 0.619050 0.799124
C97   C     C_R   0.500066 0.500006 0.380951 0.799107
C98   C     C_R   0.499934 0.500007 0.619050 0.799108
C99   C     C_R   1.000000 0.118993 0.500000 0.941510
C100  C     C_3   0.775233 0.519548 0.211514 -0.429143
C101  C     C_R   0.500000 0.618993 0.500001 0.941502
C102  C     C_R   0.528773 0.782218 0.490889 0.061045
C103  C     C_R   0.471221 0.782220 0.509099 0.060925
C104  C     C_R   0.028773 0.282217 0.490887 0.061040
C105  C     C_R   0.971223 0.282220 0.509104 0.060941
C106  C     C_R   0.026960 0.217816 0.486773 0.326988
C107  C     C_R   0.973035 0.217818 0.513219 0.327012
C108  C     C_R   0.526961 0.717816 0.486776 0.326989
C109  C     C_R   0.473033 0.717819 0.513215 0.327012
C110  C     C_3   0.225777 0.934492 0.236716 -0.367908
C111  C     C_3   0.224755 0.501359 0.791404 -0.428614
C112  C     C_3   0.774296 0.944949 0.737130 -0.368555
C113  C     C_3   0.725757 0.435920 0.243204 -0.367949
C114  C     C_3   0.274288 0.443156 0.739935 -0.368447
C115  C     C_R   0.999999 0.185938 0.499998 -0.268788
C116  C     C_R   0.499998 0.685938 0.499998 -0.268791
C117  C     C_R   0.499998 0.814239 0.499996 -0.150540
C118  C     C_R   0.999998 0.314238 0.499997 -0.150542
C119  C     C_R   0.473253 0.217929 0.433680 -0.176536
C120  C     C_R   0.526753 0.217929 0.566323 -0.176433
C121  C     C_R   0.973253 0.717929 0.433679 -0.176517
C122  C     C_3   0.226499 0.025861 0.163341 0.028710
C123  C     C_R   0.026751 0.717929 0.566323 -0.176451
C124  C     C_R   0.972738 0.781920 0.433937 -0.178157
C125  C     C_R   0.027265 0.781920 0.566064 -0.178027
C126  C     C_R   0.472737 0.281920 0.433938 -0.178170
C127  C     C_R   0.527268 0.281921 0.566064 -0.178003
C128  C     C_R   0.000001 0.813957 0.500001 -0.006767
C129  C     C_R   0.500001 0.313957 0.500001 -0.006784
C130  C     C_3   0.224785 0.042166 0.276612 -0.428113
C131  C     C_3   0.775157 0.059850 0.745547 -0.427465
C132  C     C_3   0.724798 0.547141 0.272124 -0.427896
Cl1   Cl    Cl    0.056370 0.177000 0.459938 -0.621775
Cl2   Cl    Cl    0.943623 0.177005 0.540049 -0.621680
Cl3   Cl    Cl    0.556373 0.677000 0.459945 -0.621758
Cl4   Cl    Cl    0.443619 0.677006 0.540041 -0.621687
Cu1   Cu    Cu3+1 0.000000 0.938160 0.000000 0.952478
Cu2   Cu    Cu3+1 0.041320 0.999890 0.541290 0.998960
Cu3   Cu    Cu3+1 0.458680 0.499890 0.458710 0.998624
Cu4   Cu    Cu3+1 0.541320 0.499890 0.541290 0.998949
Cu5   Cu    Cu3+1 0.500000 0.438160 0.000000 0.952498
Cu6   Cu    Cu3+1 0.000000 0.061840 0.000000 0.965488
Cu7   Cu    Cu3+1 0.500000 0.561840 0.000000 0.965465
Cu8   Cu    Cu3+1 0.500000 0.000210 0.561820 0.951362
Cu9   Cu    Cu3+1 0.500000 0.000210 0.438180 0.951715
Cu10  Cu    Cu3+1 0.000000 0.500210 0.561820 0.951438
Cu11  Cu    Cu3+1 0.000000 0.500210 0.438180 0.951656
Cu12  Cu    Cu3+1 0.958680 0.999890 0.458710 0.998609
H1    H     H_    0.286840 0.911937 0.337307 0.172983
H2    H     H_    0.715533 0.900944 0.704743 0.166008
H3    H     H_    0.277559 0.453369 0.934235 0.233557
H4    H     H_    0.784539 0.402761 0.262766 0.165648
H5    H     H_    0.215518 0.400533 0.709719 0.165966
H6    H     H_    0.286815 0.073610 0.218338 0.140537
H7    H     H_    0.713100 0.038571 0.806020 0.141285
H8    H     H_    0.786834 0.566406 0.211329 0.140662
H9    H     H_    0.213108 0.543177 0.803976 0.141164
H10   H     H_    0.952827 0.070860 0.146399 0.139648
H11   H     H_    0.047289 0.070693 0.853726 0.139683
H12   H     H_    0.452816 0.570845 0.146388 0.139661
H13   H     H_    0.713261 0.940801 0.630716 0.173088
H14   H     H_    0.547266 0.570726 0.853701 0.139701
H15   H     H_    0.952244 0.069946 0.259019 0.144394
H16   H     H_    0.047868 0.069785 0.741100 0.144563
H17   H     H_    0.452233 0.569931 0.259008 0.144410
H18   H     H_    0.547846 0.569817 0.741076 0.144534
H19   H     H_    0.048113 0.930351 0.354395 0.138710
H20   H     H_    0.951784 0.930510 0.645508 0.138713
H21   H     H_    0.548122 0.430365 0.354404 0.138719
H22   H     H_    0.451805 0.430477 0.645527 0.138685
H23   H     H_    0.047349 0.929257 0.240418 0.139615
H24   H     H_    0.786817 0.417402 0.345840 0.173036
H25   H     H_    0.952549 0.929413 0.759486 0.139542
H26   H     H_    0.547358 0.429271 0.240427 0.139617
H27   H     H_    0.452570 0.429381 0.759505 0.139545
H28   H     H_    0.452361 0.193420 0.382221 0.138326
H29   H     H_    0.547646 0.193421 0.617782 0.138274
H30   H     H_    0.952363 0.693420 0.382219 0.138304
H31   H     H_    0.047642 0.693421 0.617783 0.138262
H32   H     H_    0.215346 0.918217 0.272498 0.165111
H33   H     H_    0.784746 0.949274 0.698773 0.165026
H34   H     H_    0.715326 0.424350 0.280388 0.165015
H35   H     H_    0.213252 0.436748 0.633785 0.173073
H36   H     H_    0.284737 0.445031 0.701423 0.164967
H37   H     H_    0.951676 0.806424 0.382561 0.138868
H38   H     H_    0.048328 0.806425 0.617440 0.138888
H39   H     H_    0.451673 0.306424 0.382562 0.138888
H40   H     H_    0.548331 0.306425 0.617439 0.138902
H41   H     H_    0.213243 0.090008 0.258257 0.144588
H42   H     H_    0.786656 0.100565 0.783122 0.143169
H43   H     H_    0.713279 0.594066 0.249017 0.144269
H44   H     H_    0.286670 0.600260 0.778086 0.143350
H45   H     H_    0.211512 0.026139 0.308080 0.191188
H46   H     H_    0.213075 0.901334 0.189867 0.172038
H47   H     H_    0.788430 0.063790 0.711446 0.192089
H48   H     H_    0.711512 0.535681 0.304959 0.191439
H49   H     H_    0.288438 0.559853 0.708344 0.192015
H50   H     H_    0.284140 0.090638 0.328477 0.148566
H51   H     H_    0.715758 0.100822 0.713147 0.147685
H52   H     H_    0.784177 0.594597 0.319226 0.148304
H53   H     H_    0.215772 0.600568 0.708100 0.147751
H54   H     H_    0.215920 0.074471 0.147935 0.148687
H55   H     H_    0.783995 0.039639 0.876824 0.147620
H56   H     H_    0.715939 0.567309 0.140814 0.148401
H57   H     H_    0.787034 0.900643 0.767168 0.172505
H58   H     H_    0.284003 0.544235 0.874722 0.147710
H59   H     H_    0.288471 0.997779 0.188672 0.190620
H60   H     H_    0.711553 0.956604 0.801413 0.190614
H61   H     H_    0.788474 0.487832 0.189391 0.190635
H62   H     H_    0.211551 0.461159 0.803480 0.190635
H63   H     H_    0.587903 0.787219 0.498308 0.262283
H64   H     H_    0.547157 0.837371 0.430700 0.243945
H65   H     H_    0.575739 0.853685 0.529482 0.194715
H66   H     H_    0.412087 0.787226 0.501666 0.262304
H67   H     H_    0.452830 0.837381 0.569276 0.243952
H68   H     H_    0.713042 0.399517 0.199843 0.172216
H69   H     H_    0.424253 0.853689 0.470494 0.194773
H70   H     H_    0.087901 0.287218 0.498302 0.262283
H71   H     H_    0.047155 0.337371 0.430695 0.243941
H72   H     H_    0.075739 0.353684 0.529477 0.194732
H73   H     H_    0.912091 0.287225 0.501678 0.262295
H74   H     H_    0.952835 0.337378 0.569287 0.243968
H75   H     H_    0.924256 0.353689 0.470505 0.194758
H76   H     H_    0.324137 0.027338 0.443991 0.243877
H77   H     H_    0.277572 0.059701 0.429951 0.235314
H78   H     H_    0.278762 0.979408 0.411172 0.242351
H79   H     H_    0.287019 0.399772 0.772172 0.172503
H80   H     H_    0.722336 0.117477 0.608564 0.234831
H81   H     H_    0.721200 0.036158 0.592185 0.243054
H82   H     H_    0.675799 0.074580 0.578164 0.242359
H83   H     H_    0.824135 0.539073 0.440662 0.243616
H84   H     H_    0.777599 0.574592 0.423236 0.235236
H85   H     H_    0.778714 0.492707 0.412521 0.242476
H86   H     H_    0.222348 0.611638 0.602819 0.234904
H87   H     H_    0.221202 0.529659 0.590532 0.242949
H88   H     H_    0.175806 0.569603 0.574551 0.242572
H89   H     H_    0.221138 0.942909 0.100200 0.242618
H90   H     H_    0.284572 0.905424 0.253182 0.165544
H91   H     H_    0.175841 0.992526 0.053328 0.238936
H92   H     H_    0.222453 0.014276 0.059598 0.233842
H93   H     H_    0.778963 0.898001 0.865298 0.243090
H94   H     H_    0.824194 0.942537 0.932597 0.240315
H95   H     H_    0.777561 0.945583 0.931695 0.233509
H96   H     H_    0.721128 0.431114 0.106520 0.242726
H97   H     H_    0.675843 0.480327 0.054684 0.239161
H98   H     H_    0.722462 0.497931 0.058986 0.233787
H99   H     H_    0.278956 0.402451 0.870311 0.243049
H100  H     H_    0.324190 0.448037 0.935347 0.240108
O1    O     O_R   0.999990 0.947780 0.090170 -0.587465
O2    O     O_R   0.965100 0.999930 0.555260 -0.562763
O3    O     O_R   0.534900 0.499930 0.444740 -0.562681
O4    O     O_R   0.465100 0.499930 0.555260 -0.562759
O5    O     O_R   0.965090 0.090120 0.465150 -0.548182
O6    O     O_R   0.034910 0.090120 0.534850 -0.548109
O7    O     O_R   0.465090 0.590120 0.465150 -0.548173
O8    O     O_R   0.534910 0.590120 0.534850 -0.548114
O9    O     O_R   0.999990 0.052220 0.090220 -0.581081
O10   O     O_R   0.000010 0.052220 0.909780 -0.581013
O11   O     O_R   0.499990 0.552220 0.090220 -0.581076
O12   O     O_R   0.000010 0.947780 0.909830 -0.587343
O13   O     O_R   0.500010 0.552220 0.909780 -0.581023
O14   O     O_R   0.060280 0.947780 0.060280 -0.580710
O15   O     O_R   0.939720 0.947780 0.939720 -0.580787
O16   O     O_R   0.560280 0.447780 0.060280 -0.580702
O17   O     O_R   0.439720 0.447780 0.939720 -0.580761
O18   O     O_R   0.060280 0.052220 0.060320 -0.578624
O19   O     O_R   0.939720 0.052220 0.939680 -0.578584
O20   O     O_R   0.560280 0.552220 0.060320 -0.578626
O21   O     O_R   0.439720 0.552220 0.939680 -0.578594
O22   O     O_R   0.500000 0.909980 0.552210 -0.584680
O23   O     O_R   0.499990 0.447780 0.090170 -0.587441
O24   O     O_R   0.500000 0.909980 0.447790 -0.584694
O25   O     O_R   0.000000 0.409980 0.552210 -0.584667
O26   O     O_R   0.000000 0.409980 0.447790 -0.584696
O27   O     O_R   0.439710 0.000200 0.491930 -0.581210
O28   O     O_R   0.560290 0.000200 0.508070 -0.580682
O29   O     O_R   0.939710 0.500200 0.491930 -0.581100
O30   O     O_R   0.060290 0.500200 0.508070 -0.580750
O31   O     O_R   0.439720 0.000170 0.387560 -0.580536
O32   O     O_R   0.560280 0.000170 0.612440 -0.580673
O33   O     O_R   0.939720 0.500170 0.387560 -0.580567
O34   O     O_R   0.500010 0.447780 0.909830 -0.587369
O35   O     O_R   0.060280 0.500170 0.612440 -0.580655
O36   O     O_R   0.500000 0.090430 0.552220 -0.585326
O37   O     O_R   0.500000 0.090430 0.447780 -0.585323
O38   O     O_R   0.000000 0.590430 0.552220 -0.585337
O39   O     O_R   0.000000 0.590430 0.447780 -0.585331
O40   O     O_R   0.965130 0.909670 0.465120 -0.593198
O41   O     O_R   0.034870 0.909670 0.534880 -0.593089
O42   O     O_R   0.465130 0.409670 0.465120 -0.593206
O43   O     O_R   0.534870 0.409670 0.534880 -0.593081
O44   O     O_R   0.965120 0.999890 0.374970 -0.601641
O45   O     O_R   0.034880 0.999890 0.625030 -0.601547
O46   O     O_R   0.465120 0.499890 0.374970 -0.601629
O47   O     O_R   0.534880 0.499890 0.625030 -0.601557
O48   O     O_R   0.034900 0.999930 0.444740 -0.562680

loop_
_geom_bond_atom_site_label_1
_geom_bond_atom_site_label_2
_ccdc_geom_bond_type
C6    C32   S    
C1    C77   S    
C94   O42   A    
C82   C120  A    
C12   C130  S    
C36   H93   S    
C126  H39   S    
C15   C44   S    
C63   C98   S    
C89   H7    S    
C19   C113  S    
C9    C39   T    
C37   H97   S    
C85   O26   A    
C10   C40   T    
Cu6   O10   S    
C58   H17   S    
C78   H59   S    
C12   C42   S    
C114  H79   S    
C106  Cl1   S    
C15   C132  S    
C84   C117  S    
Cu10  O29   S    
C34   H92   S    
C88   O29   A    
Cu1   O14   S    
C28   H72   S    
C37   H96   S    
C7    C33   S    
C103  C117  A    
Cu4   O3    S    
C29   H74   S    
C97   O46   A    
C48   C74   S    
C6    C132  S    
C25   C41   S    
C4    C130  S    
C126  C129  A    
C17   C21   S    
C82   C91   S    
C8    C35   T    
C19   C23   S    
C120  H29   S    
C50   C76   S    
C119  H28   S    
C28   C104  S    
C68   C72   A    
C76   O21   A    
C32   H85   S    
C33   H88   S    
C105  C118  A    
C91   O37   A    
Cu10  Cu11  S    
C70   C79   A    
C36   H95   S    
C131  H47   S    
Cu8   Cu9   S    
C93   O40   A    
C53   C58   A    
C14   C131  S    
C57   C61   A    
C21   C35   S    
C93   O41   A    
C59   C63   A    
C90   O30   A    
C106  C115  A    
C60   C64   A    
C86   O27   A    
C55   H15   S    
C7    H53   S    
C95   O48   A    
Cu4   O43   S    
C108  C116  A    
C31   H81   S    
C22   C89   S    
C8    C86   S    
C87   O32   A    
C2    C14   S    
Cu5   O34   S    
C73   O18   A    
C60   C95   S    
C61   C65   A    
Cu12  O40   S    
C26   H64   S    
C18   H2    S    
C54   C81   A    
C26   C102  S    
C14   C43   S    
C6    H52   S    
Cu1   Cu6   S    
C32   H84   S    
C30   H78   S    
C69   C77   A    
C98   O47   A    
C130  H45   S    
C12   C110  S    
C120  C127  A    
C45   O10   A    
C97   O3    A    
C14   C112  S    
C105  C107  A    
C65   H20   S    
C10   C88   S    
C26   H65   S    
C101  O7    A    
C112  H57   S    
C107  Cl2   S    
C18   H13   S    
C1    O1    A    
C65   C70   A    
C100  H61   S    
C72   H27   S    
C96   O45   A    
Cu2   Cu12  S    
C27   H66   S    
C49   C75   S    
C52   C79   A    
C51   C55   A    
Cu11  O39   S    
C4    H50   S    
C23   C100  S    
C34   C122  S    
C31   H80   S    
C29   C105  S    
Cu9   O31   S    
C92   O39   A    
C67   O13   A    
C54   C59   A    
Cu3   Cu4   S    
C20   H5    S    
C62   C66   A    
C53   C80   A    
Cu7   O11   S    
C19   H24   S    
C108  Cl3   S    
C123  H31   S    
C95   O44   A    
C54   H14   S    
C127  C129  A    
C62   C97   S    
C74   O19   A    
C38   H100  S    
C64   C69   A    
C102  C117  A    
C67   C81   S    
C38   H3    S    
C45   O12   A    
C63   C68   A    
C90   O35   A    
C18   C22   S    
C94   O43   A    
C2    H55   S    
Cu6   O18   S    
C16   C114  S    
Cu3   O46   S    
C112  H33   S    
C56   C80   S    
C71   H26   S    
C36   H94   S    
C111  H62   S    
C3    H44   S    
C74   O15   A    
C98   O4    A    
C114  H36   S    
C22   C39   S    
C24   H58   S    
C85   O25   A    
C25   C111  S    
C113  H68   S    
C3    C16   S    
C58   C62   A    
C66   H21   S    
Cu3   O4    S    
C96   O2    A    
Cu4   O47   S    
C104  C106  A    
C5    H51   S    
C29   H73   S    
Cu9   O24   S    
C18   C112  S    
C99   O6    A    
C3    C7    S    
Cu5   Cu7   S    
C99   C115  S    
C123  C125  A    
C20   C25   S    
C23   C40   S    
Cu12  O44   S    
Cu7   O20   S    
C69   H23   S    
C109  C116  A    
C68   H22   S    
C21   C78   S    
Cu9   O37   S    
C104  C118  A    
C72   C81   A    
C33   H87   S    
C124  C128  A    
C17   H90   S    
C100  H8    S    
Cu7   O21   S    
C55   C60   A    
C88   O33   A    
C27   H67   S    
C82   C119  A    
Cu2   O45   S    
C1    O9    A    
C75   O20   A    
C61   C96   S    
Cu9   O28   S    
C47   C73   S    
C92   O38   A    
C16   C46   S    
C78   H6    S    
C37   H98   S    
Cu6   O9    S    
C2    C89   S    
Cu3   O7    S    
C51   C77   A    
C66   C71   A    
C127  H40   S    
C45   C79   S    
C34   H91   S    
C20   H35   S    
Cu1   O15   S    
C27   H69   S    
C28   H71   S    
C56   O11   A    
Cu11  O30   S    
C131  H42   S    
C29   H75   S    
C75   O16   A    
C53   H12   S    
Cu1   O1    S    
Cu2   O41   S    
C51   H10   S    
C7    C25   S    
C13   H56   S    
C84   O22   A    
C103  C109  A    
C122  H54   S    
C111  H9    S    
C20   C114  S    
C27   C103  S    
Cu5   O23   S    
C85   C118  S    
C93   C128  S    
C52   C57   A    
C5    C131  S    
C12   C122  S    
C101  C116  S    
C83   C123  A    
Cu2   O6    S    
C56   O23   A    
Cu3   O42   S    
C9    C87   S    
C44   C49   T    
Cu8   O22   S    
Cu10  O25   S    
C17   C110  S    
C83   C92   S    
Cu8   O27   S    
C124  H37   S    
Cu11  O33   S    
C89   H60   S    
C6    C23   S    
C31   H82   S    
C34   H89   S    
C121  C124  A    
C5    C22   S    
Cu8   O36   S    
C125  C128  A    
C24   C38   S    
C102  C108  A    
C26   H63   S    
Cu4   O8    S    
C43   C48   T    
C13   C37   S    
C130  H41   S    
C52   H11   S    
C32   H83   S    
Cu12  O5    S    
C16   C24   S    
C76   O17   A    
C109  Cl4   S    
C30   H77   S    
C24   C111  S    
C67   O34   A    
C71   C80   A    
C94   C129  S    
C84   O24   A    
C101  O8    A    
Cu6   O19   S    
Cu2   O48   S    
C30   H76   S    
C125  H38   S    
Cu5   O17   S    
C110  H46   S    
Cu10  O38   S    
C113  H34   S    
C110  H32   S    
C15   C113  S    
C19   H4    S    
C91   O36   A    
Cu8   O32   S    
C86   O31   A    
C83   C121  A    
C132  H43   S    
C107  C115  A    
C59   H18   S    
Cu7   O13   S    
C13   C15   S    
Cu5   O16   S    
C87   O28   A    
C73   O14   A    
Cu1   O12   S    
C2    C36   S    
C28   H70   S    
C17   H1    S    
C121  H30   S    
C46   C50   T    
Cu12  O2    S    
C13   C100  S    
C99   O5    A    
C4    C21   S    
C11   C90   S    
C57   H16   S    
C38   H99   S    
C3    H49   S    
C11   C41   T    
C42   C47   T    
C78   C122  S    
C70   H25   S    
Cu11  O26   S    
C33   H86   S    
C64   H19   S    
C132  H48   S    
C119  C126  A    
C4    C30   S    
Cu10  O35   S    
C5    C31   S    
