data_mof_unit_39900.cif
_audit_creation_date              2012-12-10T17:39:18-0500
_audit_creation_method            fapswitch 2.2
_symmetry_space_group_name_H-M    P1
_symmetry_Int_Tables_number       1
_space_group_crystal_system       triclinic
_cell_length_a                    12.426531
_cell_length_b                    13.195567
_cell_length_c                    27.764729
_cell_angle_alpha                 75.179586
_cell_angle_beta                  101.736452
_cell_angle_gamma                 117.393399
_cell_volume                      3888.20826203

loop_
_atom_site_label
_atom_site_type_symbol
_atom_type_description
_atom_site_fract_x
_atom_site_fract_y
_atom_site_fract_z
_atom_type_partial_charge
C1    C     C_R   0.855725 0.287683 0.500906 0.819207
C2    C     C_R   0.901607 0.499414 0.712445 -0.124387
C3    C     C_R   0.996531 0.489729 0.747375 0.363450
C4    C     C_R   0.996128 0.490897 0.898998 -0.050589
C5    C     C_R   0.973530 0.387991 0.884143 -0.017817
C6    C     C_R   0.952411 0.286766 0.920234 -0.169684
C7    C     C_R   0.019449 0.593423 0.862936 -0.014889
C8    C     C_R   0.998629 0.495004 0.645897 -0.036576
C9    C     C_R   0.998242 0.499111 0.354496 -0.099762
C10   C     C_R   0.945041 0.384663 0.034649 -0.014925
C11   C     C_R   0.047833 0.599504 0.017282 -0.054837
C12   C     C_R   0.999741 0.498674 0.592522 0.833512
C13   C     C_R   0.996640 0.492533 0.051262 -0.038220
C14   C     C_R   0.878104 0.280436 0.067646 0.421729
C15   C     C_R   0.875502 0.285240 0.117462 -0.239376
C16   C     C_R   0.937426 0.389601 0.135244 -0.057758
C17   C     C_R   0.996823 0.493692 0.102116 -0.049134
C18   C     C_R   0.055295 0.599213 0.119857 -0.081262
C19   C     C_R   0.053920 0.598435 0.170365 0.618074
C20   C     C_R   0.937809 0.392748 0.185484 0.619918
C21   C     C_R   0.901386 0.506553 0.269130 0.185673
C22   C     C_R   0.902397 0.507198 0.319392 -0.213224
C23   C     C_R   0.145712 0.714804 0.493470 0.824460
C24   C     C_R   0.092964 0.489570 0.338580 -0.227439
C25   C     C_R   0.092400 0.488471 0.288452 0.181691
C26   C     C_R   0.996526 0.497107 0.253473 0.256054
C27   C     C_R   0.960858 0.385773 0.985168 0.062490
C28   C     C_R   0.995805 0.491378 0.949970 0.058461
C29   C     C_R   0.031214 0.597573 0.965335 0.044026
C30   C     C_R   0.947264 0.286001 0.969939 -0.142664
C31   C     C_R   0.041275 0.695417 0.877760 -0.178606
C32   C     C_R   0.116242 0.703647 0.037001 0.410916
C33   C     C_R   0.116055 0.702684 0.087295 -0.204696
C34   C     C_R   0.999547 0.500024 0.407558 0.823285
C35   C     C_R   0.046384 0.697366 0.928048 -0.163189
C36   C     C_R   0.279617 0.043647 0.452990 -0.200820
C37   C     C_R   0.231398 0.839749 0.484287 -0.110761
C38   C     C_R   0.818262 0.080866 0.516273 -0.210624
C39   C     C_R   0.741787 0.963038 0.518410 0.526082
C40   C     C_R   0.618368 0.929178 0.500129 -0.310889
C41   C     C_R   0.570537 0.011976 0.481328 0.047038
C42   C     C_R   0.653042 0.131100 0.472853 0.058993
C43   C     C_R   0.443142 0.981161 0.472925 0.102954
C44   C     C_R   0.402194 0.068886 0.453268 0.108940
C45   C     C_R   0.974860 0.389600 0.833509 0.535832
C46   C     C_R   0.485119 0.181876 0.435780 -0.219931
C47   C     C_R   0.609102 0.211806 0.443940 -0.170496
C48   C     C_R   0.355581 0.867147 0.486834 -0.281569
C49   C     C_R   0.195254 0.931153 0.470770 0.184928
C50   C     C_R   0.775224 0.165767 0.495181 -0.202580
C51   C     C_R   0.367308 0.372049 0.593959 -0.276868
C52   C     C_R   0.752544 0.641838 0.428993 0.368104
C53   C     C_R   0.653918 0.669063 0.413721 -0.212990
C54   C     C_R   0.554907 0.616715 0.440980 -0.208291
C55   C     C_R   0.552001 0.535652 0.485070 -0.075713
C56   C     C_R   0.018722 0.590906 0.812655 0.535829
C57   C     C_R   0.654593 0.507227 0.500927 0.150694
C58   C     C_R   0.450480 0.483568 0.514395 -0.031494
C59   C     C_R   0.462377 0.423200 0.563362 0.101764
C60   C     C_R   0.566511 0.407986 0.580854 -0.388338
C61   C     C_R   0.646674 0.425304 0.547614 0.451115
C62   C     C_R   0.337933 0.490655 0.498026 0.034842
C63   C     C_R   0.258544 0.378958 0.575363 0.085120
C64   C     C_R   0.091941 0.481459 0.731688 -0.103086
C65   C     C_R   0.093110 0.484079 0.681239 -0.230378
C66   C     C_R   0.902412 0.501652 0.662087 -0.209426
Cu1   Cu    Cu3+1 0.098270 0.475420 0.511360 0.944479
Cu2   Cu    Cu3+1 0.901730 0.524580 0.488640 1.006247
H1    H     H_    0.827475 0.508039 0.635940 0.174049
H2    H     H_    0.165673 0.474084 0.758563 0.139950
H3    H     H_    0.054832 0.774447 0.850557 0.190274
H4    H     H_    0.167874 0.483223 0.364954 0.177437
H5    H     H_    0.166367 0.783893 0.100830 0.206810
H6    H     H_    0.057471 0.777009 0.936687 0.206442
H7    H     H_    0.454415 0.248305 0.417299 0.162505
H8    H     H_    0.250472 0.112838 0.441133 0.165662
H9    H     H_    0.827233 0.505210 0.724388 0.137893
H10   H     H_    0.382745 0.797822 0.501077 0.166760
H11   H     H_    0.911979 0.105632 0.532265 0.186337
H12   H     H_    0.562323 0.838549 0.499761 0.123768
H13   H     H_    0.669294 0.299428 0.428224 0.178511
H14   H     H_    0.184939 0.340600 0.598931 0.127524
H15   H     H_    0.577208 0.366563 0.619519 0.162217
H16   H     H_    0.376196 0.325018 0.631632 0.141496
H17   H     H_    0.321103 0.537357 0.461612 0.120250
H18   H     H_    0.940087 0.207630 0.910279 0.186817
H19   H     H_    0.483595 0.645014 0.427596 0.151576
H20   H     H_    0.654236 0.732991 0.380236 0.180881
H21   H     H_    0.827865 0.513575 0.330869 0.191842
H22   H     H_    0.821398 0.207733 0.142242 0.185818
H23   H     H_    0.938593 0.207837 0.996454 0.180715
H24   H     H_    0.168259 0.478344 0.669931 0.156508
N1    N     N_R   0.996821 0.490023 0.798993 -0.469131
N2    N     N_R   0.995817 0.496111 0.201920 -0.453207
N3    N     N_R   0.246290 0.438210 0.528570 -0.185372
N4    N     N_R   0.754320 0.561170 0.471730 -0.217415
O1    O     O_R   0.972510 0.318140 0.514280 -0.581687
O2    O     O_2   0.881146 0.293481 0.217752 -0.513518
O3    O     O_2   0.040784 0.688637 0.777728 -0.541721
O4    O     O_2   0.110075 0.698889 0.187895 -0.513568
O5    O     O_R   0.806530 0.359640 0.495100 -0.540937
O6    O     O_R   0.082990 0.479270 0.579320 -0.605643
O7    O     O_R   0.917010 0.520770 0.560140 -0.527925
O8    O     O_R   0.193470 0.640360 0.504900 -0.593980
O9    O     O_R   0.027490 0.681860 0.485720 -0.535878
O10   O     O_R   0.082990 0.479230 0.439860 -0.590371
O11   O     O_R   0.917010 0.520730 0.420680 -0.581629
O12   O     O_2   0.953274 0.291516 0.818776 -0.541749
O13   O     O_3   0.188840 0.807160 0.008503 -0.594890
C67   C     C_3   0.301979 0.806978 0.007600 0.054133
H25   H     H_    0.290035 0.730875 0.992963 0.151628
H26   H     H_    0.351769 0.805826 0.045800 0.158229
C68   C     C_3   0.379063 0.916651 0.973234 -0.735896
H27   H     H_    0.396774 0.994575 0.987682 0.260486
H28   H     H_    0.467372 0.916492 0.971361 0.199351
H29   H     H_    0.330835 0.920499 0.934926 0.249005
I1    I     I_    0.238046 0.473440 0.267163 -0.301467
I2    I     I_    0.024574 0.915008 0.482922 -0.286166
O14   O     O_3   0.793469 0.885144 0.537088 -0.552086
C69   C     C_3   0.715781 0.781778 0.566517 0.064496
H30   H     H_    0.646513 0.721974 0.542130 0.157366
H31   H     H_    0.670132 0.799740 0.591849 0.131120
C70   C     C_3   0.790606 0.720243 0.598724 -0.728260
H32   H     H_    0.862944 0.777633 0.623241 0.259743
H33   H     H_    0.730476 0.639861 0.622515 0.185421
H34   H     H_    0.833398 0.696669 0.574544 0.263582
I3    I     I_    0.893220 0.739056 0.380357 -0.275289
O15   O     O_3   0.718871 0.366497 0.563388 -0.539225
C71   C     C_3   0.651598 0.244561 0.579332 0.063303
H35   H     H_    0.620780 0.201298 0.546702 0.169485
H36   H     H_    0.568286 0.217087 0.597449 0.131404
C72   C     C_3   0.733262 0.197401 0.616733 -0.788262
H37   H     H_    0.818490 0.221230 0.600800 0.239655
H38   H     H_    0.757177 0.234140 0.651294 0.250884
H39   H     H_    0.684919 0.101250 0.626531 0.207751
I4    I     I_    0.754721 0.520279 0.218044 -0.280675
O16   O     O_3   0.798291 0.180995 0.048238 -0.581092
C73   C     C_3   0.803685 0.079416 0.079043 0.044167
H40   H     H_    0.748123 0.049218 0.110920 0.172134
H41   H     H_    0.899256 0.093646 0.093311 0.149036
C74   C     C_3   0.749182 0.982472 0.048874 -0.755559
H42   H     H_    0.802037 0.006875 0.016670 0.236077
H43   H     H_    0.751037 0.901845 0.073021 0.219594
H44   H     H_    0.653262 0.965205 0.034710 0.249891

loop_
_geom_bond_atom_site_label_1
_geom_bond_atom_site_label_2
_ccdc_geom_bond_type
C10   C27   A    
C58   C62   A    
C65   H24   S    
C21   C26   A    
C35   H6    S    
C26   N2    S    
C41   C42   A    
Cu2   O7    S    
C45   N1    A    
O15   C71   S    
C70   H32   S    
C53   C54   A    
C52   C53   A    
C8    C66   A    
Cu2   N4    S    
C5    C6    A    
C34   O11   A    
C21   C22   A    
C28   C29   A    
C68   H27   S    
C74   H43   S    
C38   C39   A    
C60   H15   S    
C9    C22   A    
C70   H33   S    
C66   H1    S    
C38   H11   S    
C15   C16   A    
C23   O9    A    
C63   N3    A    
C18   C19   A    
C48   H10   S    
Cu1   O10   S    
C67   H25   S    
C36   H8    S    
C54   C55   A    
C49   I2    S    
C44   C46   A    
C72   H37   S    
C57   N4    A    
C40   H12   S    
Cu2   O11   S    
C64   H2    S    
C61   O15   S    
C43   C48   A    
C21   I4    S    
C45   O12   S    
C8    C12   S    
C68   H29   S    
C31   H3    S    
C59   C60   A    
C62   N3    A    
C27   C30   A    
Cu1   N3    S    
C41   C43   A    
C7    C56   A    
C4    C7    A    
C46   H7    S    
C4    C28   A    
C52   I3    S    
C69   H31   S    
Cu1   O8    S    
C56   N1    A    
C62   H17   S    
C7    C31   A    
C32   O13   S    
C63   H14   S    
Cu1   Cu2   S    
C34   O10   A    
C51   C63   A    
Cu2   O5    S    
C12   O7    A    
C10   C14   A    
C74   H44   S    
C1    O1    A    
C39   C40   A    
C16   C17   A    
C70   H34   S    
C58   C59   A    
C23   C37   S    
C5    C45   A    
C73   C74   S    
C60   C61   A    
C43   C44   A    
C12   O6    A    
C37   C49   A    
C23   O8    A    
C14   O16   S    
C16   C20   A    
C17   C18   A    
C3    N1    S    
C24   C25   A    
C37   C48   A    
C67   C68   S    
C19   N2    A    
C73   H41   S    
C42   C50   A    
C33   H5    S    
C40   C41   A    
C6    C30   A    
C11   C32   A    
C55   C57   A    
C9    C34   S    
C31   C35   A    
C36   C44   A    
C51   C59   A    
Cu2   O9    S    
C1    O5    A    
C69   H30   S    
C24   H4    S    
C71   H35   S    
C1    C50   S    
C20   N2    A    
C46   C47   A    
C30   H23   S    
C2    C66   A    
C10   C13   A    
C25   I1    S    
O14   C69   S    
C69   C70   S    
C9    C24   A    
C57   C61   A    
C38   C50   A    
O16   C73   S    
C29   C35   A    
C6    H18   S    
C13   C17   A    
C32   C33   A    
C71   C72   S    
C2    C3    A    
C25   C26   A    
C2    H9    S    
C74   H42   S    
C64   C65   A    
C15   H22   S    
C11   C13   A    
C54   H19   S    
C72   H39   S    
C39   O14   S    
C4    C5    A    
C22   H21   S    
C52   N4    A    
C53   H20   S    
C42   C47   A    
C47   H13   S    
C3    C64   A    
C18   C33   A    
C67   H26   S    
C73   H40   S    
Cu1   O1    S    
C8    C65   A    
C20   O2    S    
C11   C29   A    
C72   H38   S    
C55   C58   A    
C27   C28   A    
C14   C15   A    
C56   O3    S    
C68   H28   S    
O13   C67   S    
C19   O4    S    
C51   H16   S    
C36   C49   A    
Cu1   O6    S    
C71   H36   S    
