data_mof_unit_46867.cif
_audit_creation_date              2012-12-10T19:42:53-0500
_audit_creation_method            fapswitch 2.2
_symmetry_space_group_name_H-M    P1
_symmetry_Int_Tables_number       1
_space_group_crystal_system       triclinic
_cell_length_a                    10.904614
_cell_length_b                    13.171914
_cell_length_c                    11.82681
_cell_angle_alpha                 95.764621
_cell_angle_beta                  95.258283
_cell_angle_gamma                 94.456026
_cell_volume                      1676.54992944

loop_
_atom_site_label
_atom_site_type_symbol
_atom_type_description
_atom_site_fract_x
_atom_site_fract_y
_atom_site_fract_z
_atom_type_partial_charge
C1    C     C_R   0.499327 0.300330 0.482559 0.846257
C2    C     C_R   0.500511 0.699694 0.517593 0.836943
C3    C     C_R   0.874629 0.516936 0.506531 -0.242361
C4    C     C_R   0.125270 0.486581 0.493175 -0.242076
C5    C     C_R   0.946686 0.488834 0.601929 -0.146603
C6    C     C_R   0.053461 0.515205 0.397816 -0.161612
C7    C     C_R   0.491877 0.810770 0.523321 -0.165836
C8    C     C_R   0.508151 0.189366 0.477539 -0.166518
C9    C     C_R   0.582071 0.040968 0.377792 0.435502
C10   C     C_R   0.417592 0.959030 0.623231 0.405644
C11   C     C_R   0.559475 0.143143 0.384345 -0.282776
C12   C     C_R   0.441151 0.856991 0.617009 -0.237690
C13   C     C_R   0.476649 0.130388 0.565772 0.125397
C14   C     C_R   0.522456 0.869808 0.435003 0.116774
C15   C     C_R   0.472064 0.022927 0.547924 -0.032396
C16   C     C_R   0.527629 0.977222 0.453182 -0.030786
C17   C     C_R   0.423906 0.373532 0.029228 0.242612
C18   C     C_R   0.561063 0.627856 0.969631 0.287510
C19   C     C_R   0.418241 0.393375 0.149168 0.244444
C20   C     C_R   0.576760 0.607956 0.852346 0.266170
C21   C     C_R   0.522429 0.557626 0.152207 0.100962
C22   C     C_R   0.474705 0.442265 0.846590 0.102855
C23   C     C_R   0.261553 0.493476 0.497827 0.877943
C24   C     C_R   0.738358 0.507906 0.502087 0.868772
C25   C     C_R   0.518281 0.547221 0.030560 -0.154205
C26   C     C_R   0.473336 0.452636 0.968323 -0.125075
C27   C     C_R   0.163383 0.520892 0.102563 -0.193601
C28   C     C_R   0.829564 0.484405 0.894753 -0.230170
C29   C     C_R   0.152805 0.548831 0.218327 0.008840
C30   C     C_R   0.846764 0.454225 0.780924 0.006084
C31   C     C_R   0.082152 0.484161 0.279757 0.148246
C32   C     C_R   0.917352 0.519394 0.719943 0.105341
C33   C     C_R   0.024209 0.391141 0.224439 -0.204962
C34   C     C_R   0.969894 0.614591 0.774221 -0.212296
C35   C     C_R   0.034719 0.363060 0.108939 0.335608
C36   C     C_R   0.952043 0.645070 0.887713 0.408768
C37   C     C_R   0.103856 0.428631 0.047932 -0.184512
C38   C     C_R   0.882366 0.579357 0.948023 -0.212667
C39   C     C_R   0.932730 0.540646 0.409515 0.343612
C40   C     C_R   0.067000 0.463128 0.589961 0.345012
Cu1   Cu    Cu3+1 0.509250 0.507730 0.615930 1.005210
Cu2   Cu    Cu3+1 0.490750 0.492270 0.384070 1.011016
H1    H     H_    0.112502 0.407630 0.958833 0.260920
H2    H     H_    0.867257 0.602607 0.035262 0.270104
H3    H     H_    0.435957 0.373559 0.795442 0.205673
H4    H     H_    0.564562 0.626304 0.201871 0.204573
H5    H     H_    0.217529 0.570770 0.055023 0.209208
H6    H     H_    0.774156 0.434799 0.941455 0.205519
H7    H     H_    0.197376 0.621230 0.259354 0.151052
H8    H     H_    0.805368 0.380585 0.740483 0.165615
H9    H     H_    0.968742 0.341313 0.271224 0.169703
H10   H     H_    0.025136 0.664909 0.727814 0.186314
H11   H     H_    0.407526 0.810458 0.680117 0.203073
H12   H     H_    0.593376 0.189631 0.321328 0.181080
N1    N     N_R   0.523180 0.519350 0.790130 -0.241292
N2    N     N_R   0.476820 0.480650 0.209870 -0.212960
O1    O     O_R   0.506570 0.354460 0.582000 -0.613658
O2    O     O_R   0.493430 0.645540 0.418000 -0.616701
O3    O     O_R   0.490940 0.341410 0.386200 -0.571218
O4    O     O_R   0.509060 0.658590 0.613800 -0.555624
O5    O     O_R   0.327460 0.506540 0.597900 -0.514383
O6    O     O_R   0.672540 0.493460 0.402100 -0.514232
O7    O     O_R   0.311830 0.493480 0.402100 -0.588113
O8    O     O_R   0.688170 0.506520 0.597900 -0.627948
N3    N     N_3   0.651476 0.680493 0.799271 -0.476344
H13   H     H_    0.721414 0.716469 0.859374 0.229170
H14   H     H_    0.702091 0.640077 0.742813 0.239695
N4    N     N_3   0.345973 0.324597 0.207888 -0.498020
H15   H     H_    0.258263 0.308332 0.164208 0.224322
H16   H     H_    0.389360 0.257013 0.211526 0.278603
S1    S     S_3+6 0.382006 0.248111 0.958345 0.044079
O9    O     O_2   0.285583 0.253105 0.860428 -0.196320
O10   O     O_2   0.496925 0.211644 0.913167 -0.226458
O11   O     O_3   0.328581 0.159973 0.039640 -0.475926
H17   H     H_    0.237656 0.152549 0.021585 0.409555
S2    S     S_3+6 0.575865 0.756247 0.033300 0.062391
O12   O     O_2   0.460935 0.774851 0.090042 -0.244370
O13   O     O_2   0.686348 0.770603 0.120910 -0.205732
O14   O     O_3   0.589969 0.842301 0.937937 -0.449834
H18   H     H_    0.672668 0.879643 0.958586 0.407203
S3    S     S_3+6 0.964035 0.244161 0.043523 0.046035
O15   O     O_2   0.017597 0.214596 0.933708 -0.160645
O16   O     O_2   0.984985 0.163136 0.122288 -0.245074
O17   O     O_3   0.811190 0.251808 0.015890 -0.480064
H19   H     H_    0.784785 0.285931 0.087027 0.329793
S4    S     S_3+6 0.013834 0.766821 0.952011 0.041210
O18   O     O_2   0.148418 0.762446 0.990208 -0.256102
O19   O     O_2   0.000928 0.843363 0.866553 -0.230930
O20   O     O_3   0.938814 0.803241 0.065133 -0.439555
H20   H     H_    0.977408 0.872611 0.094255 0.416752
S5    S     S_3+6 0.862437 0.614478 0.308251 0.026530
O21   O     O_2   0.793475 0.543191 0.212359 -0.318676
O22   O     O_2   0.774627 0.680985 0.363959 -0.293710
O23   O     O_3   0.968976 0.690578 0.255620 -0.466006
H21   H     H_    0.008771 0.736579 0.322505 0.363157
S6    S     S_3+6 0.134812 0.385721 0.688037 0.038967
O24   O     O_2   0.221387 0.319364 0.630208 -0.292990
O25   O     O_2   0.204521 0.454017 0.786010 -0.296245
O26   O     O_3   0.026222 0.309148 0.737143 -0.454994
H22   H     H_    0.986844 0.264736 0.668838 0.366600
N5    N     N_3   0.528706 0.822403 0.322218 -0.432915
H23   H     H_    0.444428 0.779447 0.296092 0.247441
H24   H     H_    0.599910 0.774553 0.323653 0.309520
N6    N     N_3   0.466391 0.177930 0.677807 -0.437240
H25   H     H_    0.549963 0.220762 0.707360 0.245891
H26   H     H_    0.395160 0.225653 0.673742 0.309550
S7    S     S_3+6 0.694938 0.005506 0.286196 0.102264
O27   O     O_2   0.764357 0.919883 0.327342 -0.180218
O28   O     O_2   0.632035 0.973912 0.168313 -0.176230
O29   O     O_3   0.797736 0.106775 0.281463 -0.491433
H27   H     H_    0.764532 0.142484 0.217055 0.369128
S8    S     S_3+6 0.301572 0.993340 0.712026 0.122409
O30   O     O_2   0.360653 0.026106 0.831014 -0.137641
O31   O     O_2   0.231696 0.077838 0.668659 -0.173475
O32   O     O_3   0.199922 0.890907 0.715071 -0.485744
H28   H     H_    0.231361 0.856279 0.781061 0.386542

loop_
_geom_bond_atom_site_label_1
_geom_bond_atom_site_label_2
_ccdc_geom_bond_type
C19   N2    A    
N5    H23   S    
C27   C29   A    
C1    C8    S    
Cu1   Cu2   S    
C2    C7    S    
S2    O14   S    
Cu1   O5    S    
Cu2   O2    S    
N6    H26   S    
S3    O15   D    
C35   S3    S    
C29   H7    S    
C8    C13   A    
C17   C26   A    
C35   C37   A    
C9    C16   A    
S2    O13   D    
C10   C15   A    
C1    O3    A    
C2    O4    A    
C15   C16   A    
S6    O26   S    
C39   S5    S    
O29   H27   S    
S8    O30   D    
Cu2   N2    S    
C7    C14   A    
Cu1   N1    S    
C4    C40   A    
N4    H15   S    
N3    H14   S    
S6    O25   D    
C18   S2    S    
S7    O27   D    
C31   C33   A    
C10   S8    S    
Cu2   O6    S    
C18   C20   A    
C12   H11   S    
C5    C32   S    
C23   O7    A    
C6    C31   S    
C30   H8    S    
C3    C39   A    
N5    H24   S    
S7    O28   D    
C21   N2    A    
C3    C24   S    
C18   C25   A    
C40   S6    S    
C20   N1    A    
S8    O31   D    
N6    H25   S    
S3    O16   D    
C7    C12   A    
O11   H17   S    
S4    O19   D    
C20   N3    S    
S2    O12   D    
C4    C6    A    
S5    O21   D    
S1    O10   D    
C4    C23   S    
S4    O18   D    
C17   C19   A    
C14   N5    S    
C36   S4    S    
C25   C26   A    
C32   C34   A    
C37   H1    S    
C38   H2    S    
C1    O1    A    
S5    O22   D    
O26   H22   S    
C28   C38   A    
S6    O24   D    
C19   N4    S    
O17   H19   S    
C13   N6    S    
C9    C11   A    
C11   H12   S    
C10   C12   A    
N4    H16   S    
C17   S1    S    
C13   C15   A    
S7    O29   S    
C14   C16   A    
C9    S7    S    
S3    O17   S    
C21   H4    S    
C27   H5    S    
C21   C25   A    
C28   H6    S    
C24   O6    A    
Cu1   O4    S    
C3    C5    A    
S4    O20   S    
Cu2   O3    S    
S1    O11   S    
C2    O2    A    
C22   N1    A    
C33   H9    S    
C34   H10   S    
C28   C30   A    
Cu1   O1    S    
S1    O9    D    
C29   C31   A    
S5    O23   S    
C30   C32   A    
C27   C37   A    
C8    C11   A    
C36   C38   A    
C33   C35   A    
C34   C36   A    
O23   H21   S    
O14   H18   S    
C23   O5    A    
C22   H3    S    
C24   O8    A    
N3    H13   S    
C22   C26   A    
C5    C40   A    
C6    C39   A    
Cu1   O8    S    
O20   H20   S    
Cu2   O7    S    
S8    O32   S    
O32   H28   S    
