data_mof_unit_53889.cif
_audit_creation_date              2012-12-10T18:44:03-0500
_audit_creation_method            fapswitch 2.2
_symmetry_space_group_name_H-M    P1
_symmetry_Int_Tables_number       1
_space_group_crystal_system       triclinic
_cell_length_a                    18.202213
_cell_length_b                    18.12936
_cell_length_c                    22.122417
_cell_angle_alpha                 114.133495
_cell_angle_beta                  114.247296
_cell_angle_gamma                 90.051647
_cell_volume                      5948.14340977

loop_
_atom_site_label
_atom_site_type_symbol
_atom_type_description
_atom_site_fract_x
_atom_site_fract_y
_atom_site_fract_z
_atom_type_partial_charge
C1    C     C_R   0.349651 0.349624 0.699322 0.824136
C2    C     C_1   0.889235 0.889304 0.778691 -0.134894
C3    C     C_3   0.083411 0.017859 0.024431 -0.497099
C4    C     C_3   0.916589 0.982140 0.975568 -0.497099
C5    C     C_3   0.037665 0.036843 0.073474 -0.084086
C6    C     C_3   0.962335 0.963157 0.926526 -0.084086
C7    C     C_1   0.077692 0.077363 0.154580 0.086806
C8    C     C_1   0.922308 0.922637 0.845420 0.086806
C9    C     C_3   0.076335 0.543420 0.548329 0.036533
C10   C     C_3   0.923665 0.456580 0.451671 0.036533
C11   C     C_3   0.004855 0.539473 0.567651 0.068531
C12   C     C_R   0.650349 0.650376 0.300678 0.824134
C13   C     C_3   0.995145 0.460527 0.432349 0.068531
C14   C     C_3   0.947239 0.551253 0.499475 -0.065612
C15   C     C_3   0.052760 0.448747 0.500525 -0.065612
C16   C     C_R   0.150344 0.150351 0.300682 0.806792
C17   C     C_R   0.849656 0.849649 0.699318 0.806793
C18   C     C_3   0.019152 0.554651 0.480122 0.034396
C19   C     C_3   0.980848 0.445349 0.519878 0.034396
C20   C     C_3   0.577555 0.540811 0.024359 -0.276772
C21   C     C_3   0.422445 0.459189 0.975641 -0.276771
C22   C     C_3   0.542499 0.446891 0.975180 0.089210
C23   C     C_3   0.562272 0.540404 0.567875 -0.083850
C24   C     C_3   0.457501 0.553109 0.024820 0.089210
C25   C     C_1   0.388881 0.389107 0.778468 -0.129829
C26   C     C_1   0.611119 0.610893 0.221532 -0.129829
C27   C     C_3   0.495274 0.555688 0.975181 0.127905
C28   C     C_3   0.504726 0.444312 0.024819 0.127906
C29   C     C_3   0.461801 0.462426 0.925938 0.113621
C30   C     C_3   0.538199 0.537573 0.074062 0.113621
C31   C     C_1   0.421804 0.422230 0.845064 -0.029263
C32   C     C_1   0.578196 0.577770 0.154936 -0.029263
C33   C     C_3   0.075992 0.007502 0.551356 0.454224
C34   C     C_3   0.437728 0.459596 0.432124 -0.083855
C35   C     C_3   0.924008 0.992498 0.448644 0.454223
C36   C     C_3   0.022041 0.926112 0.482888 0.403099
C37   C     C_3   0.977959 0.073888 0.517112 0.403099
C38   C     C_3   0.947848 0.948415 0.499251 -0.258410
C39   C     C_3   0.052152 0.051585 0.500749 -0.258411
C40   C     C_R   0.391827 0.108731 0.500375 0.917726
C41   C     C_R   0.608173 0.891269 0.499625 0.917725
C42   C     C_3   0.002281 0.030169 0.567162 -0.155522
C43   C     C_3   0.997719 0.969831 0.432838 -0.155523
C44   C     C_3   0.478646 0.011301 0.554123 0.423841
C45   C     C_3   0.017606 0.050110 0.975513 0.488961
C46   C     C_3   0.521354 0.988699 0.445877 0.423841
C47   C     C_3   0.566868 0.032114 0.565919 -0.162886
C48   C     C_3   0.433132 0.967886 0.434081 -0.162886
C49   C     C_3   0.551267 0.948246 0.499247 -0.259773
C50   C     C_3   0.448733 0.051754 0.500753 -0.259773
C51   C     C_3   0.461982 0.927759 0.486919 0.436275
C52   C     C_3   0.538019 0.072242 0.513081 0.436276
C53   C     C_R   0.108807 0.391570 0.500093 0.848173
C54   C     C_R   0.891193 0.608430 0.499907 0.848171
C55   C     C_R   0.108655 0.108589 0.500328 0.910161
C56   C     C_3   0.982394 0.949890 0.024487 0.488961
C57   C     C_R   0.891345 0.891410 0.499671 0.910160
C58   C     C_R   0.391500 0.391604 0.500215 0.895086
C59   C     C_R   0.608500 0.608396 0.499785 0.895087
C60   C     C_3   0.471551 0.543727 0.548014 -0.049469
C61   C     C_3   0.528449 0.456272 0.451986 -0.049471
C62   C     C_3   0.459964 0.554063 0.479082 0.550919
C63   C     C_3   0.540035 0.445936 0.520918 0.550918
C64   C     C_3   0.551667 0.551116 0.499173 -0.161822
C65   C     C_3   0.448333 0.448884 0.500826 -0.161820
C66   C     C_3   0.342190 0.607439 0.449322 -0.257592
C67   C     C_3   0.973073 0.069101 0.024363 0.490235
C68   C     C_3   0.657807 0.392556 0.550672 -0.257572
C69   C     C_3   0.106390 0.839350 0.449591 -0.331491
C70   C     C_3   0.893609 0.160650 0.550407 -0.331483
C71   C     C_3   0.162394 0.976381 0.644607 -0.236163
C72   C     C_3   0.837607 0.023616 0.355391 -0.236159
C73   C     C_3   0.490903 0.987259 0.652587 -0.274959
C74   C     C_3   0.509097 0.012741 0.347413 -0.274964
C75   C     C_3   0.345120 0.845434 0.460006 -0.260932
C76   C     C_3   0.654879 0.154566 0.539993 -0.260936
C77   C     C_3   0.882527 0.153341 0.999626 -0.289974
C78   C     C_3   0.026927 0.930899 0.975637 0.490235
C79   C     C_3   0.117473 0.846659 0.000374 -0.289973
C80   C     C_3   0.092186 0.170105 0.000016 -0.287141
C81   C     C_3   0.907814 0.829895 0.999984 -0.287141
C82   C     C_1   0.110765 0.110696 0.221309 -0.134895
H1    H     H_    0.640232 0.573650 0.043429 0.153483
H2    H     H_    0.692376 0.362000 0.584925 0.174672
H3    H     H_    0.640710 0.391350 0.993290 0.176586
H4    H     H_    0.607153 0.404625 0.916302 0.191372
H5    H     H_    0.359290 0.608650 0.006710 0.176587
H6    H     H_    0.392847 0.595375 0.083698 0.191372
H7    H     H_    0.487002 0.325148 0.006726 0.196534
H8    H     H_    0.573952 0.385487 0.082028 0.184050
H9    H     H_    0.512998 0.674852 0.993274 0.196534
H10   H     H_    0.426048 0.614513 0.917972 0.184051
H11   H     H_    0.156227 0.895636 0.485409 0.186353
H12   H     H_    0.359768 0.426350 0.956571 0.153483
H13   H     H_    0.085046 0.823623 0.390269 0.165214
H14   H     H_    0.133560 0.787724 0.458476 0.179643
H15   H     H_    0.914953 0.176376 0.609729 0.165211
H16   H     H_    0.843772 0.104363 0.514589 0.186355
H17   H     H_    0.866440 0.212276 0.541524 0.179642
H18   H     H_    0.129546 0.910878 0.608806 0.188918
H19   H     H_    0.138491 0.007859 0.685386 0.188038
H20   H     H_    0.227915 0.976203 0.676420 0.172141
H21   H     H_    0.861501 0.992129 0.314606 0.188036
H22   H     H_    0.870464 0.089116 0.391189 0.188918
H23   H     H_    0.848971 0.967138 0.954630 0.175357
H24   H     H_    0.772087 0.023802 0.323583 0.172139
H25   H     H_    0.035528 0.120952 0.671195 0.215560
H26   H     H_    0.942759 0.059591 0.631737 0.173376
H27   H     H_    0.964471 0.879048 0.328804 0.215558
H28   H     H_    0.057241 0.940409 0.368263 0.173376
H29   H     H_    0.630637 0.116299 0.674022 0.215025
H30   H     H_    0.650799 0.020899 0.655621 0.192653
H31   H     H_    0.369363 0.883702 0.325978 0.215025
H32   H     H_    0.349200 0.979101 0.344379 0.192654
H33   H     H_    0.550532 0.027269 0.698765 0.156207
H34   H     H_    0.151029 0.032862 0.045370 0.175357
H35   H     H_    0.500276 0.925286 0.620787 0.191959
H36   H     H_    0.452075 0.978255 0.677673 0.184358
H37   H     H_    0.499726 0.074715 0.379213 0.191959
H38   H     H_    0.449468 0.972733 0.301236 0.156208
H39   H     H_    0.547925 0.021744 0.322326 0.184358
H40   H     H_    0.305839 0.835152 0.402305 0.176610
H41   H     H_    0.334900 0.900956 0.499959 0.185711
H42   H     H_    0.325019 0.791766 0.465523 0.169146
H43   H     H_    0.665098 0.099045 0.500038 0.185712
H44   H     H_    0.694161 0.164846 0.597693 0.176610
H45   H     H_    0.344229 0.641432 0.504799 0.170458
H46   H     H_    0.674980 0.208236 0.534478 0.169147
H47   H     H_    0.468907 0.652814 0.624765 0.188328
H48   H     H_    0.462908 0.572892 0.643502 0.206205
H49   H     H_    0.531090 0.347186 0.375232 0.188324
H50   H     H_    0.537095 0.427111 0.356499 0.206208
H51   H     H_    0.620850 0.565489 0.676488 0.200625
H52   H     H_    0.627703 0.647518 0.660521 0.200350
H53   H     H_    0.379151 0.434508 0.323511 0.200623
H54   H     H_    0.372298 0.352481 0.339479 0.200352
H55   H     H_    0.826480 0.107760 0.978660 0.160975
H56   H     H_    0.307285 0.542957 0.421510 0.167502
H57   H     H_    0.895383 0.147876 0.953125 0.189709
H58   H     H_    0.869709 0.215795 0.023792 0.185149
H59   H     H_    0.104617 0.852123 0.046875 0.189708
H60   H     H_    0.173519 0.892240 0.021340 0.160975
H61   H     H_    0.130291 0.784205 0.976208 0.185148
H62   H     H_    0.153121 0.153130 0.021036 0.161770
H63   H     H_    0.077022 0.205276 0.046493 0.190782
H64   H     H_    0.096869 0.211614 0.975734 0.185277
H65   H     H_    0.922978 0.794724 0.953507 0.190782
H66   H     H_    0.846879 0.846870 0.978964 0.161770
H67   H     H_    0.307629 0.638009 0.415079 0.174677
H68   H     H_    0.903131 0.788386 0.024266 0.185277
H69   H     H_    0.055257 0.563024 0.675863 0.208783
H70   H     H_    0.029845 0.645025 0.660811 0.197810
H71   H     H_    0.944743 0.436976 0.324137 0.208783
H72   H     H_    0.970155 0.354975 0.339189 0.197810
H73   H     H_    0.154899 0.653225 0.624370 0.174056
H74   H     H_    0.192689 0.586100 0.571720 0.194809
H75   H     H_    0.845101 0.346775 0.375630 0.174056
H76   H     H_    0.807311 0.413900 0.428280 0.194809
H77   H     H_    0.091712 0.601803 0.449793 0.180230
H78   H     H_    0.692711 0.457037 0.578468 0.167493
H79   H     H_    0.056060 0.672471 0.502286 0.204459
H80   H     H_    0.908288 0.398197 0.550207 0.180230
H81   H     H_    0.943940 0.327529 0.497713 0.204460
H82   H     H_    0.655761 0.358546 0.495193 0.170456
N1    N     N_3   0.587685 0.386507 0.947408 -0.456609
N2    N     N_3   0.558810 0.409177 0.399022 -0.439554
N3    N     N_3   0.630821 0.585088 0.641655 -0.460409
N4    N     N_3   0.369179 0.414910 0.358344 -0.460416
N5    N     N_3   0.009416 0.582078 0.641334 -0.453753
N6    N     N_3   0.990584 0.417922 0.358666 -0.453753
N7    N     N_3   0.159289 0.591292 0.601530 -0.430528
N8    N     N_3   0.840711 0.408708 0.398470 -0.430528
N9    N     N_3   0.039330 0.613857 0.457619 -0.439824
N10   N     N_3   0.960669 0.386143 0.542381 -0.439823
N11   N     N_3   0.412315 0.613493 0.052592 -0.456609
N12   N     N_3   0.511345 0.383202 0.052687 -0.453070
N13   N     N_3   0.488655 0.616798 0.947313 -0.453070
N14   N     N_3   0.003382 0.059725 0.639514 -0.437219
N15   N     N_3   0.996618 0.940275 0.360485 -0.437219
N16   N     N_3   0.641427 0.065491 0.636225 -0.464231
N17   N     N_3   0.358573 0.934509 0.363775 -0.464232
N18   N     N_3   0.441190 0.590823 0.600978 -0.439552
O1    O     O_3   0.250010 0.250010 0.500010 -0.510461
O2    O     O_R   0.893710 0.832180 0.664370 -0.630917
O3    O     O_R   0.332200 0.393690 0.664400 -0.638649
O4    O     O_R   0.667800 0.606310 0.335600 -0.638649
O5    O     O_R   0.229300 0.167820 0.335610 -0.652156
O6    O     O_R   0.770700 0.832180 0.664390 -0.652156
O7    O     O_R   0.358130 0.123520 0.543120 -0.605326
O8    O     O_R   0.641870 0.876480 0.456880 -0.605326
O9    O     O_R   0.080390 0.314990 0.456920 -0.649600
O10   O     O_R   0.919610 0.685010 0.543080 -0.649599
O11   O     O_R   0.185040 0.123520 0.543150 -0.610800
O12   O     O_3   0.749990 0.749990 0.499990 -0.510461
O13   O     O_R   0.814960 0.876480 0.456850 -0.610800
O14   O     O_R   0.358080 0.419590 0.543080 -0.646496
O15   O     O_R   0.641920 0.580410 0.456920 -0.646499
O16   O     O_R   0.080420 0.141920 0.456950 -0.629125
O17   O     O_R   0.919580 0.858080 0.543050 -0.629124
O18   O     O_R   0.376490 0.315000 0.456880 -0.626611
O19   O     O_R   0.623510 0.685000 0.543120 -0.626610
O20   O     O_3   0.422393 0.611763 0.455375 -0.590808
O21   O     O_3   0.577608 0.388238 0.544627 -0.590810
O22   O     O_3   0.039157 0.846125 0.466370 -0.595539
O23   O     O_R   0.376520 0.141930 0.456900 -0.640209
O24   O     O_3   0.960842 0.153875 0.533630 -0.595539
O25   O     O_3   0.158333 0.019668 0.603355 -0.581742
O26   O     O_3   0.841667 0.980333 0.396646 -0.581743
O27   O     O_3   0.451039 0.026778 0.608416 -0.575171
O28   O     O_3   0.548961 0.973222 0.391584 -0.575171
O29   O     O_3   0.428326 0.849618 0.474263 -0.580658
O30   O     O_3   0.571674 0.150383 0.525737 -0.580658
O31   O     O_3   0.950233 0.144682 0.055608 -0.599360
O32   O     O_3   0.049767 0.855318 0.944392 -0.599360
O33   O     O_3   0.030657 0.099661 0.944126 -0.601031
O34   O     O_R   0.623480 0.858070 0.543100 -0.640209
O35   O     O_3   0.969343 0.900339 0.055874 -0.601032
O36   O     O_R   0.184990 0.419580 0.543110 -0.635621
O37   O     O_R   0.815010 0.580420 0.456890 -0.635621
O38   O     O_R   0.332220 0.270690 0.664420 -0.620277
O39   O     O_R   0.667780 0.729310 0.335580 -0.620277
O40   O     O_R   0.106290 0.167820 0.335630 -0.630917
Zn1   Zn    Zn3+2 0.307090 0.219220 0.438420 0.982195
Zn2   Zn    Zn3+2 0.692910 0.780780 0.561580 0.982197
Zn3   Zn    Zn3+2 0.280820 0.192930 0.561610 1.031021
Zn4   Zn    Zn3+2 0.719180 0.807070 0.438390 1.031021
Zn5   Zn    Zn3+2 0.131340 0.219220 0.438450 0.979795
Zn6   Zn    Zn3+2 0.868660 0.780780 0.561550 0.979795
Zn7   Zn    Zn3+2 0.280790 0.368660 0.561580 0.983409
Zn8   Zn    Zn3+2 0.719210 0.631340 0.438420 0.983408

loop_
_geom_bond_atom_site_label_1
_geom_bond_atom_site_label_2
_ccdc_geom_bond_type
C25   C31   T    
H47   N18   S    
C63   C65   S    
C26   C32   T    
C77   H55   S    
C6    C45   S    
C46   C52   S    
C27   C29   S    
C75   H40   S    
C76   H44   S    
C37   O24   S    
C14   C18   S    
C5    C56   S    
C16   O40   A    
C24   C27   S    
C5    C67   S    
C69   H14   S    
H76   N8    S    
C9    C18   S    
C78   O32   S    
C74   O28   S    
C77   O31   S    
C54   O37   A    
C72   O26   S    
C74   H39   S    
C20   C30   S    
O15   Zn8   S    
C70   H17   S    
C15   C19   S    
C74   H37   S    
C46   C49   S    
C43   N15   S    
C59   C64   S    
C33   C39   S    
H6    N11   S    
C63   O21   S    
C13   C18   S    
C57   O13   A    
C75   H41   S    
C33   C42   S    
C15   C53   S    
C73   O27   S    
C35   C37   S    
H50   N2    S    
C61   N2    S    
C69   H11   S    
C3    H34   S    
H51   N3    S    
H75   N8    S    
C48   N17   S    
C11   C14   S    
C6    C78   S    
C79   H60   S    
C21   H12   S    
C17   O6    A    
C10   N8    S    
C81   H68   S    
H8    N12   S    
C34   C62   S    
C33   C36   S    
C56   C78   S    
C66   H45   S    
H72   N6    S    
C60   C62   S    
C44   O27   S    
O12   Zn6   S    
C37   C42   S    
C61   C63   S    
O12   Zn8   S    
C62   O20   S    
C62   C64   S    
C71   O25   S    
C22   N1    S    
C77   H57   S    
C79   O32   S    
C39   C55   S    
C40   O7    A    
H49   N2    S    
C80   H62   S    
H71   N6    S    
C45   C67   S    
C50   C52   S    
H53   N4    S    
C77   H58   S    
H28   N15   S    
C35   C43   S    
O17   Zn6   S    
O1    Zn7   S    
C44   C47   S    
C18   N9    S    
H30   N16   S    
C76   O30   S    
C23   C63   S    
C71   H19   S    
C12   O4    A    
C10   C13   S    
C22   C28   S    
C4    C56   S    
C68   O21   S    
C1    C25   S    
C76   H43   S    
O1    Zn3   S    
H4    N1    S    
O19   Zn2   S    
C34   N4    S    
C58   O18   A    
C34   C65   S    
C41   C49   S    
C56   O35   S    
C80   O33   S    
C46   C48   S    
C68   H82   S    
O1    Zn1   S    
C60   N18   S    
C23   C60   S    
C79   H61   S    
C48   C51   S    
C73   H35   S    
H5    N11   S    
C75   H42   S    
C68   H2    S    
C23   C64   S    
C35   C38   S    
C66   H67   S    
C47   C49   S    
H48   N18   S    
O1    Zn5   S    
C5    C7    S    
C41   O34   A    
C28   N12   S    
C39   C43   S    
C72   H22   S    
C49   C51   S    
C42   N14   S    
C46   O28   S    
C21   C29   S    
O39   Zn4   S    
C3    C45   S    
C34   C61   S    
C12   C26   S    
C61   C64   S    
O34   Zn2   S    
O36   Zn7   S    
C47   N16   S    
C51   O29   S    
C38   C57   S    
H79   N9    S    
H27   N15   S    
C58   C65   S    
C66   H56   S    
C13   C15   S    
C10   C19   S    
C81   H66   S    
C81   O35   S    
C3    C5    S    
C20   C27   S    
C16   C82   S    
H26   N14   S    
C48   C50   S    
C53   O9    A    
C24   N11   S    
C54   O10   A    
C23   N3    S    
C41   O8    A    
C44   C51   S    
C4    C6    S    
C80   H63   S    
C55   O11   A    
C71   H20   S    
C20   C22   S    
C60   C65   S    
C11   N5    S    
C9    C11   S    
H25   N14   S    
C10   C14   S    
H29   N16   S    
C76   H46   S    
C21   C24   S    
C67   O31   S    
H31   N17   S    
O2    Zn6   S    
O37   Zn8   S    
C59   O19   A    
O6    Zn2   S    
C74   H38   S    
O16   Zn5   S    
O12   Zn2   S    
C4    H23   S    
C44   C50   S    
C53   O36   A    
C40   O23   A    
C33   O25   S    
O9    Zn5   S    
C73   H36   S    
O13   Zn4   S    
C14   C54   S    
O8    Zn4   S    
O18   Zn1   S    
O3    Zn7   S    
C21   C28   S    
C2    C8    T    
C27   N13   S    
C72   H24   S    
C69   H13   S    
C16   O5    A    
C73   H33   S    
C4    C67   S    
C6    C8    S    
C70   H15   S    
C13   N6    S    
C47   C52   S    
H80   N10   S    
C72   H21   S    
C1    O3    A    
C70   O24   S    
H32   N17   S    
H54   N4    S    
C71   H18   S    
H74   N7    S    
H69   N5    S    
H3    N1    S    
C55   O16   A    
O12   Zn4   S    
C36   C38   S    
O4    Zn8   S    
C9    C15   S    
C19   N10   S    
O11   Zn3   S    
C28   C30   S    
C29   C31   S    
C30   C32   S    
H70   N5    S    
C3    C78   S    
C17   O2    A    
C81   H65   S    
C79   H59   S    
O5    Zn1   S    
O40   Zn5   S    
C59   O15   A    
C40   C50   S    
H9    N13   S    
C58   O14   A    
C45   O33   S    
O23   Zn1   S    
O38   Zn3   S    
C1    O38   A    
C11   C19   S    
C24   C30   S    
C12   O39   A    
C9    N7    S    
H10   N13   S    
C66   O20   S    
C38   C42   S    
H73   N7    S    
C35   O26   S    
O10   Zn6   S    
C7    C82   T    
O14   Zn7   S    
C69   O22   S    
C37   C39   S    
H77   N9    S    
C20   H1    S    
C22   C29   S    
C52   O30   S    
H52   N3    S    
C75   O29   S    
C36   C43   S    
C80   H64   S    
C36   O22   S    
H7    N12   S    
C68   H78   S    
H81   N10   S    
O7    Zn3   S    
C57   O17   A    
C70   H16   S    
C2    C17   S    
