data_mof_unit_37927.cif
_audit_creation_date              2012-12-10T16:46:45-0500
_audit_creation_method            fapswitch 2.2
_symmetry_space_group_name_H-M    P1
_symmetry_Int_Tables_number       1
_space_group_crystal_system       triclinic
_cell_length_a                    15.877104
_cell_length_b                    8.682583
_cell_length_c                    7.454087
_cell_angle_alpha                 103.116812
_cell_angle_beta                  94.12285
_cell_angle_gamma                 92.231191
_cell_volume                      996.562123308

loop_
_atom_site_label
_atom_site_type_symbol
_atom_type_description
_atom_site_fract_x
_atom_site_fract_y
_atom_site_fract_z
_atom_type_partial_charge
C1    C     C_R   0.497480 0.199683 0.453157 0.884895
C2    C     C_3   0.950067 0.365773 0.599888 -0.211528
C3    C     C_3   0.916830 0.498139 0.504582 0.095221
C4    C     C_3   0.957336 0.664691 0.612106 -0.238856
C5    C     C_3   0.056595 0.662876 0.621018 -0.233228
C6    C     C_1   0.824320 0.498869 0.496039 -0.047068
C7    C     C_1   0.175827 0.498582 0.509544 -0.047507
C8    C     C_1   0.251182 0.499255 0.507491 -0.110716
C9    C     C_2   0.496275 0.031674 0.426910 -0.353795
C10   C     C_2   0.503746 0.968328 0.573091 -0.341389
C11   C     C_R   0.340432 0.499679 0.502468 0.825119
C12   C     C_R   0.502530 0.800318 0.546843 0.882488
C13   C     C_R   0.659569 0.500223 0.497590 0.825208
C14   C     C_3   0.048712 0.360892 0.596300 -0.206959
C15   C     C_3   0.043377 0.475488 0.309481 -0.341665
C16   C     C_3   0.945757 0.468808 0.305176 -0.348212
C17   C     C_1   0.748835 0.499412 0.493502 -0.116601
C18   C     C_3   0.083586 0.497864 0.510894 0.087962
Cu1   Cu    Cu3+1 0.509300 0.517380 0.684380 0.981039
Cu2   Cu    Cu3+1 0.490700 0.482620 0.315620 0.977035
H1    H     H_    0.510784 0.040211 0.713830 0.181938
N1    N     N_2   0.476670 0.456430 0.038530 -0.211177
N2    N     N_2   0.523330 0.543570 0.961470 -0.212575
O1    O     O_R   0.506050 0.286130 0.619770 -0.584240
O2    O     O_R   0.490330 0.256780 0.308370 -0.583996
O3    O     O_R   0.387300 0.514690 0.655770 -0.580306
O4    O     O_R   0.371580 0.485340 0.344370 -0.570397
O5    O     O_R   0.509670 0.743220 0.691630 -0.583486
O6    O     O_R   0.493950 0.713870 0.380230 -0.587380
O7    O     O_R   0.628420 0.514660 0.655630 -0.567343
O8    O     O_R   0.612700 0.485310 0.344230 -0.584778
C19   C     C_2   0.901040 0.205889 0.532889 0.876050
O9    O     O_2   0.865901 0.147111 0.644125 -0.554297
O10   O     O_R   0.894315 0.126954 0.346498 -0.732705
H2    H     H_    0.860048 0.022230 0.322041 0.331916
H3    H     H_    0.074846 0.386381 0.742828 0.179764
H4    H     H_    0.938163 0.402486 0.747950 0.184073
H5    H     H_    0.939704 0.749145 0.524841 0.159633
H6    H     H_    0.489238 0.959790 0.286171 0.180038
H7    H     H_    0.434855 0.376687 0.948592 0.233450
H8    H     H_    0.565143 0.623317 0.051407 0.229395
C20   C     C_2   0.080598 0.198926 0.511657 0.867435
O11   O     O_2   0.121842 0.129457 0.610359 -0.567732
O12   O     O_R   0.063614 0.128767 0.323653 -0.721591
H9    H     H_    0.088153 0.021106 0.286897 0.340850
H10   H     H_    0.064784 0.576471 0.251865 0.218273
H11   H     H_    0.064567 0.368336 0.215956 0.244218
H12   H     H_    0.919291 0.353722 0.218504 0.252377
H13   H     H_    0.921245 0.560621 0.235690 0.211514
C21   C     C_2   0.102391 0.721001 0.812643 0.891247
O13   O     O_2   0.096144 0.646289 0.932002 -0.610415
O14   O     O_R   0.152556 0.862421 0.851631 -0.716271
H14   H     H_    0.179966 0.890156 0.982868 0.334829
H15   H     H_    0.077618 0.751698 0.543905 0.165157
C22   C     C_2   0.920598 0.732758 0.794958 0.886014
O15   O     O_2   0.924091 0.663379 0.920462 -0.606863
O16   O     O_R   0.881720 0.876837 0.818253 -0.704844
H16   H     H_    0.859530 0.911167 0.944562 0.350778

loop_
_geom_bond_atom_site_label_1
_geom_bond_atom_site_label_2
_ccdc_geom_bond_type
C15   C18   S    
C21   O14   S    
C22   O15   D    
C11   O3    A    
Cu2   O4    S    
C11   O4    A    
C12   O6    A    
C9    C10   D    
C14   C18   S    
Cu1   N2    S    
Cu1   Cu2   S    
N2    H8    S    
C13   C17   S    
C14   C20   S    
C3    C6    S    
N1    H7    S    
C19   O9    D    
C16   H12   S    
Cu1   O1    S    
C7    C8    T    
C4    C22   S    
O14   H14   S    
C1    O2    A    
Cu1   O5    S    
C2    H4    S    
O16   H16   S    
C20   O12   S    
C12   O5    A    
C8    C11   S    
C10   C12   S    
C4    H5    S    
C21   O13   D    
C2    C3    S    
Cu2   O6    S    
C22   O16   S    
C10   H1    S    
C14   H3    S    
C2    C14   S    
C5    C21   S    
C20   O11   D    
C3    C16   S    
C3    C4    S    
C5    H15   S    
C9    H6    S    
C7    C18   S    
C1    C9    S    
C16   H13   S    
C1    O1    A    
C2    C19   S    
O10   H2    S    
Cu2   O2    S    
C6    C17   T    
Cu1   O3    S    
N1    N2    D    
C15   H11   S    
C5    C18   S    
C15   H10   S    
C13   O7    A    
Cu1   O7    S    
C13   O8    A    
O12   H9    S    
C15   C16   S    
Cu2   N1    S    
C4    C5    S    
Cu2   O8    S    
C19   O10   S    
