data_mof_unit_12880.cif
_audit_creation_date              2012-12-11T18:37:29-0500
_audit_creation_method            fapswitch 2.2
_symmetry_space_group_name_H-M    P1
_symmetry_Int_Tables_number       1
_space_group_crystal_system       triclinic
_cell_length_a                    8.445548
_cell_length_b                    14.288116
_cell_length_c                    27.04467
_cell_angle_alpha                 93.456174
_cell_angle_beta                  93.026263
_cell_angle_gamma                 87.80379
_cell_volume                      3251.00608654

loop_
_atom_site_label
_atom_site_type_symbol
_atom_type_description
_atom_site_fract_x
_atom_site_fract_y
_atom_site_fract_z
_atom_type_partial_charge
Ba1   Ba    Ba6+2 0.849670 0.455410 0.524690 1.605500
Ba2   Ba    Ba6+2 0.340150 0.544510 0.475310 1.614365
C1    C     C_3   0.631061 0.108444 0.680872 0.089246
C2    C     C_3   0.593805 0.206453 0.659716 0.374979
C3    C     C_3   0.510734 0.684856 0.623345 0.280835
C4    C     C_3   0.467955 0.720554 0.675332 -0.388913
C5    C     C_3   0.074773 0.750448 0.337401 0.346358
C6    C     C_3   0.079301 0.780782 0.284349 -0.191178
C7    C     C_3   0.546243 0.792339 0.352834 0.349568
C8    C     C_3   0.505755 0.888007 0.332831 -0.378941
C9    C     C_R   0.006156 0.423507 0.180982 0.593443
C10   C     C_R   0.917856 0.584174 0.176212 0.575199
C11   C     C_2   0.757236 0.546845 0.268692 -0.107569
C12   C     C_3   0.096897 0.271237 0.666074 0.368310
C13   C     C_3   0.739066 0.583323 0.321382 -0.026482
C14   C     C_1   0.979359 0.487451 0.344409 0.025701
C15   C     C_2   0.016108 0.478532 0.296691 -0.143003
C16   C     C_2   0.899302 0.508433 0.255631 0.210672
C17   C     C_R   0.020129 0.500105 0.102549 -0.079821
C18   C     C_R   0.046236 0.420231 0.130489 -0.032363
C19   C     C_R   0.110837 0.338355 0.107253 -0.064701
C20   C     C_R   0.955613 0.582471 0.125828 -0.026017
C21   C     C_2   0.856044 0.542283 0.359184 -0.192126
C22   C     C_2   0.355517 0.487595 0.643870 -0.247436
C23   C     C_3   0.069906 0.257679 0.720619 -0.202743
C24   C     C_R   0.163277 0.411996 0.977347 0.020290
C25   C     C_R   0.066221 0.576405 0.972464 0.020293
C26   C     C_R   0.133443 0.493038 0.949596 0.048534
C27   C     C_R   0.231704 0.331262 0.952755 -0.102983
C28   C     C_R   0.268613 0.330021 0.903152 -0.066874
C29   C     C_R   0.239441 0.409085 0.875369 -0.023256
C30   C     C_R   0.171545 0.490688 0.898381 -0.080353
C31   C     C_R   0.142450 0.569967 0.870208 -0.031900
C32   C     C_R   0.182012 0.566736 0.819690 0.594075
C33   C     C_R   0.277164 0.407476 0.824961 0.569755
C34   C     C_3   0.024875 0.244517 0.394365 0.331054
C35   C     C_2   0.426702 0.442628 0.729846 -0.086884
C36   C     C_3   0.443902 0.418090 0.675462 -0.052694
C37   C     C_1   0.215729 0.521944 0.657444 0.018556
C38   C     C_2   0.172093 0.519029 0.704362 -0.147008
C39   C     C_2   0.286962 0.482377 0.744576 0.208476
C40   C     C_R   0.124366 0.414108 0.028372 0.020132
C41   C     C_R   0.058304 0.497717 0.051340 0.048917
C42   C     C_R   0.029861 0.579023 0.023708 0.020134
C43   C     C_R   0.148993 0.335190 0.057602 -0.100751
C44   C     C_R   0.929982 0.662175 0.098357 -0.063343
C45   C     C_3   0.979919 0.176998 0.349718 -0.244195
C46   C     C_R   0.037535 0.654537 0.942886 -0.100320
C47   C     C_R   0.074923 0.651254 0.893183 -0.065353
C48   C     C_R   0.965973 0.660678 0.048683 -0.102307
C49   C     C_R   0.677375 0.063889 0.471798 -0.046883
C50   C     C_R   0.508726 0.199914 0.502395 0.070878
C51   C     C_R   0.380153 0.232157 0.531179 -0.203589
C52   C     C_R   0.274816 0.167886 0.547926 0.019253
C53   C     C_R   0.311974 0.072338 0.543286 -0.161447
C54   C     C_R   0.451124 0.039439 0.520889 -0.005029
C55   C     C_R   0.546156 0.101831 0.497705 -0.036481
C56   C     C_3   0.953467 0.747767 0.617472 0.391637
C57   C     C_R   0.633324 0.908197 0.499507 -0.025561
C58   C     C_R   0.724758 0.968663 0.473848 0.006334
C59   C     C_R   0.684478 0.813513 0.502794 0.016053
C60   C     C_R   0.828207 0.782012 0.483585 -0.267674
C61   C     C_R   0.917841 0.840116 0.457571 0.022692
C62   C     C_R   0.865185 0.933433 0.452009 -0.144761
C63   C     C_R   0.495620 0.944350 0.521855 -0.044271
C64   C     C_3   0.901917 0.753619 0.671610 -0.207528
C65   C     C_3   0.608696 0.342819 0.376688 0.374117
C66   C     C_3   0.541052 0.320885 0.324144 -0.341702
H1    H     H_    0.074563 0.121456 0.344539 0.112546
H2    H     H_    0.868747 0.142104 0.357061 0.088647
H3    H     H_    0.862957 0.712313 0.592861 0.043031
H4    H     H_    0.857393 0.684870 0.680585 0.104548
H5    H     H_    0.537565 0.401405 0.393307 0.108191
H6    H     H_    0.412266 0.308323 0.324623 0.143292
H7    H     H_    0.477323 0.232196 0.673175 -0.058025
H8    H     H_    0.597582 0.624690 0.625961 0.036479
H9    H     H_    0.383101 0.781666 0.673119 0.133362
H10   H     H_    0.574948 0.742106 0.697901 0.107916
H11   H     H_    0.157930 0.688762 0.341110 0.088511
H12   H     H_    0.952767 0.729665 0.344233 -0.047551
H13   H     H_    0.194294 0.813064 0.279049 0.136405
H14   H     H_    0.071097 0.717785 0.258469 0.126442
H15   H     H_    0.512300 0.794562 0.392086 0.071843
H16   H     H_    0.576029 0.942207 0.354322 0.070329
H17   H     H_    0.534273 0.887668 0.293202 0.117262
H18   H     H_    0.132339 0.275567 0.127511 0.116861
H19   H     H_    0.516937 0.417776 0.756464 0.113024
H20   H     H_    0.320831 0.265963 0.886536 0.115066
H21   H     H_    0.259479 0.267087 0.970708 0.065864
H22   H     H_    0.197308 0.268849 0.043336 0.066049
H23   H     H_    0.668019 0.567330 0.240653 0.112481
H24   H     H_    0.881168 0.726919 0.115266 0.117991
H25   H     H_    0.985314 0.720095 0.956789 0.065627
H26   H     H_    0.220534 0.291750 0.662563 -0.063261
H27   H     H_    0.053913 0.543741 0.713913 0.121432
H28   H     H_    0.942387 0.725654 0.031103 0.066062
H29   H     H_    0.400332 0.501725 0.608397 0.042172
H30   H     H_    0.233792 0.023791 0.558168 0.075208
H31   H     H_    0.935156 0.978455 0.431688 0.065835
H32   H     H_    0.873633 0.712175 0.490610 0.051051
H33   H     H_    0.746218 0.107845 0.450922 0.085214
H34   H     H_    0.945200 0.242865 0.725535 0.140724
H35   H     H_    0.423745 0.899958 0.541798 0.105776
N1    N     N_R   0.942012 0.504966 0.203558 -0.419265
N2    N     N_R   0.247843 0.485701 0.797090 -0.420247
O1    O     O_2   0.918080 0.549800 0.616640 -0.485090
O2    O     O_3   0.609927 0.260560 0.403011 -0.646680
O3    O     O_3   0.067193 0.188488 0.636692 -0.616035
O4    O     O_2   0.271610 0.450170 0.383330 -0.446578
O5    O     O_3   0.039630 0.450200 0.443530 -0.516398
O6    O     O_3   0.531440 0.620360 0.408460 -0.485565
O7    O     O_3   0.145729 0.301805 0.382168 -0.617367
O8    O     O_3   0.643350 0.612530 0.521650 -0.484156
O9    O     O_3   0.127390 0.668260 0.431510 -0.498229
O10   O     O_2   0.248733 0.834585 0.459649 -0.474857
O11   O     O_3   0.122561 0.824502 0.370680 -0.609173
O12   O     O_3   0.150070 0.549720 0.556460 -0.470447
O13   O     O_3   0.546340 0.387390 0.478340 -0.515831
O14   O     O_2   0.398940 0.728800 0.517420 -0.437732
O15   O     O_3   0.577613 0.757376 0.599910 -0.662640
O16   O     O_2   0.408151 0.543474 0.322468 -0.499806
O17   O     O_3   0.462618 0.722864 0.324231 -0.593613
O18   O     O_2   0.026345 0.353298 0.204488 -0.619595
O19   O     O_2   0.335434 0.335509 0.805870 -0.631420
O20   O     O_2   0.863911 0.656971 0.195786 -0.621828
O21   O     O_2   0.160216 0.636853 0.796213 -0.624032
O22   O     O_3   0.658250 0.379560 0.591530 -0.477660
O23   O     O_2   0.774649 0.451172 0.678076 -0.499382
O24   O     O_3   0.101046 0.700705 0.613023 -0.633684
O25   O     O_3   0.711783 0.271293 0.674643 -0.611706
O26   O     O_2   0.790750 0.271170 0.482550 -0.474659
O27   O     O_3   0.062300 0.331660 0.568480 -0.495212
O28   O     O_2   0.938981 0.165500 0.546367 -0.479857
P1    P     P_3+3 0.090020 0.577590 0.608380 0.971373
P2    P     P_3+3 0.614340 0.285150 0.467650 0.963534
P3    P     P_3+3 0.084326 0.210672 0.574260 0.942465
P4    P     P_3+3 0.099670 0.422330 0.391610 0.964577
P5    P     P_3+3 0.103342 0.791247 0.431198 0.955150
P6    P     P_3+3 0.647958 0.382934 0.655870 0.939720
P7    P     P_3+3 0.578609 0.728981 0.536011 0.929893
P8    P     P_3+3 0.533584 0.613459 0.343294 0.936903
H36   H     H_    0.583539 0.198371 0.618507 0.001986
C67   C     C_3   0.955377 0.227213 0.301438 -0.325166
H37   H     H_    0.902992 0.178746 0.271910 0.123476
H38   H     H_    0.875127 0.289875 0.306295 0.102123
H39   H     H_    0.070950 0.249752 0.289367 0.172604
C68   C     C_3   0.967112 0.846304 0.598917 -0.366981
H40   H     H_    0.017751 0.841520 0.561827 0.104014
H41   H     H_    0.848431 0.882282 0.596022 0.074250
H42   H     H_    0.047396 0.889632 0.623799 0.111549
H43   H     H_    0.802506 0.806245 0.675423 0.092141
C69   C     C_3   0.034215 0.780520 0.710056 -0.362869
H44   H     H_    0.078811 0.850741 0.704108 0.106772
H45   H     H_    0.987128 0.782805 0.747684 0.148039
H46   H     H_    0.133660 0.727704 0.708646 0.167387
H47   H     H_    0.729870 0.367786 0.374642 -0.129102
C70   C     C_3   0.784240 0.063364 0.660404 -0.317643
H48   H     H_    0.888473 0.098696 0.677768 0.164611
H49   H     H_    0.784153 0.066709 0.619446 0.134355
H50   H     H_    0.797595 0.988655 0.669636 0.091343
H51   H     H_    0.601100 0.257035 0.307485 0.104210
H52   H     H_    0.558747 0.380454 0.300762 0.079637
C71   C     C_3   0.494167 0.042932 0.664994 -0.444340
H53   H     H_    0.377816 0.075680 0.674425 0.117289
H54   H     H_    0.491562 0.026497 0.624469 0.117454
H55   H     H_    0.509357 0.975378 0.683357 0.137865
H56   H     H_    0.400195 0.662099 0.603074 0.072288
H57   H     H_    0.412949 0.664609 0.694459 0.080135
C72   C     C_3   0.649316 0.116340 0.738083 -0.338345
H58   H     H_    0.748124 0.161610 0.751245 0.122445
H59   H     H_    0.540856 0.146567 0.754722 0.120383
H60   H     H_    0.674365 0.046063 0.752856 0.104300
H61   H     H_    0.094058 0.324133 0.742438 0.106573
C73   C     C_3   0.943461 0.850390 0.271884 -0.375017
H62   H     H_    0.949235 0.913914 0.297626 0.131332
H63   H     H_    0.952353 0.871840 0.233378 0.136730
H64   H     H_    0.827517 0.817386 0.274563 0.144531
H65   H     H_    0.676728 0.779663 0.351309 -0.060149
H66   H     H_    0.377798 0.906188 0.336375 0.149204
H67   H     H_    0.014428 0.329472 0.654926 0.097174
H68   H     H_    0.133611 0.452440 0.287148 0.127672
H69   H     H_    0.050232 0.713440 0.872651 0.113516
C74   C     C_3   0.831093 0.577776 0.411869 -0.224481
H70   H     H_    0.927468 0.584469 0.438748 0.162840
H71   H     H_    0.790949 0.652208 0.411431 0.026121
H72   H     H_    0.750805 0.530330 0.428611 0.130893
C75   C     C_3   0.347993 0.334214 0.544539 -0.236713
H73   H     H_    0.441038 0.382232 0.546960 0.157758
H74   H     H_    0.258160 0.363835 0.517823 0.144398
H75   H     H_    0.322216 0.340753 0.584120 0.028739
C76   C     C_3   0.173586 0.178669 0.741459 -0.370496
H76   H     H_    0.298897 0.193791 0.737199 0.155062
H77   H     H_    0.153581 0.174281 0.781489 0.140272
H78   H     H_    0.145392 0.110323 0.721947 0.123674
C77   C     C_3   0.089120 0.189137 0.437750 -0.281054
H79   H     H_    0.203622 0.152268 0.429217 0.076121
H80   H     H_    0.108955 0.239464 0.469871 0.103076
H81   H     H_    0.004456 0.136948 0.447341 0.075911
H82   H     H_    0.918318 0.284659 0.405750 0.067918

loop_
_geom_bond_atom_site_label_1
_geom_bond_atom_site_label_2
_ccdc_geom_bond_type
C25   C46   A    
C67   H39   S    
C53   C54   A    
Ba2   O4    S    
C70   H48   S    
C10   C20   A    
C72   H58   S    
C17   C18   A    
C34   H82   S    
C41   C42   A    
Ba1   O27   S    
C65   O2    S    
C34   C77   S    
C27   H21   S    
Ba2   O13   S    
C5    C6    S    
C8    H17   S    
C51   C52   A    
C21   C74   S    
C60   C61   A    
C39   N2    S    
C11   C16   D    
C6    H14   S    
O14   P7    D    
C33   O19   D    
C68   H41   S    
O23   P6    D    
O3    P3    S    
O26   P2    D    
C74   H71   S    
C2    H36   S    
C28   C29   A    
Ba2   O8    S    
C6    C73   S    
C56   H3    S    
C4    H10   S    
C44   H24   S    
O12   P1    S    
C56   O24   S    
C66   H6    S    
C54   C63   A    
C7    H65   S    
C45   C67   S    
C22   C37   D    
C54   C55   A    
C34   C45   S    
O4    P4    D    
Ba1   Ba2   S    
C8    H16   S    
C73   H62   S    
C45   H1    S    
C2    H7    S    
O2    P2    S    
C13   P8    S    
C25   C42   A    
C56   C64   S    
C62   H31   S    
C64   H4    S    
C68   H40   S    
C14   C15   D    
C75   H75   S    
C34   O7    S    
O28   P3    D    
C22   C36   S    
C36   P6    S    
C69   H46   S    
C9    N1    Am   
O15   P7    S    
C7    C8    S    
O11   P5    S    
O27   P3    S    
Ba1   O1    S    
C77   H81   S    
C14   C21   D    
C12   O3    S    
C57   C58   A    
C70   H49   S    
C11   H23   S    
C22   H29   S    
C72   H59   S    
O22   P6    S    
O25   P6    S    
Ba2   O12   S    
C17   C41   A    
C15   C16   S    
C19   C43   A    
C9    C18   A    
C4    H57   S    
Ba2   O6    S    
C57   C59   A    
C14   P4    S    
C46   H25   S    
C3    O15   S    
C6    H13   S    
O16   P8    D    
C26   C30   A    
C71   H55   S    
C23   C76   S    
C74   H72   S    
C37   C38   D    
C56   C68   S    
C1    C72   S    
C4    H9    S    
C2    O25   S    
C10   O20   D    
C66   H51   S    
C65   C66   S    
C65   H47   S    
C40   C43   A    
C5    O11   S    
C35   C36   S    
C74   H70   S    
C76   H77   S    
C45   H2    S    
C64   C69   S    
C27   C28   A    
C33   N2    Am   
C15   H68   S    
Ba1   O5    S    
C29   C30   A    
O10   P5    D    
C32   O21   D    
C52   P3    S    
C47   H69   S    
C17   C20   A    
C7    O17   S    
O8    P7    S    
C16   N1    S    
C69   H44   S    
C43   H22   S    
C73   H64   S    
C7    H15   S    
C60   H32   S    
C65   H5    S    
O9    P5    S    
C38   C39   S    
C20   C44   A    
C69   H45   S    
C70   H50   S    
C66   H52   S    
C11   C13   S    
C72   H60   S    
C29   C33   A    
C40   C41   A    
C8    H66   S    
C38   H27   S    
C28   H20   S    
C1    C2    S    
C68   H42   S    
C50   C51   A    
C24   C40   A    
C5    H11   S    
C42   C48   A    
C76   H76   S    
C67   H38   S    
C52   C53   A    
C46   C47   A    
C71   H54   S    
Ba2   P4    S    
O7    P4    S    
C35   H19   S    
O5    P4    S    
C9    O18   D    
Ba1   O22   S    
C61   C62   A    
Ba1   O26   S    
C19   H18   S    
Ba2   O14   S    
C59   P7    S    
C10   N1    Am   
C1    C71   S    
C49   H33   S    
C44   C48   A    
C24   C26   A    
C58   C62   A    
C30   C31   A    
C3    H8    S    
C67   H37   S    
C51   C75   S    
C76   H78   S    
C64   H43   S    
Ba1   P2    S    
C57   C63   A    
Ba2   O9    S    
C48   H28   S    
C3    C4    S    
C32   N2    Am   
C53   H30   S    
C13   C21   S    
C61   P5    S    
C31   C32   A    
Ba1   O13   S    
Ba1   O8    S    
C12   C23   S    
C35   C39   D    
C59   C60   A    
C23   H34   S    
C73   H63   S    
O24   P1    S    
C75   H74   S    
C71   H53   S    
C50   C55   A    
O6    P8    S    
C77   H79   S    
C23   H61   S    
C49   C55   A    
O1    P1    D    
C18   C19   A    
C24   C27   A    
C25   C26   A    
C1    C70   S    
C50   P2    S    
C63   H35   S    
C75   H73   S    
C49   C58   A    
O17   P8    S    
C3    H56   S    
Ba1   O12   S    
C31   C47   A    
C12   H26   S    
C12   H67   S    
O13   P2    S    
Ba1   P1    S    
C5    H12   S    
C77   H80   S    
C37   P1    S    
Ba2   O5    S    
