data_mof_unit_56262.cif
_audit_creation_date              2012-12-10T18:23:52-0500
_audit_creation_method            fapswitch 2.2
_symmetry_space_group_name_H-M    P1
_symmetry_Int_Tables_number       1
_space_group_crystal_system       triclinic
_cell_length_a                    22.427051
_cell_length_b                    22.47228
_cell_length_c                    14.644953
_cell_angle_alpha                 89.617736
_cell_angle_beta                  90.09206
_cell_angle_gamma                 89.97173
_cell_volume                      7380.69074838

loop_
_atom_site_label
_atom_site_type_symbol
_atom_type_description
_atom_site_fract_x
_atom_site_fract_y
_atom_site_fract_z
_atom_type_partial_charge
C1    C     C_R   0.419810 0.919608 0.500176 0.819984
C2    C     C_R   0.580219 0.080300 0.499883 0.821212
C3    C     C_R   0.580289 0.919731 0.500277 0.819928
C4    C     C_R   0.419835 0.080355 0.499739 0.818399
C5    C     C_R   0.919808 0.419610 0.500177 0.819999
C6    C     C_R   0.080229 0.580290 0.499879 0.821501
C7    C     C_R   0.080286 0.419729 0.500276 0.819905
C8    C     C_R   0.919835 0.580355 0.499739 0.818461
C9    C     C_1   0.337762 0.163294 0.499137 0.004597
C10   C     C_1   0.663023 0.837335 0.501125 0.004814
C11   C     C_1   0.662607 0.162892 0.499676 -0.009431
C12   C     C_1   0.337862 0.836380 0.501719 0.006287
C13   C     C_1   0.837764 0.663296 0.499140 0.004604
C14   C     C_1   0.163006 0.337317 0.501107 0.004837
C15   C     C_1   0.162660 0.662839 0.499612 -0.009809
C16   C     C_1   0.837838 0.336404 0.501741 0.006283
C17   C     C_1   0.499969 0.000773 0.194390 0.338567
C18   C     C_1   0.500077 0.001044 0.805533 0.278559
C19   C     C_1   0.999970 0.500763 0.194391 0.338576
C20   C     C_1   0.000068 0.501047 0.805534 0.278258
C21   C     C_3   0.534993 0.047246 0.969844 0.293049
C22   C     C_3   0.464857 0.958188 0.029641 0.248447
C23   C     C_3   0.479546 0.055167 0.031111 0.285952
C24   C     C_3   0.521077 0.950425 0.970001 0.258112
C25   C     C_3   0.035012 0.547203 0.969850 0.293374
C26   C     C_3   0.964822 0.458199 0.029649 0.248497
C27   C     C_3   0.979580 0.555164 0.031127 0.285894
C28   C     C_3   0.021030 0.450400 0.969994 0.258034
C29   C     C_3   0.702905 0.731396 0.451078 -0.309336
C30   C     C_3   0.298160 0.269353 0.549283 -0.312733
C31   C     C_3   0.304033 0.723145 0.516189 -0.312428
C32   C     C_3   0.696544 0.275821 0.486525 -0.318115
C33   C     C_3   0.202927 0.231408 0.450954 -0.309758
C34   C     C_3   0.798210 0.769390 0.549193 -0.312727
C35   C     C_3   0.803982 0.223180 0.516236 -0.312509
C36   C     C_3   0.196589 0.775763 0.486454 -0.318025
C37   C     C_3   0.266972 0.240505 0.415298 0.543574
C38   C     C_3   0.734195 0.760314 0.585052 0.544112
C39   C     C_3   0.749575 0.221606 0.580680 0.535575
C40   C     C_3   0.250925 0.777290 0.422031 0.543989
C41   C     C_3   0.766924 0.740463 0.415301 0.543561
C42   C     C_3   0.234120 0.260246 0.585022 0.544042
C43   C     C_3   0.249621 0.721558 0.580620 0.535664
C44   C     C_3   0.750875 0.277334 0.422088 0.544052
C45   C     C_1   0.375301 0.125383 0.499192 -0.166634
C46   C     C_1   0.625182 0.874988 0.500913 -0.164648
C47   C     C_1   0.624933 0.125132 0.499625 -0.169573
C48   C     C_1   0.375325 0.874420 0.500825 -0.163453
C49   C     C_1   0.875301 0.625383 0.499193 -0.166676
C50   C     C_1   0.125171 0.374977 0.500907 -0.164627
C51   C     C_1   0.124969 0.625096 0.499594 -0.169990
C52   C     C_1   0.875311 0.374433 0.500832 -0.163434
C53   C     C_3   0.228365 0.199602 0.537238 -0.293288
C54   C     C_3   0.772692 0.801174 0.462931 -0.295592
C55   C     C_3   0.762100 0.210084 0.434106 -0.282532
C56   C     C_3   0.238458 0.788862 0.568678 -0.292617
C57   C     C_3   0.728398 0.699641 0.537367 -0.293262
C58   C     C_3   0.272696 0.301185 0.463024 -0.295099
C59   C     C_3   0.262163 0.710041 0.434047 -0.282482
C60   C     C_3   0.738427 0.288912 0.568736 -0.292559
C61   C     C_3   0.292086 0.209115 0.499940 0.071437
C62   C     C_3   0.708947 0.791695 0.500429 0.069876
C63   C     C_3   0.708374 0.208624 0.499986 0.071333
C64   C     C_3   0.292210 0.790414 0.502588 0.070388
C65   C     C_3   0.792092 0.709121 0.499948 0.071463
C66   C     C_3   0.208927 0.291676 0.500404 0.069889
C67   C     C_3   0.208431 0.708568 0.499914 0.071486
C68   C     C_3   0.792172 0.290451 0.502633 0.070461
C69   C     C_3   0.555719 0.994593 0.030693 0.307561
C70   C     C_3   0.444060 0.011314 0.969762 0.235275
C71   C     C_3   0.055709 0.494538 0.030685 0.307471
C72   C     C_3   0.944057 0.511342 0.969781 0.235149
C73   C     C_3   0.499937 0.001952 0.092121 -0.221833
C74   C     C_3   0.500257 0.002941 0.907704 -0.275114
C75   C     C_3   0.999939 0.501933 0.092125 -0.221867
C76   C     C_3   0.000239 0.502933 0.907707 -0.274968
Cu1   Cu    Cu3+1 0.500000 0.000000 0.590220 0.985505
Cu2   Cu    Cu3+1 0.500000 0.000000 0.409780 1.009496
Cu3   Cu    Cu3+1 1.000000 0.500000 0.590220 0.985367
Cu4   Cu    Cu3+1 1.000000 0.500000 0.409780 1.009517
H1    H     H_    0.663712 0.716872 0.410584 0.149289
H2    H     H_    0.337437 0.283836 0.589621 0.146885
H3    H     H_    0.348346 0.702620 0.528702 0.146869
H4    H     H_    0.652277 0.296354 0.473634 0.148013
H5    H     H_    0.163757 0.216906 0.410386 0.149175
H6    H     H_    0.837518 0.783890 0.589443 0.146846
H7    H     H_    0.848293 0.202648 0.528732 0.146812
H8    H     H_    0.152318 0.796286 0.473552 0.147996
H9    H     H_    0.789797 0.842896 0.431579 0.152124
H10   H     H_    0.211270 0.157885 0.568622 0.152861
H11   H     H_    0.230090 0.820875 0.624621 0.152492
H12   H     H_    0.770498 0.177968 0.378307 0.154205
H13   H     H_    0.289814 0.342919 0.431728 0.152274
H14   H     H_    0.711320 0.657946 0.568847 0.152911
H15   H     H_    0.730074 0.320926 0.624685 0.152553
H16   H     H_    0.270574 0.677929 0.378248 0.154229
N1    N     N_1   0.499980 0.000000 0.274190 -0.162918
N2    N     N_1   0.500020 0.000000 0.725810 -0.165214
N3    N     N_1   0.999980 0.500000 0.274190 -0.162918
N4    N     N_1   0.000020 0.500000 0.725810 -0.165352
O1    O     O_R   0.439540 0.939530 0.576170 -0.571776
O2    O     O_R   0.560460 0.060470 0.423830 -0.567689
O3    O     O_R   0.560460 0.939530 0.423830 -0.574890
O4    O     O_R   0.439540 0.060470 0.576170 -0.579996
O5    O     O_R   0.939540 0.439530 0.576170 -0.571738
O6    O     O_R   0.060460 0.560470 0.423830 -0.567663
O7    O     O_R   0.060460 0.439530 0.423830 -0.574888
O8    O     O_R   0.939540 0.560470 0.576170 -0.579912
O9    O     O_R   0.439530 0.939530 0.423800 -0.562462
O10   O     O_R   0.560470 0.060470 0.576200 -0.577845
O11   O     O_R   0.560470 0.939530 0.576200 -0.560819
O12   O     O_R   0.439530 0.060470 0.423800 -0.559945
O13   O     O_R   0.939530 0.439530 0.423800 -0.562469
O14   O     O_R   0.060470 0.560470 0.576200 -0.577927
O15   O     O_R   0.060470 0.439530 0.576200 -0.560879
O16   O     O_R   0.939530 0.560470 0.423800 -0.559943
O17   O     O_3   0.387008 0.021391 0.931499 -0.586191
C77   C     C_3   0.342457 0.016596 0.999244 0.104629
H17   H     H_    0.355972 0.036729 0.065392 0.154753
H18   H     H_    0.331318 0.969298 0.011748 0.174772
C78   C     C_3   0.286024 0.047334 0.965425 -0.839035
H19   H     H_    0.269537 0.025226 0.902657 0.256443
H20   H     H_    0.250942 0.044637 0.018713 0.208070
H21   H     H_    0.295023 0.094860 0.949600 0.238911
O18   O     O_3   0.612871 0.985724 0.069335 -0.577358
C79   C     C_3   0.657277 0.989923 0.001331 0.116034
H22   H     H_    0.666646 0.037355 0.985367 0.202892
H23   H     H_    0.644504 0.966431 0.937432 0.158889
C80   C     C_3   0.714743 0.962280 0.037249 -0.837406
H24   H     H_    0.707844 0.914484 0.053692 0.238577
H25   H     H_    0.750207 0.966147 0.984714 0.207139
H26   H     H_    0.729510 0.985723 0.099862 0.260526
O19   O     O_3   0.887004 0.521451 0.931550 -0.586200
C81   C     C_3   0.842473 0.516728 0.999340 0.104643
H27   H     H_    0.856043 0.536842 0.065479 0.154686
H28   H     H_    0.831267 0.469445 0.011866 0.174769
C82   C     C_3   0.786079 0.547553 0.965566 -0.839050
H29   H     H_    0.769524 0.525457 0.902831 0.256458
H30   H     H_    0.751019 0.544930 0.018898 0.208075
H31   H     H_    0.795154 0.595059 0.949701 0.238934
O20   O     O_3   0.112860 0.485634 0.069303 -0.577330
C83   C     C_3   0.157253 0.489794 0.001272 0.115912
H32   H     H_    0.166645 0.537218 0.985280 0.202851
H33   H     H_    0.144451 0.466300 0.937389 0.158875
C84   C     C_3   0.214707 0.462121 0.037170 -0.837255
H34   H     H_    0.207780 0.414333 0.053638 0.238597
H35   H     H_    0.250161 0.465955 0.984614 0.207126
H36   H     H_    0.229504 0.485564 0.099765 0.260537
O21   O     O_3   0.288092 0.227257 0.327022 -0.570599
C85   C     C_3   0.254667 0.259312 0.261497 0.070318
H37   H     H_    0.254789 0.307906 0.276001 0.138188
H38   H     H_    0.207888 0.242890 0.259454 0.143167
C86   C     C_3   0.282212 0.250268 0.167749 -0.786460
H39   H     H_    0.282318 0.202247 0.150241 0.251332
H40   H     H_    0.256139 0.275034 0.115366 0.191767
H41   H     H_    0.328750 0.267098 0.167403 0.253894
O22   O     O_3   0.713523 0.772910 0.673842 -0.571260
C87   C     C_3   0.748970 0.742199 0.738492 0.069148
H42   H     H_    0.794687 0.761329 0.740498 0.142560
H43   H     H_    0.751724 0.693808 0.723004 0.137986
C88   C     C_3   0.721477 0.748675 0.832753 -0.784489
H44   H     H_    0.676256 0.728589 0.833504 0.248646
H45   H     H_    0.749612 0.725444 0.884308 0.195181
H46   H     H_    0.718209 0.796454 0.851045 0.252988
O23   O     O_3   0.744015 0.189702 0.663513 -0.581850
C89   C     C_3   0.792478 0.203139 0.721154 0.068567
H47   H     H_    0.796379 0.251970 0.732451 0.140559
H48   H     H_    0.834777 0.185933 0.691776 0.142835
C90   C     C_3   0.782992 0.172867 0.813182 -0.789691
H49   H     H_    0.774962 0.124527 0.803704 0.253373
H50   H     H_    0.823178 0.178577 0.856530 0.203376
H51   H     H_    0.744085 0.192886 0.848300 0.240775
O24   O     O_3   0.255562 0.808545 0.338497 -0.571890
C91   C     C_3   0.207642 0.792684 0.281097 0.070480
H52   H     H_    0.165523 0.812897 0.306272 0.144691
H53   H     H_    0.202149 0.743487 0.276733 0.140436
C92   C     C_3   0.219530 0.816188 0.185277 -0.783257
H54   H     H_    0.260354 0.795039 0.157599 0.248036
H55   H     H_    0.181316 0.805468 0.139979 0.201383
H56   H     H_    0.225693 0.865216 0.186573 0.250855
O25   O     O_3   0.787945 0.727111 0.327007 -0.570582
C93   C     C_3   0.754747 0.759440 0.261520 0.070590
H57   H     H_    0.755478 0.808055 0.275856 0.138202
H58   H     H_    0.707766 0.743567 0.259745 0.142975
C94   C     C_3   0.781995 0.749939 0.167678 -0.786516
H59   H     H_    0.781412 0.701899 0.150271 0.251159
H60   H     H_    0.756167 0.775016 0.115347 0.191697
H61   H     H_    0.828760 0.766138 0.167107 0.254075
O26   O     O_3   0.213381 0.272794 0.673792 -0.571297
C95   C     C_3   0.248734 0.241998 0.738451 0.069386
H62   H     H_    0.294503 0.261016 0.740480 0.142489
H63   H     H_    0.251362 0.193598 0.722947 0.137958
C96   C     C_3   0.221225 0.248544 0.832714 -0.784481
H64   H     H_    0.175974 0.228531 0.833454 0.248586
H65   H     H_    0.249299 0.225282 0.884298 0.195133
H66   H     H_    0.218035 0.296329 0.850985 0.252988
O27   O     O_3   0.244071 0.689636 0.663437 -0.581805
C97   C     C_3   0.292445 0.703199 0.721185 0.068695
H67   H     H_    0.296145 0.752035 0.732607 0.140546
H68   H     H_    0.334836 0.686188 0.691836 0.142751
C98   C     C_3   0.283007 0.672796 0.813127 -0.789726
H69   H     H_    0.275179 0.624431 0.803515 0.253305
H70   H     H_    0.323136 0.678621 0.856559 0.203451
H71   H     H_    0.243988 0.692623 0.848229 0.240869
O28   O     O_3   0.755508 0.308587 0.338551 -0.571893
C99   C     C_3   0.707583 0.292727 0.281160 0.070475
H72   H     H_    0.665465 0.312934 0.306348 0.144703
H73   H     H_    0.702096 0.243531 0.276787 0.140420
C100  C     C_3   0.719459 0.316241 0.185343 -0.783259
H74   H     H_    0.760285 0.295103 0.157655 0.248035
H75   H     H_    0.681244 0.305517 0.140050 0.201383
H76   H     H_    0.725612 0.365270 0.186646 0.250868
O29   O     O_3   0.462830 0.109492 0.072174 -0.592314
C101  C     C_3   0.425446 0.143606 0.014526 0.107412
H77   H     H_    0.378381 0.133165 0.030599 0.160494
H78   H     H_    0.433171 0.135566 0.940670 0.138495
C102  C     C_3   0.435035 0.209600 0.034206 -0.339541
H79   H     H_    0.424007 0.218542 0.106799 0.234857
H80   H     H_    0.482559 0.221416 0.023180 0.219624
C103  C     C_3   0.395964 0.248624 0.972835 -0.962117
H81   H     H_    0.407624 0.241766 0.899956 0.255479
H82   H     H_    0.403140 0.296166 0.989800 0.264409
H83   H     H_    0.348124 0.237806 0.983242 0.259842
O30   O     O_3   0.542363 0.896739 0.932427 -0.611482
C104  C     C_3   0.565556 0.859471 0.001921 0.067986
H84   H     H_    0.535027 0.856129 0.061668 0.166280
H85   H     H_    0.609252 0.876541 0.025326 0.186166
C105  C     C_3   0.575045 0.797266 0.963137 -0.346082
H86   H     H_    0.531360 0.777948 0.943168 0.215007
H87   H     H_    0.603358 0.800471 0.901137 0.242450
C106  C     C_3   0.605204 0.756145 0.032545 -0.941223
H88   H     H_    0.649680 0.773931 0.051613 0.254428
H89   H     H_    0.611289 0.711381 0.002283 0.260886
H90   H     H_    0.577300 0.751747 0.094831 0.261080
O31   O     O_3   0.575669 0.092085 0.943139 -0.608580
C107  C     C_3   0.551241 0.130984 0.876787 0.054402
H91   H     H_    0.540857 0.173909 0.910166 0.163315
H92   H     H_    0.509728 0.114628 0.843914 0.123875
C108  C     C_3   0.597703 0.142002 0.802364 -0.308184
H93   H     H_    0.638942 0.160084 0.833785 0.230143
H94   H     H_    0.608876 0.099191 0.768827 0.231913
C109  C     C_3   0.574973 0.185944 0.730429 -0.876803
H95   H     H_    0.610427 0.194293 0.679154 0.282429
H96   H     H_    0.563002 0.228938 0.762607 0.241470
H97   H     H_    0.535253 0.167544 0.695077 0.254833
O32   O     O_3   0.428254 0.912779 0.066161 -0.615560
C110  C     C_3   0.408191 0.874974 0.995752 0.080892
H98   H     H_    0.444490 0.844610 0.974596 0.176090
H99   H     H_    0.392562 0.900366 0.934635 0.170077
C111  C     C_3   0.356728 0.837047 0.031683 -0.348988
H100  H     H_    0.372277 0.810326 0.091288 0.236970
H101  H     H_    0.319861 0.866386 0.054542 0.220473
C112  C     C_3   0.333283 0.795161 0.958379 -0.950566
H102  H     H_    0.315967 0.820975 0.899052 0.261018
H103  H     H_    0.296463 0.767739 0.986788 0.262521
H104  H     H_    0.369433 0.765085 0.935123 0.255413
O33   O     O_3   0.962944 0.609507 0.072218 -0.592221
C113  C     C_3   0.925481 0.643628 0.014668 0.107429
H105  H     H_    0.878424 0.633304 0.031074 0.160360
H106  H     H_    0.932997 0.635472 0.940796 0.138749
C114  C     C_3   0.935266 0.709650 0.034036 -0.339146
H107  H     H_    0.924488 0.718720 0.106684 0.234592
H108  H     H_    0.982791 0.721359 0.022592 0.219363
C115  C     C_3   0.896061 0.748678 0.972818 -0.961828
H109  H     H_    0.907469 0.741680 0.899870 0.255430
H110  H     H_    0.903397 0.796247 0.989536 0.264298
H111  H     H_    0.848217 0.737977 0.983649 0.259748
O34   O     O_3   0.042279 0.396702 0.932416 -0.611498
C116  C     C_3   0.065439 0.359415 0.001911 0.067953
H112  H     H_    0.034887 0.356070 0.061632 0.166313
H113  H     H_    0.109132 0.376468 0.025361 0.186200
C117  C     C_3   0.074928 0.297216 0.963103 -0.346021
H114  H     H_    0.031247 0.277920 0.943067 0.215057
H115  H     H_    0.103278 0.300430 0.901143 0.242414
C118  C     C_3   0.105035 0.256069 0.032524 -0.941472
H116  H     H_    0.149509 0.273825 0.051643 0.254431
H117  H     H_    0.111111 0.211309 0.002253 0.260899
H118  H     H_    0.077104 0.251672 0.094773 0.261092
O35   O     O_3   0.075685 0.592033 0.943131 -0.608611
C119  C     C_3   0.051299 0.630877 0.876680 0.054737
H119  H     H_    0.041480 0.674033 0.909787 0.163552
H120  H     H_    0.009458 0.614786 0.844447 0.123434
C120  C     C_3   0.097481 0.641164 0.801605 -0.308827
H121  H     H_    0.139228 0.658571 0.832414 0.230851
H122  H     H_    0.107723 0.598166 0.767877 0.231444
C121  C     C_3   0.075000 0.685508 0.730086 -0.875546
H123  H     H_    0.110197 0.693191 0.678168 0.282302
H124  H     H_    0.064127 0.728742 0.762469 0.241459
H125  H     H_    0.034643 0.667852 0.695478 0.254258
O36   O     O_3   0.928190 0.412812 0.066162 -0.615556
C122  C     C_3   0.908080 0.375045 0.995735 0.080893
H126  H     H_    0.944356 0.344671 0.974511 0.176101
H127  H     H_    0.892438 0.400471 0.934655 0.170138
C123  C     C_3   0.856612 0.337131 0.031681 -0.348992
H128  H     H_    0.872171 0.310380 0.091252 0.236950
H129  H     H_    0.819768 0.366481 0.054598 0.220497
C124  C     C_3   0.833119 0.295283 0.958362 -0.950518
H130  H     H_    0.815783 0.321127 0.899078 0.261051
H131  H     H_    0.796304 0.267861 0.986787 0.262479
H132  H     H_    0.869248 0.265205 0.935035 0.255431

loop_
_geom_bond_atom_site_label_1
_geom_bond_atom_site_label_2
_ccdc_geom_bond_type
C17   C73   S    
C79   H22   S    
C98   H70   S    
Cu1   O1    S    
C122  H126  S    
C25   O35   S    
C84   H34   S    
C5    O5    A    
Cu4   O7    S    
O22   C87   S    
C70   O17   S    
C111  H101  S    
C104  C105  S    
C124  H131  S    
C31   C59   S    
C93   H57   S    
Cu4   O16   S    
C117  H114  S    
C70   C74   S    
C109  H96   S    
C15   C51   T    
C111  C112  S    
C98   H71   S    
C27   C75   S    
C105  H86   S    
C88   H45   S    
C27   O33   S    
C82   H31   S    
C109  H97   S    
C37   O21   S    
C19   N3    T    
C99   H72   S    
C79   C80   S    
O25   C93   S    
C93   C94   S    
C39   O23   S    
C55   H12   S    
C38   C57   S    
C6    O6    A    
C43   O27   S    
C86   H41   S    
C91   C92   S    
C34   C54   S    
C116  H113  S    
C87   H42   S    
C83   H33   S    
C28   C71   S    
C1    O1    A    
C84   H36   S    
C112  H103  S    
C23   O29   S    
C110  C111  S    
C3    O3    A    
C121  H125  S    
C5    O13   A    
C26   O36   S    
C38   O22   S    
C41   C65   S    
C1    C48   S    
C2    C47   S    
C3    C46   S    
C25   C76   S    
C121  H124  S    
C44   C55   S    
C72   O19   S    
C14   C50   T    
C117  C118  S    
C39   C60   S    
C4    O4    A    
C44   O28   S    
Cu3   O8    S    
C106  H90   S    
C77   H18   S    
C78   H20   S    
C8    O16   A    
C60   H15   S    
C96   H64   S    
C30   C61   S    
C97   H68   S    
C105  C106  S    
C38   C62   S    
C95   H62   S    
Cu3   O15   S    
C21   O31   S    
C36   H8    S    
C31   C43   S    
C9    C61   S    
C122  H127  S    
C11   C63   S    
C42   C53   S    
C114  H107  S    
C12   C64   S    
C101  H78   S    
C94   H60   S    
C2    O2    A    
Cu4   O6    S    
C107  H91   S    
O33   C113  S    
C33   H5    S    
C91   H52   S    
C6    O14   A    
C59   C67   S    
C35   H7    S    
C115  H109  S    
C92   H55   S    
C55   C63   S    
C56   C64   S    
C25   C71   S    
C87   C88   S    
C71   O20   S    
C120  C121  S    
C89   H48   S    
C90   H50   S    
C23   C70   S    
C103  H81   S    
C33   C66   S    
C26   C75   S    
C4    C45   S    
C14   C66   S    
C118  H118  S    
C119  H119  S    
C22   O32   S    
C102  H79   S    
C21   C69   S    
O31   C107  S    
C96   H66   S    
C15   C67   S    
Cu2   N1    S    
C100  H74   S    
C108  H94   S    
C57   H14   S    
Cu4   N3    S    
C7    O7    A    
C59   H16   S    
C80   H24   S    
O32   C110  S    
C79   H23   S    
C29   C41   S    
C7    C50   S    
C112  H104  S    
C81   H27   S    
C98   H69   S    
C113  H105  S    
O17   C77   S    
C115  H111  S    
C104  H85   S    
Cu2   O9    S    
O27   C97   S    
C93   H58   S    
Cu4   O13   S    
C117  H115  S    
C120  H121  S    
C85   H37   S    
C17   N1    T    
C22   C70   S    
C103  H83   S    
C9    C45   T    
Cu2   O2    S    
C26   C72   S    
C11   C47   T    
C108  H93   S    
C119  C120  S    
C12   C48   T    
O30   C104  S    
C81   C82   S    
C105  H87   S    
C88   H44   S    
Cu1   Cu2   S    
C102  C103  S    
C82   H30   S    
C58   H13   S    
C123  H128  S    
C99   H73   S    
C100  H76   S    
O36   C122  S    
C90   H49   S    
Cu1   O11   S    
C95   C96   S    
C1    O9    A    
C56   H11   S    
C3    O11   A    
C85   C86   S    
O35   C119  S    
C69   C73   S    
C86   H40   S    
C80   H26   S    
C69   O18   S    
C116  H112  S    
C87   H43   S    
C83   C84   S    
C41   O25   S    
C10   C62   S    
C84   H35   S    
C110  H99   S    
C32   H4    S    
Cu3   N4    S    
C123  C124  S    
C54   C62   S    
C111  H100  S    
O28   C99   S    
C33   C37   S    
C35   C39   S    
C29   H1    S    
C36   C56   S    
C114  C115  S    
C20   N4    T    
O29   C101  S    
C109  H95   S    
C106  H89   S    
C78   H19   S    
C29   C57   S    
C21   C23   S    
O19   C81   S    
C22   C24   S    
C102  H80   S    
C32   C60   S    
C28   C76   S    
C88   H46   S    
C121  H123  S    
C2    O10   A    
C95   H63   S    
C16   C52   T    
C57   C65   S    
C40   C64   S    
C107  C108  S    
O21   C85   S    
C42   O26   S    
C94   H59   S    
C112  H102  S    
C107  H92   S    
O26   C95   S    
C91   H53   S    
O34   C116  S    
C60   C68   S    
C115  H110  S    
C92   H54   S    
C116  C117  S    
C53   H10   S    
C83   H32   S    
C30   C42   S    
Cu1   O4    S    
Cu2   O12   S    
C8    C49   S    
C27   C72   S    
C123  H129  S    
C30   H2    S    
O23   C89   S    
C120  H122  S    
C124  H130  S    
C72   C76   S    
C103  H82   S    
C36   C67   S    
C13   C65   S    
O24   C91   S    
Cu3   O5    S    
C118  H117  S    
C119  H120  S    
C40   O24   S    
C31   H3    S    
C20   C76   S    
C34   H6    S    
C7    O15   A    
C77   H17   S    
C78   H21   S    
C58   C66   S    
C96   H65   S    
C10   C46   T    
C5    C52   S    
C97   H67   S    
C16   C68   S    
C6    C51   S    
C37   C58   S    
C4    O12   A    
C18   C74   S    
C40   C59   S    
C53   C61   S    
C23   C73   S    
C8    O8    A    
C34   C65   S    
C24   C69   S    
C24   O30   S    
C33   C53   S    
C35   C55   S    
C36   C40   S    
C122  C123  S    
C54   H9    S    
C114  H108  S    
C101  H77   S    
C94   H61   S    
C81   H28   S    
C124  H132  S    
C21   C74   S    
C77   C78   S    
C113  H106  S    
C92   H56   S    
C97   C98   S    
C104  H84   S    
C32   C44   S    
Cu1   N2    S    
C13   C49   T    
C43   C67   S    
C118  H116  S    
C89   H47   S    
C90   H51   S    
C85   H38   S    
C44   C68   S    
C113  C114  S    
C29   C62   S    
Cu2   O3    S    
C34   C38   S    
C31   C64   S    
C32   C63   S    
C101  C102  S    
C37   C61   S    
C110  H98   S    
C25   C27   S    
C39   C63   S    
C82   H29   S    
C26   C28   S    
C28   O34   S    
C19   C75   S    
O20   C83   S    
C71   C75   S    
C99   C100  S    
C24   C74   S    
O18   C79   S    
C35   C68   S    
C30   C58   S    
C100  H75   S    
C108  C109  S    
Cu1   O10   S    
C41   C54   S    
Cu3   Cu4   S    
C43   C56   S    
C89   C90   S    
Cu3   O14   S    
C106  H88   S    
C42   C66   S    
C18   N2    T    
C22   C73   S    
C86   H39   S    
C80   H25   S    
