data_mof_unit_63027.cif
_audit_creation_date              2013-03-05T16:30:15-0500
_audit_creation_method            fapswitch 2.2
_symmetry_space_group_name_H-M    P1
_symmetry_Int_Tables_number       1
_space_group_crystal_system       triclinic
_cell_length_a                    16.990458
_cell_length_b                    18.202539
_cell_length_c                    19.463354
_cell_angle_alpha                 89.980455
_cell_angle_beta                  89.403886
_cell_angle_gamma                 94.786846
_cell_volume                      5998.09671513

loop_
_atom_site_label
_atom_site_type_symbol
_atom_site_description
_atom_site_fract_x
_atom_site_fract_y
_atom_site_fract_z
_atom_type_partial_charge
O1    O     O_R   0.500030 0.561980 0.400180 -0.526585
O2    O     O_R   0.499970 0.438020 0.599820 -0.578995
O3    O     O_R   0.500000 0.438070 0.400190 -0.545847
O4    O     O_R   0.500000 0.561930 0.599810 -0.603141
C1    C     C_R   0.499630 0.499945 0.368018 0.795550
C2    C     C_R   0.500570 0.500015 0.632519 0.867340
O5    O     O_R   0.613940 0.568730 0.499360 -0.524785
O6    O     O_R   0.386060 0.431270 0.500640 -0.518392
O7    O     O_R   0.613910 0.444830 0.499370 -0.577100
O8    O     O_R   0.386090 0.555170 0.500630 -0.547322
C3    C     C_R   0.651126 0.509523 0.500692 0.892396
C4    C     C_R   0.348580 0.490616 0.501734 0.894520
Cu1   Cu    Cu3+1 0.500020 0.573360 0.500000 1.075084
Cu2   Cu    Cu3+1 0.499980 0.426640 0.500000 1.067860
C5    C     C_R   0.737490 0.515418 0.497590 -0.141659
C6    C     C_R   0.261649 0.485175 0.500742 -0.144817
C7    C     C_R   0.783970 0.498968 0.554661 0.389431
C8    C     C_R   0.216556 0.528166 0.544519 0.394094
C9    C     C_R   0.866136 0.502774 0.546833 -0.185327
C10   C     C_R   0.134394 0.523381 0.538003 -0.194885
C11   C     C_R   0.902248 0.522788 0.483837 0.302038
C12   C     C_R   0.096338 0.475691 0.490063 0.310173
C13   C     C_R   0.856390 0.540456 0.428183 -0.133830
C14   C     C_R   0.140552 0.432211 0.448221 -0.157131
C15   C     C_R   0.774375 0.535552 0.434705 -0.217227
C16   C     C_R   0.222655 0.438324 0.452366 -0.223212
N1    N     N_2   0.985272 0.528924 0.477981 -0.212786
N2    N     N_2   0.013107 0.468434 0.486799 -0.209258
H1    H     H_    0.099172 0.555765 0.571146 0.204328
H2    H     H_    0.902902 0.491838 0.590176 0.202712
H3    H     H_    0.884116 0.556595 0.379523 0.175896
H4    H     H_    0.111515 0.395097 0.411142 0.178020
H5    H     H_    0.739618 0.546453 0.390201 0.179895
H6    H     H_    0.255774 0.407737 0.416336 0.232131
C17   C     C_R   0.468049 0.437845 0.746260 -0.037251
C18   C     C_R   0.439773 0.534489 0.257627 0.000595
C19   C     C_R   0.467627 0.439225 0.817870 -0.145429
C20   C     C_R   0.440945 0.536384 0.186021 -0.160868
H7    H     H_    0.444240 0.390844 0.846312 0.154552
H8    H     H_    0.396516 0.564284 0.159001 0.150855
C21   C     C_R   0.496685 0.502361 0.853288 0.074597
C22   C     C_R   0.499018 0.502491 0.148938 0.071402
C23   C     C_R   0.529247 0.563837 0.816748 -0.170991
C24   C     C_R   0.555340 0.465187 0.183932 -0.151448
H9    H     H_    0.552693 0.612493 0.844327 0.162956
H10   H     H_    0.598890 0.437016 0.155300 0.152029
C25   C     C_R   0.532281 0.563181 0.745174 -0.081421
C26   C     C_R   0.556090 0.464216 0.255529 -0.043643
C27   C     C_R   0.500552 0.500203 0.708607 -0.096397
C28   C     C_R   0.498556 0.499628 0.292888 -0.077672
C29   C     C_R   0.565853 0.525251 0.963355 -0.187264
C30   C     C_R   0.428687 0.483474 0.038894 -0.190870
H11   H     H_    0.619274 0.541194 0.934118 0.158216
H12   H     H_    0.375433 0.466925 0.068131 0.156696
C31   C     C_R   0.568040 0.526676 0.034922 -0.009340
C32   C     C_R   0.426066 0.483697 0.967316 -0.010703
C33   C     C_R   0.499217 0.504281 0.073255 0.044476
C34   C     C_R   0.495592 0.503467 0.928986 0.043879
C35   C     C_R   0.530063 0.733244 0.450186 0.587188
C36   C     C_R   0.456462 0.265649 0.459527 0.595970
C37   C     C_R   0.525723 0.809626 0.459437 -0.300560
C38   C     C_R   0.467056 0.189910 0.465266 -0.303573
H13   H     H_    0.546173 0.847833 0.419172 0.219195
H14   H     H_    0.434710 0.150586 0.432179 0.221194
C39   C     C_R   0.498488 0.838605 0.520696 -0.022069
C40   C     C_R   0.510960 0.162540 0.518379 -0.019187
C41   C     C_R   0.470128 0.788074 0.572100 0.328048
C42   C     C_R   0.550474 0.214564 0.562766 0.322667
C43   C     C_R   0.469172 0.711603 0.559034 -0.018559
C44   C     C_R   0.547174 0.290574 0.549600 -0.061334
H15   H     H_    0.444353 0.674426 0.597997 0.193707
H16   H     H_    0.579583 0.329601 0.582411 0.211525
N3    N     N_R   0.500010 0.683620 0.500020 -0.254335
N4    N     N_R   0.499990 0.316380 0.499980 -0.255326
C45   C     C_R   0.432715 0.958650 0.531680 -0.195238
C46   C     C_R   0.578312 0.042620 0.518886 -0.191446
C47   C     C_R   0.435963 0.036585 0.538331 0.393126
C48   C     C_R   0.576449 0.964686 0.525893 0.398048
C49   C     C_R   0.508814 0.079684 0.527506 -0.040952
C50   C     C_R   0.502685 0.921631 0.528466 -0.041309
S1    S     S_3+6 0.259217 0.587238 0.608706 0.023180
O9    O     O_2   0.291471 0.658143 0.575580 -0.276639
O10   O     O_2   0.197907 0.603731 0.661491 -0.239654
O11   O     O_3   0.332241 0.547216 0.647833 -0.576034
H17   H     H_    0.351580 0.582808 0.683569 0.360313
S2    S     S_3+6 0.743837 0.479985 0.637747 0.002927
O12   O     O_2   0.666960 0.433388 0.634340 -0.347783
O13   O     O_2   0.800897 0.440425 0.679807 -0.249938
O14   O     O_3   0.728927 0.560480 0.675857 -0.525202
H18   H     H_    0.716562 0.547604 0.724459 0.375462
C51   C     C_1   0.640753 0.553831 0.067511 0.262238
N5    N     N_1   0.698990 0.575618 0.093606 -0.219946
C52   C     C_1   0.350856 0.466006 0.934723 0.257542
N6    N     N_1   0.290601 0.451869 0.908619 -0.204641
S3    S     S_3+6 0.575554 0.708473 0.371974 0.059707
O15   O     O_2   0.512273 0.684798 0.321423 -0.301534
O16   O     O_2   0.624042 0.774149 0.342526 -0.239934
O17   O     O_3   0.635978 0.641233 0.382443 -0.524850
H19   H     H_    0.648188 0.624998 0.335217 0.354126
S4    S     S_3+6 0.371079 0.285509 0.413665 0.040355
O18   O     O_2   0.381068 0.355296 0.372698 -0.301246
O19   O     O_2   0.347839 0.223368 0.365065 -0.277670
O20   O     O_3   0.298157 0.290973 0.472109 -0.527553
H20   H     H_    0.249522 0.269794 0.449412 0.382891
S5    S     S_3+6 0.439175 0.817139 0.654293 0.091800
O21   O     O_2   0.485999 0.887170 0.675014 -0.166863
O22   O     O_2   0.353160 0.830605 0.652641 -0.231803
O23   O     O_3   0.451914 0.752020 0.713571 -0.504698
H21   H     H_    0.402928 0.718481 0.712723 0.355979
S6    S     S_3+6 0.598701 0.188815 0.638254 0.086802
O24   O     O_2   0.564991 0.114824 0.664006 -0.169682
O25   O     O_2   0.685297 0.185497 0.623321 -0.253252
O26   O     O_3   0.587379 0.251749 0.700164 -0.481545
H22   H     H_    0.633059 0.288882 0.694750 0.382455
C53   C     C_1   0.357167 0.916912 0.522613 0.454054
N7    N     N_1   0.296855 0.883585 0.514947 -0.147880
C54   C     C_1   0.650922 0.084389 0.498050 0.448921
N8    N     N_1   0.708823 0.117747 0.481020 -0.169252
S7    S     S_3+6 0.348119 0.079192 0.560105 0.070979
O27   O     O_2   0.302798 0.090492 0.495564 -0.273331
O28   O     O_2   0.297526 0.030360 0.608183 -0.195266
O29   O     O_3   0.369286 0.160907 0.598972 -0.482386
H23   H     H_    0.320383 0.186711 0.595803 0.399033
S8    S     S_3+6 0.666909 0.921601 0.530082 0.071184
O30   O     O_2   0.695226 0.907965 0.458150 -0.265577
O31   O     O_2   0.728465 0.970915 0.566450 -0.197434
O32   O     O_3   0.654679 0.841066 0.572909 -0.490082
H24   H     H_    0.701870 0.814973 0.561116 0.392708
C55   C     C_1   0.432462 0.372128 0.713506 0.355776
N9    N     N_1   0.403936 0.319481 0.687380 -0.171765
C56   C     C_1   0.376238 0.566515 0.293817 0.315320
N10   N     N_1   0.325409 0.592054 0.322905 -0.233993
C57   C     C_1   0.571196 0.627198 0.711347 0.349871
N11   N     N_1   0.602698 0.678372 0.684391 -0.146592
C58   C     C_1   0.617683 0.428238 0.289499 0.255675
N12   N     N_1   0.666978 0.399495 0.316782 -0.248177

loop_
_geom_bond_atom_site_label_1
_geom_bond_atom_site_label_2
_geom_bond_distance
_ccdc_geom_bond_type
C40   C42   1.414346 A    
C52   N6    1.157317 T    
C26   C58   1.445558 S    
S3    O15   1.501580 D    
C46   C49   1.416517 A    
S1    O9    1.501940 D    
S3    O17   1.675534 S    
C58   N12   1.157324 T    
C25   C27   1.420107 A    
O5    C3    1.294331 A    
C40   C49   1.515920 S    
S5    O22   1.502548 D    
C35   S3    1.775436 S    
O1    C1    1.290841 A    
Cu2   N4    2.007025 S    
C17   C19   1.393952 A    
C46   C48   1.422775 A    
C21   C34   1.473422 S    
C20   C22   1.400785 A    
C48   C50   1.422036 A    
C5    C15   1.403748 A    
C53   N7    1.157509 T    
C8    S1    1.769742 S    
O23   H21   0.990537 S    
C36   C38   1.409706 A    
C36   N4    1.385005 A    
O4    Cu1   1.953670 S    
C37   H13   1.082691 S    
S6    O24   1.502668 D    
C31   C51   1.444824 S    
C3    C5    1.462932 S    
C16   H6    1.078308 S    
C4    C6    1.472380 S    
C24   H10   1.084405 S    
C39   C41   1.412287 A    
C17   C27   1.420151 A    
C38   H14   1.082183 S    
C43   N3    1.373204 A    
C48   S8    1.785415 S    
C45   C50   1.415424 A    
C35   N3    1.389074 A    
C8    C10   1.398495 A    
O7    C3    1.289671 A    
C26   C28   1.410845 A    
C11   N1    1.409120 S    
C39   C50   1.514699 S    
C12   N2    1.411371 S    
Cu1   Cu2   2.670620 S    
C25   C57   1.445810 S    
C21   C23   1.397144 A    
O2    C2    1.295097 A    
C22   C24   1.400858 A    
C22   C33   1.473351 S    
S1    O10   1.503611 D    
C30   H12   1.084859 S    
C10   H1    1.082982 S    
S7    O28   1.503273 D    
C6    C16   1.404268 A    
C32   C52   1.444762 S    
S5    O23   1.682267 S    
C35   C37   1.409938 A    
C43   H15   1.075286 S    
C38   C40   1.396795 A    
S2    O13   1.503730 D    
C7    S2    1.771114 S    
O11   H17   0.990455 S    
O4    C2    1.294994 A    
C18   C56   1.445949 S    
C51   N5    1.157321 T    
S2    O12   1.498949 D    
C41   S5    1.773479 S    
C36   S4    1.773755 S    
S2    O14   1.679274 S    
S4    O20   1.682332 S    
C29   H11   1.084910 S    
C13   H3    1.082888 S    
O7    Cu2   1.936321 S    
C14   H4    1.082931 S    
C44   N4    1.369192 A    
C37   C39   1.394147 A    
C45   C47   1.421072 A    
O6    C4    1.299025 A    
S4    O19   1.504687 D    
C47   C49   1.422790 A    
C29   C34   1.402704 A    
C42   S6    1.771574 S    
C23   H9    1.084952 S    
S6    O26   1.683497 S    
O3    Cu2   1.953670 S    
O8    C4    1.289209 A    
S8    O32   1.682761 S    
C42   C44   1.412835 A    
C10   C12   1.400604 A    
C31   C33   1.411470 A    
C57   N11   1.157597 T    
C12   C14   1.393156 A    
C1    C28   1.462585 S    
O1    Cu1   1.953916 S    
C56   N10   1.157354 T    
O3    C1    1.288960 A    
O20   H20   0.990523 S    
S1    O11   1.679336 S    
C18   C28   1.411005 A    
S8    O31   1.503252 D    
O26   H22   0.990480 S    
S7    O29   1.682612 S    
C5    C7    1.415860 A    
C17   C55   1.445950 S    
O6    Cu2   1.944310 S    
C9    C11   1.399738 A    
Cu1   N3    2.007028 S    
C14   C16   1.393279 A    
C47   S7    1.785759 S    
O8    Cu1   1.936321 S    
S7    O27   1.503199 D    
S3    O16   1.503894 D    
S5    O21   1.502780 D    
C46   C54   1.448210 S    
C11   C13   1.393915 A    
C55   N9    1.157479 T    
C19   H7    1.084699 S    
C24   C26   1.393824 A    
C54   N8    1.157468 T    
C20   H8    1.084590 S    
C18   C20   1.394002 A    
S4    O18   1.496238 D    
C7    C9    1.398697 A    
C32   C34   1.411392 A    
C29   C31   1.394026 A    
C13   C15   1.393339 A    
C2    C27   1.480928 S    
C19   C21   1.397373 A    
O2    Cu2   1.953912 S    
S6    O25   1.502941 D    
C30   C33   1.402800 A    
C30   C32   1.394330 A    
O5    Cu1   1.944313 S    
C45   C53   1.448456 S    
C6    C8    1.418556 A    
O17   H19   0.990812 S    
N1    N2    1.246563 D    
O29   H23   0.990444 S    
C44   H16   1.076117 S    
C41   C43   1.413877 A    
O14   H18   0.990662 S    
C9    H2    1.083114 S    
C23   C25   1.393566 A    
O32   H24   0.990425 S    
C15   H5    1.080961 S    
S8    O30   1.503104 D    
