data_mof_unit_66283.cif
_audit_creation_date              2012-12-10T18:13:25-0500
_audit_creation_method            fapswitch 2.2
_symmetry_space_group_name_H-M    P1
_symmetry_Int_Tables_number       1
_space_group_crystal_system       triclinic
_cell_length_a                    18.339078
_cell_length_b                    18.340293
_cell_length_c                    25.94674
_cell_angle_alpha                 90.000047
_cell_angle_beta                  89.999967
_cell_angle_gamma                 89.997255
_cell_volume                      8727.03196575

loop_
_atom_site_label
_atom_site_type_symbol
_atom_type_description
_atom_site_fract_x
_atom_site_fract_y
_atom_site_fract_z
_atom_type_partial_charge
C1    C     C_R   0.859838 0.140140 0.249947 0.506272
C2    C     C_R   0.809377 0.255904 0.283506 -0.135961
C3    C     C_R   0.243691 0.309738 0.283164 -0.131469
C4    C     C_R   0.190247 0.256284 0.716860 -0.133055
C5    C     C_R   0.190247 0.256284 0.283140 -0.133055
C6    C     C_R   0.309355 0.755885 0.216470 -0.135201
C7    C     C_R   0.309355 0.755885 0.783530 -0.135201
C8    C     C_R   0.690226 0.756303 0.216884 -0.133869
C9    C     C_R   0.690226 0.756303 0.783116 -0.133869
C10   C     C_R   0.803716 0.196274 0.750053 0.040006
C11   C     C_R   0.803716 0.196274 0.249947 0.040006
C12   C     C_R   0.196301 0.196259 0.750032 0.040000
C13   C     C_R   0.859838 0.140140 0.750053 0.506272
C14   C     C_R   0.196301 0.196259 0.249968 0.040000
C15   C     C_R   0.303699 0.696260 0.250034 0.039872
C16   C     C_R   0.303699 0.696260 0.749966 0.039872
C17   C     C_R   0.696284 0.696274 0.250051 0.040140
C18   C     C_R   0.696284 0.696274 0.749948 0.040140
C19   C     C_R   0.744076 0.190665 0.783606 -0.132396
C20   C     C_R   0.744076 0.190665 0.216394 -0.132395
C21   C     C_R   0.256356 0.190235 0.783176 -0.133674
C22   C     C_R   0.256356 0.190235 0.216824 -0.133674
C23   C     C_R   0.244052 0.690644 0.283579 -0.134308
C24   C     C_R   0.140164 0.140139 0.249950 0.507593
C25   C     C_R   0.244052 0.690644 0.716421 -0.134309
C26   C     C_R   0.756332 0.690255 0.283203 -0.131719
C27   C     C_R   0.756332 0.690255 0.716797 -0.131719
C28   C     C_R   0.190617 0.744115 0.283570 -0.133700
C29   C     C_R   0.190617 0.744115 0.716430 -0.133700
C30   C     C_R   0.809778 0.743711 0.283179 -0.133568
C31   C     C_R   0.809778 0.743711 0.716820 -0.133569
C32   C     C_R   0.690639 0.244134 0.783595 -0.132950
C33   C     C_R   0.690639 0.244134 0.216405 -0.132951
C34   C     C_R   0.309799 0.243692 0.783155 -0.134388
C35   C     C_R   0.140164 0.140139 0.750050 0.507593
C36   C     C_R   0.309799 0.243692 0.216845 -0.134388
C37   C     C_R   0.196275 0.803739 0.250005 0.040189
C38   C     C_R   0.196275 0.803739 0.749995 0.040189
C39   C     C_R   0.803722 0.803737 0.250007 0.039931
C40   C     C_R   0.803722 0.803737 0.749993 0.039931
C41   C     C_R   0.696292 0.303753 0.750024 0.040052
C42   C     C_R   0.696292 0.303753 0.249976 0.040052
C43   C     C_R   0.303739 0.303722 0.749987 0.040069
C44   C     C_R   0.303739 0.303723 0.250013 0.040069
C45   C     C_R   0.060624 0.973033 0.026718 0.080969
C46   C     C_R   0.359834 0.640136 0.749953 0.505309
C47   C     C_R   0.060624 0.973033 0.973281 0.080969
C48   C     C_R   0.939371 0.026895 0.026718 0.081355
C49   C     C_R   0.939371 0.026895 0.973282 0.081355
C50   C     C_R   0.560638 0.526868 0.526718 0.081083
C51   C     C_R   0.560638 0.526868 0.473282 0.081083
C52   C     C_R   0.439366 0.473062 0.526718 0.081420
C53   C     C_R   0.439366 0.473062 0.473281 0.081420
C54   C     C_R   0.999998 0.999965 0.946239 -0.020296
C55   C     C_R   0.999998 0.999965 0.053761 -0.020296
C56   C     C_R   0.500001 0.499966 0.446239 -0.020773
C57   C     C_R   0.359834 0.640136 0.250047 0.505309
C58   C     C_R   0.500001 0.499966 0.553761 -0.020773
C59   C     C_R   0.140151 0.859872 0.249984 0.508317
C60   C     C_R   0.140151 0.859872 0.750016 0.508318
C61   C     C_R   0.859850 0.859868 0.249981 0.504646
C62   C     C_R   0.859850 0.859868 0.750018 0.504646
C63   C     C_R   0.640156 0.359876 0.749990 0.507340
C64   C     C_R   0.640156 0.359876 0.250010 0.507339
C65   C     C_R   0.359855 0.359863 0.749976 0.505603
C66   C     C_R   0.359855 0.359864 0.250024 0.505603
C67   C     C_R   1.000000 0.999973 0.109868 0.529232
C68   C     C_R   0.640159 0.640143 0.749945 0.508566
C69   C     C_R   1.000000 0.999973 0.890132 0.529232
C70   C     C_R   0.500000 0.499973 0.609868 0.529189
C71   C     C_R   0.500000 0.499973 0.390132 0.529189
C72   C     C_R   0.001345 0.999958 0.390028 0.529521
C73   C     C_R   0.001346 0.999958 0.609972 0.529521
C74   C     C_R   0.501345 0.499959 0.890028 0.529382
C75   C     C_R   0.501344 0.499958 0.109971 0.529374
C76   C     C_R   0.990776 0.062370 0.473522 -0.009393
C77   C     C_R   0.990776 0.062370 0.526477 -0.009395
C78   C     C_R   0.490786 0.562374 0.973523 -0.010367
C79   C     C_R   0.640159 0.640143 0.250055 0.508565
C80   C     C_R   0.490787 0.562374 0.026477 -0.010366
C81   C     C_R   0.009704 0.000121 0.445830 0.048150
C82   C     C_R   0.009704 0.000121 0.554171 0.048150
C83   C     C_R   0.509707 0.500124 0.945829 0.047998
C84   C     C_R   0.509704 0.500121 0.054170 0.047991
C85   C     C_R   0.040646 0.940425 0.472681 0.074316
C86   C     C_R   0.040647 0.940425 0.527319 0.074317
C87   C     C_R   0.540658 0.440432 0.972680 0.073859
C88   C     C_R   0.540648 0.440426 0.027318 0.073859
C89   C     C_3   0.923811 0.108531 0.529283 -0.265059
C90   C     C_R   0.809377 0.255904 0.716494 -0.135961
C91   C     C_3   0.923811 0.108531 0.470717 -0.265056
C92   C     C_3   0.423843 0.608564 0.029284 -0.264184
C93   C     C_3   0.423841 0.608562 0.970717 -0.264187
C94   C     C_R   0.255920 0.809350 0.216457 -0.132415
C95   C     C_R   0.255920 0.809350 0.783543 -0.132415
C96   C     C_R   0.743667 0.809758 0.216863 -0.133414
C97   C     C_R   0.743667 0.809758 0.783137 -0.133413
C98   C     C_R   0.755944 0.309370 0.716483 -0.134344
C99   C     C_R   0.755944 0.309370 0.283517 -0.134344
C100  C     C_R   0.243691 0.309738 0.716836 -0.131468
F1    F     F_    0.119268 0.945030 0.051848 -0.153057
F2    F     F_    0.119268 0.945029 0.948152 -0.153057
F3    F     F_    0.880728 0.054901 0.051847 -0.152718
F4    F     F_    0.880728 0.054901 0.948153 -0.152718
F5    F     F_    0.619292 0.554846 0.551846 -0.152558
F6    F     F_    0.619292 0.554846 0.448154 -0.152558
F7    F     F_    0.380711 0.445086 0.551847 -0.152243
F8    F     F_    0.380711 0.445086 0.448153 -0.152243
H1    H     H_    0.876532 0.079184 0.546324 0.134667
H2    H     H_    0.261355 0.854932 0.809806 0.144463
H3    H     H_    0.737901 0.855669 0.190923 0.142653
H4    H     H_    0.737901 0.855669 0.809077 0.142653
H5    H     H_    0.761383 0.354955 0.690223 0.141993
H6    H     H_    0.761383 0.354956 0.309777 0.141993
H7    H     H_    0.237928 0.355647 0.690893 0.145052
H8    H     H_    0.237928 0.355647 0.309107 0.145052
H9    H     H_    0.854976 0.261304 0.690238 0.138096
H10   H     H_    0.854976 0.261304 0.309762 0.138096
H11   H     H_    0.144315 0.262021 0.690932 0.141122
H12   H     H_    0.876531 0.079184 0.453677 0.134666
H13   H     H_    0.144315 0.262021 0.309068 0.141122
H14   H     H_    0.354954 0.761284 0.190213 0.138611
H15   H     H_    0.354954 0.761284 0.809787 0.138611
H16   H     H_    0.644294 0.762041 0.190957 0.140537
H17   H     H_    0.644294 0.762041 0.809043 0.140537
H18   H     H_    0.738645 0.145080 0.809868 0.144726
H19   H     H_    0.738645 0.145080 0.190133 0.144726
H20   H     H_    0.262118 0.144322 0.809115 0.142415
H21   H     H_    0.262118 0.144322 0.190885 0.142415
H22   H     H_    0.238617 0.645057 0.309838 0.142269
H23   H     H_    0.935119 0.163088 0.546147 0.152080
H24   H     H_    0.238618 0.645057 0.690162 0.142269
H25   H     H_    0.762091 0.644344 0.309144 0.144824
H26   H     H_    0.762091 0.644344 0.690856 0.144824
H27   H     H_    0.145019 0.738722 0.309828 0.142426
H28   H     H_    0.145020 0.738722 0.690172 0.142426
H29   H     H_    0.855712 0.737977 0.309105 0.141312
H30   H     H_    0.855712 0.737977 0.690894 0.141312
H31   H     H_    0.645041 0.238742 0.809853 0.142928
H32   H     H_    0.645041 0.238741 0.190147 0.142929
H33   H     H_    0.355734 0.237957 0.809081 0.140726
H34   H     H_    0.935119 0.163088 0.453854 0.152079
H35   H     H_    0.355734 0.237957 0.190919 0.140726
H36   H     H_    0.042833 0.832628 0.454893 0.231025
H37   H     H_    0.125674 0.874277 0.454706 0.223931
H38   H     H_    0.125671 0.874269 0.545291 0.223929
H39   H     H_    0.042827 0.832630 0.545110 0.231025
H40   H     H_    0.542902 0.332638 0.954891 0.231057
H41   H     H_    0.625719 0.374332 0.954702 0.225067
H42   H     H_    0.625661 0.374257 0.045289 0.225070
H43   H     H_    0.542809 0.332632 0.045108 0.231052
H44   H     H_    0.376550 0.579241 0.046326 0.135075
H45   H     H_    0.376546 0.579238 0.953677 0.135075
H46   H     H_    0.435178 0.663116 0.046146 0.152608
H47   H     H_    0.435174 0.663114 0.953853 0.152609
H48   H     H_    0.261355 0.854932 0.190194 0.144463
N1    N     N_3   0.070814 0.880088 0.444628 -0.596437
N2    N     N_3   0.070814 0.880088 0.555373 -0.596433
N3    N     N_3   0.570856 0.380112 0.944624 -0.596040
N4    N     N_3   0.570805 0.380084 0.055371 -0.596024
O1    O     O_3   0.000000 0.000010 0.249960 -0.447054
O2    O     O_R   0.414520 0.646190 0.219700 -0.551500
O3    O     O_R   0.585480 0.646190 0.780300 -0.548697
O4    O     O_R   0.585480 0.646190 0.219700 -0.548697
O5    O     O_R   0.085460 0.853840 0.280340 -0.543348
O6    O     O_R   0.085460 0.853840 0.719660 -0.543348
O7    O     O_R   0.914540 0.853840 0.280340 -0.550048
O8    O     O_R   0.914540 0.853840 0.719660 -0.550048
O9    O     O_R   0.585460 0.353840 0.780340 -0.542866
O10   O     O_R   0.585460 0.353840 0.219660 -0.542867
O11   O     O_R   0.414540 0.353840 0.780340 -0.550593
O12   O     O_3   0.000000 0.000010 0.750040 -0.447054
O13   O     O_R   0.414540 0.353840 0.219660 -0.550592
O14   O     O_R   0.853820 0.914550 0.219610 -0.547992
O15   O     O_R   0.853820 0.914550 0.780390 -0.547992
O16   O     O_R   0.146180 0.914550 0.219610 -0.545032
O17   O     O_R   0.146180 0.914550 0.780390 -0.545032
O18   O     O_R   0.353820 0.414550 0.719610 -0.544650
O19   O     O_R   0.353820 0.414550 0.280390 -0.544650
O20   O     O_R   0.646180 0.414550 0.719610 -0.548375
O21   O     O_R   0.646180 0.414550 0.280390 -0.548375
O22   O     O_R   0.146170 0.085440 0.219600 -0.547110
O23   O     O_3   0.500000 0.500010 0.749960 -0.446995
O24   O     O_R   0.146170 0.085440 0.780400 -0.547110
O25   O     O_R   0.853830 0.085440 0.219600 -0.544026
O26   O     O_R   0.853830 0.085440 0.780400 -0.544026
O27   O     O_R   0.646170 0.585440 0.719600 -0.543750
O28   O     O_R   0.646170 0.585440 0.280400 -0.543750
O29   O     O_R   0.353830 0.585440 0.719600 -0.547350
O30   O     O_R   0.353830 0.585440 0.280400 -0.547350
O31   O     O_R   0.939270 0.999980 0.134160 -0.521711
O32   O     O_R   0.939270 0.999980 0.865840 -0.521711
O33   O     O_R   0.060730 0.999980 0.134160 -0.522235
O34   O     O_3   0.500000 0.500010 0.250040 -0.446995
O35   O     O_R   0.060730 0.999980 0.865840 -0.522235
O36   O     O_R   0.439270 0.499980 0.634160 -0.521728
O37   O     O_R   0.439270 0.499980 0.365840 -0.521729
O38   O     O_R   0.560730 0.499980 0.634160 -0.522263
O39   O     O_R   0.560730 0.499980 0.365840 -0.522263
O40   O     O_R   0.000000 0.060760 0.365760 -0.550825
O41   O     O_R   0.000000 0.060760 0.634240 -0.550825
O42   O     O_R   0.500000 0.560760 0.865760 -0.550923
O43   O     O_R   0.500000 0.560760 0.134240 -0.550921
O44   O     O_R   1.000000 0.939310 0.365770 -0.506147
O45   O     O_R   0.914520 0.146190 0.280300 -0.551986
O46   O     O_R   0.000000 0.939310 0.634230 -0.506148
O47   O     O_R   0.500000 0.439310 0.865770 -0.506290
O48   O     O_R   0.500000 0.439310 0.134230 -0.506286
O49   O     O_R   0.914520 0.146190 0.719700 -0.551986
O50   O     O_R   0.085480 0.146190 0.280300 -0.548156
O51   O     O_R   0.085480 0.146190 0.719700 -0.548156
O52   O     O_R   0.414520 0.646190 0.780300 -0.551500
Zn1   Zn    Zn3+2 0.000000 0.913260 0.293350 0.947580
Zn2   Zn    Zn3+2 0.413230 0.500000 0.293420 0.949839
Zn3   Zn    Zn3+2 0.586770 0.500000 0.706580 0.952479
Zn4   Zn    Zn3+2 0.586770 0.500000 0.293420 0.952478
Zn5   Zn    Zn3+2 0.000000 0.086780 0.293330 0.930837
Zn6   Zn    Zn3+2 0.000000 0.086780 0.706670 0.930837
Zn7   Zn    Zn3+2 0.500000 0.586780 0.793330 0.930688
Zn8   Zn    Zn3+2 0.500000 0.586780 0.206670 0.930688
Zn9   Zn    Zn3+2 0.000000 0.913260 0.706650 0.947580
Zn10  Zn    Zn3+2 0.500000 0.413260 0.793350 0.947398
Zn11  Zn    Zn3+2 0.500000 0.413260 0.206650 0.947398
Zn12  Zn    Zn3+2 0.913230 0.000000 0.206580 0.949848
Zn13  Zn    Zn3+2 0.913230 0.000000 0.793420 0.949848
Zn14  Zn    Zn3+2 0.086770 0.000000 0.206580 0.952490
Zn15  Zn    Zn3+2 0.086770 0.000000 0.793420 0.952491
Zn16  Zn    Zn3+2 0.413230 0.500000 0.706580 0.949839

loop_
_geom_bond_atom_site_label_1
_geom_bond_atom_site_label_2
_ccdc_geom_bond_type
C48   C55   A    
C83   C87   A    
C87   C88   A    
O36   Zn16  S    
C34   H33   S    
H41   N3    S    
O1    Zn5   S    
C28   H27   S    
C44   C66   S    
C78   C93   S    
C1    C11   S    
C69   O35   A    
C79   O4    A    
C80   C84   A    
C49   F4    S    
O28   Zn4   S    
C85   C86   A    
O48   Zn11  S    
O26   Zn13  S    
C77   C89   S    
O50   Zn5   S    
H42   N4    S    
O43   Zn8   S    
C65   O11   A    
C17   C26   A    
C77   C82   A    
C36   H35   S    
O33   Zn14  S    
C3    H8    S    
O23   Zn10  S    
C34   C43   A    
O34   Zn4   S    
O12   Zn15  S    
C67   O31   A    
C75   C84   S    
C53   C56   A    
C72   O40   A    
C65   O18   A    
C19   C32   A    
O46   Zn9   S    
C18   C68   S    
C49   C54   A    
O1    Zn12  S    
C5    H13   S    
C17   C79   S    
C40   C62   S    
C31   C40   A    
O6    Zn9   S    
O23   Zn16  S    
C20   C33   A    
C51   C56   A    
C75   O48   A    
C14   C24   S    
C35   O51   A    
O1    Zn1   S    
O12   Zn9   S    
C6    C15   A    
C78   C83   A    
C57   O2    A    
C52   F7    S    
C6    C94   A    
O25   Zn12  S    
C8    C96   A    
C38   C95   A    
C92   H44   S    
C50   F5    S    
C9    C97   A    
C32   C41   A    
C10   C13   S    
C4    H11   S    
O47   Zn10  S    
C4    C12   A    
C1    O45   A    
C74   C83   S    
O18   Zn16  S    
C72   C81   S    
C59   O5    A    
C94   H48   S    
C72   O44   A    
C91   H34   S    
O4    Zn8   S    
C15   C23   A    
C70   O38   A    
C47   F2    S    
O23   Zn3   S    
O40   Zn5   S    
C15   C57   S    
C100  H7    S    
C85   N1    S    
C99   H6    S    
C2    C11   A    
C69   O32   A    
C71   O37   A    
O27   Zn3   S    
C74   O47   A    
C45   C47   A    
C25   C29   A    
C39   C61   S    
C96   H3    S    
O2    Zn8   S    
C11   C20   A    
C79   O28   A    
C61   O14   A    
C24   O22   A    
O39   Zn4   S    
C50   C58   A    
C90   H9    S    
C13   O49   A    
C93   H47   S    
C29   C38   A    
O14   Zn12  S    
C76   C77   A    
C68   O27   A    
C32   H31   S    
C59   O16   A    
C16   C46   S    
C40   C97   A    
C97   H4    S    
C24   O50   A    
C58   C70   S    
C89   H1    S    
O34   Zn8   S    
C21   C34   A    
C74   O42   A    
C75   O43   A    
C60   O17   A    
C82   C86   A    
C48   F3    S    
C27   C31   A    
C12   C21   A    
C95   H2    S    
C60   O6    A    
C63   O20   A    
C23   H22   S    
C31   H30   S    
H40   N3    S    
O42   Zn7   S    
C80   C92   S    
C2    H10   S    
O34   Zn2   S    
O17   Zn15  S    
H37   N1    S    
O12   Zn13  S    
O9    Zn10  S    
C10   C19   A    
C43   C65   S    
C56   C71   S    
O45   Zn5   S    
C3    C5    A    
C50   C51   A    
C66   O13   A    
C23   C28   A    
C43   C100  A    
C21   H20   S    
O30   Zn2   S    
C10   C90   A    
C5    C14   A    
C37   C59   S    
C52   C58   A    
C20   H19   S    
C47   C54   A    
C38   C60   S    
C64   O21   A    
C37   C94   A    
O5    Zn1   S    
C7    C16   A    
C2    C99   A    
C26   C30   A    
C3    C44   A    
C45   F1    S    
C22   H21   S    
C36   C44   A    
O29   Zn16  S    
C89   C91   S    
O49   Zn6   S    
C46   O29   A    
O13   Zn11  S    
C42   C64   S    
C73   C82   S    
O11   Zn10  S    
O12   Zn6   S    
C52   C53   A    
O1    Zn14  S    
C68   O3    A    
O16   Zn14  S    
C16   C25   A    
O51   Zn6   S    
C33   C42   A    
O32   Zn13  S    
O23   Zn7   S    
C13   O26   A    
C91   H12   S    
C27   H26   S    
O20   Zn3   S    
O22   Zn14  S    
C18   C27   A    
C84   C88   A    
C7    H15   S    
C98   H5    S    
C73   O46   A    
O15   Zn13  S    
C76   C81   A    
O41   Zn6   S    
C55   C67   S    
C7    C95   A    
C86   N2    S    
C71   O39   A    
H38   N2    S    
O52   Zn7   S    
C1    O25   A    
C22   C36   A    
C66   O19   A    
C19   H18   S    
C6    H14   S    
C8    C17   A    
C89   H23   S    
C4    C100  A    
O35   Zn15  S    
H43   N4    S    
C14   C22   A    
O38   Zn3   S    
C35   O24   A    
C57   O30   A    
C26   H25   S    
C42   C99   A    
H39   N2    S    
C53   F8    S    
C62   O8    A    
C54   C69   S    
C73   O41   A    
C28   C37   A    
C51   F6    S    
C46   O52   A    
C62   O15   A    
O44   Zn1   S    
O19   Zn2   S    
C93   H45   S    
C92   C93   S    
C87   N3    S    
C30   C39   A    
C8    H16   S    
O21   Zn4   S    
C78   C80   A    
C88   N4    S    
C64   O10   A    
C9    H17   S    
C39   C96   A    
C63   O9    A    
C76   C91   S    
O10   Zn11  S    
C9    C18   A    
C29   H28   S    
C45   C55   A    
O7    Zn1   S    
C70   O36   A    
C48   C49   A    
C30   H29   S    
O8    Zn9   S    
C41   C63   S    
C41   C98   A    
C92   H46   S    
C33   H32   S    
O24   Zn15  S    
C61   O7    A    
H36   N1    S    
C67   O33   A    
C25   H24   S    
O31   Zn12  S    
C90   C98   A    
C12   C35   S    
C81   C85   A    
O37   Zn2   S    
O34   Zn11  S    
O3    Zn7   S    
