data_mof_unit_27662.cif
_audit_creation_date              2013-03-05T16:44:39-0500
_audit_creation_method            fapswitch 2.2
_symmetry_space_group_name_H-M    P1
_symmetry_Int_Tables_number       1
_space_group_crystal_system       triclinic
_cell_length_a                    27.490939
_cell_length_b                    10.647599
_cell_length_c                    9.842966
_cell_angle_alpha                 89.918951
_cell_angle_beta                  90.36608
_cell_angle_gamma                 90.145961
_cell_volume                      2881.08815781

loop_
_atom_site_label
_atom_site_type_symbol
_atom_site_description
_atom_site_fract_x
_atom_site_fract_y
_atom_site_fract_z
_atom_type_partial_charge
O1    O     O_R   0.500010 0.316790 0.614690 -0.617326
O2    O     O_R   0.500000 0.316760 0.385350 -0.628592
C1    C     C_R   0.497844 0.259867 0.500132 0.886063
O3    O     O_R   0.428760 0.500040 0.614660 -0.582775
O4    O     O_R   0.428750 0.500000 0.385310 -0.624004
C2    C     C_R   0.406066 0.500534 0.499645 0.914116
Zn1   Zn    Zn3+2 0.500000 0.500020 0.653130 0.990263
Zn2   Zn    Zn3+2 0.500000 0.499980 0.346870 0.961292
O5    O     O_R   0.500000 0.683240 0.614650 -0.581865
O6    O     O_R   0.499990 0.683210 0.385310 -0.596369
O7    O     O_R   0.571250 0.500000 0.614690 -0.628133
O8    O     O_R   0.571240 0.499960 0.385340 -0.621869
C3    C     C_R   0.496757 0.740134 0.499696 0.900473
C4    C     C_R   0.593924 0.501921 0.500502 0.869942
C5    C     C_R   0.179580 0.564417 0.628547 0.523842
O9    O     O_2   0.206221 0.543727 0.742066 -0.534520
N1    N     N_R   0.201778 0.569714 0.504738 -0.346323
C6    C     C_R   0.175908 0.588564 0.387449 0.542218
C7    C     C_R   0.283906 0.642221 0.557713 -0.125093
C8    C     C_R   0.333854 0.624039 0.558773 0.319283
C9    C     C_R   0.322592 0.424725 0.437981 0.026704
C10   C     C_R   0.272467 0.445553 0.437902 -0.085539
C11   C     C_R   0.253226 0.553146 0.498328 0.193144
C12   C     C_R   0.101764 0.598270 0.518354 -0.061016
C13   C     C_R   0.129160 0.578219 0.637712 -0.014283
C14   C     C_R   0.105654 0.570119 0.762898 -0.124120
C15   C     C_R   0.125315 0.602688 0.391977 -0.046632
C16   C     C_R   0.353575 0.515245 0.499197 -0.167280
H1    H     H_    0.248184 0.376529 0.393198 0.165552
H2    H     H_    0.126010 0.557222 0.856493 0.193207
C17   C     C_R   0.646212 0.522503 0.502407 -0.136703
C18   C     C_R   0.975420 0.580606 0.651545 0.006809
C19   C     C_R   0.973248 0.661715 0.417729 -0.027860
C20   C     C_R   0.948803 0.618046 0.535083 0.026175
C21   C     C_R   0.949890 0.532355 0.763882 -0.238339
C22   C     C_R   0.899480 0.519969 0.762281 0.452038
C23   C     C_R   0.872502 0.557768 0.646348 -0.118175
C24   C     C_R   0.897468 0.611433 0.534981 -0.102143
C25   C     C_R   0.871231 0.657710 0.422108 -0.081212
C26   C     C_R   0.820872 0.642152 0.417322 0.594506
N2    N     N_R   0.797631 0.583037 0.521281 -0.337653
C27   C     C_R   0.821631 0.543097 0.635295 0.591598
C28   C     C_R   0.728250 0.450814 0.457760 0.123459
C29   C     C_R   0.677924 0.429834 0.452472 -0.003115
C30   C     C_R   0.664707 0.636799 0.554477 0.013473
C31   C     C_R   0.714950 0.656732 0.558946 0.123171
C32   C     C_R   0.746352 0.563641 0.511610 0.238017
O10   O     O_2   0.795958 0.488551 0.735646 -0.477003
C33   C     C_R   0.026799 0.589885 0.650483 0.093175
C34   C     C_R   0.050687 0.610318 0.525101 0.038117
C35   C     C_R   0.023654 0.637467 0.405605 0.070089
C36   C     C_R   0.055279 0.574593 0.769161 -0.201283
H3    H     H_    0.968492 0.497821 0.853133 0.176949
H4    H     H_    0.039541 0.567462 0.868667 0.134498
O11   O     O_2   0.199139 0.593880 0.267166 -0.534223
C37   C     C_R   0.097746 0.613954 0.272843 -0.186672
H5    H     H_    0.268670 0.725587 0.603704 0.186062
H6    H     H_    0.114983 0.607661 0.174349 0.187850
C38   C     C_R   0.946105 0.729555 0.319478 0.403694
C39   C     C_R   0.895607 0.722464 0.319129 -0.140022
O12   O     O_2   0.795204 0.684281 0.309185 -0.532825
C40   C     C_R   0.047219 0.626621 0.278155 0.138191
H7    H     H_    0.875484 0.770853 0.239909 0.224283
C41   C     C_R   0.488163 0.063846 0.623199 0.068421
C42   C     C_R   0.487595 0.129151 0.501124 -0.141569
C43   C     C_R   0.474002 0.067166 0.381247 -0.251702
H8    H     H_    0.467789 0.119210 0.288054 0.171240
C44   C     C_R   0.472303 0.936254 0.379642 0.109842
C45   C     C_R   0.485600 0.871190 0.499957 -0.161025
C46   C     C_R   0.486937 0.936026 0.622981 0.172062
C47   C     C_3   0.520751 0.927708 0.742450 0.219299
C48   C     C_3   0.522486 0.070277 0.741191 -0.510721
H9    H     H_    0.556090 0.882537 0.719097 0.094146
H10   H     H_    0.505617 0.115359 0.831123 0.239369
H11   H     H_    0.558721 0.108530 0.712836 0.174854
C49   C     C_R   0.470371 0.419602 0.070916 0.181713
N3    N     N_R   0.499670 0.499140 0.142800 -0.112542
C50   C     C_R   0.532619 0.569970 0.072549 -0.063938
H12   H     H_    0.558104 0.628882 0.127434 0.158197
C51   C     C_R   0.532757 0.569524 0.928410 -0.030242
H13   H     H_    0.558375 0.628009 0.874308 0.145607
N4    N     N_R   0.499670 0.499180 0.857150 -0.102108
C52   C     C_R   0.470322 0.419771 0.928226 0.185820
C53   C     C_3   0.416151 0.415698 0.921625 -0.445667
C54   C     C_3   0.416208 0.415220 0.075860 -0.458200
H14   H     H_    0.400184 0.502521 0.877221 0.257649
H15   H     H_    0.402502 0.326515 0.876667 0.205803
H16   H     H_    0.400191 0.501603 0.120264 0.241602
H17   H     H_    0.402679 0.325634 0.119926 0.207826
N5    N     N_3   0.340275 0.310467 0.377932 -0.436455
H18   H     H_    0.325158 0.235364 0.431817 0.201499
H19   H     H_    0.377849 0.301142 0.388726 0.179545
Cl1   Cl    Cl    0.972371 0.846431 0.215499 -0.575763
N6    N     N_3   0.633094 0.734692 0.600727 -0.472668
H20   H     H_    0.608879 0.757890 0.522287 0.175445
H21   H     H_    0.613342 0.701418 0.683634 0.202462
N7    N     N_3   0.734804 0.771251 0.612338 -0.425716
H22   H     H_    0.720958 0.846070 0.555211 0.215033
H23   H     H_    0.722960 0.781298 0.712459 0.220104
N8    N     N_3   0.019807 0.610256 0.155048 -0.412602
H24   H     H_    0.033133 0.673570 0.082916 0.225152
H25   H     H_    0.026357 0.519612 0.118877 0.182143
N9    N     N_3   0.460178 0.870810 0.256212 -0.375575
H26   H     H_    0.427387 0.823388 0.272752 0.214117
H27   H     H_    0.453612 0.934347 0.177147 0.224208
Cl2   Cl    Cl    0.490484 0.866473 0.888197 -0.595150
N10   N     N_3   0.659792 0.313259 0.399214 -0.456754
H28   H     H_    0.637564 0.332600 0.315268 0.214215
H29   H     H_    0.638655 0.269738 0.473731 0.182084
N11   N     N_3   0.761586 0.357855 0.409758 -0.416982
H30   H     H_    0.755804 0.275025 0.464569 0.219289
H31   H     H_    0.753665 0.340104 0.307532 0.231080
Cl3   Cl    Cl    0.873356 0.457023 0.911217 -0.494038
Cl4   Cl    Cl    0.370627 0.741962 0.632608 -0.585697

loop_
_geom_bond_atom_site_label_1
_geom_bond_atom_site_label_2
_geom_bond_distance
_ccdc_geom_bond_type
C43   C44   1.394671 A    
C10   H1    1.083540 S    
C21   H3    1.078314 S    
N2    C27   1.366097 A    
C21   C22   1.391747 A    
C12   C15   1.406667 A    
C4    C17   1.453504 S    
N7    H22   1.045589 S    
N3    C50   1.367633 A    
C7    H5    1.083393 S    
C44   N9    1.438309 S    
Zn1   O7    1.997312 S    
N1    C11   1.427560 S    
C39   H7    1.083654 S    
C22   C23   1.415479 A    
C53   H14   1.112103 S    
O3    Zn1   1.992348 S    
C24   C25   1.409742 A    
O7    C4    1.288814 A    
C50   C51   1.418796 A    
C29   N10   1.435037 S    
C30   N6    1.435260 S    
C5    O9    1.350222 S    
Zn1   O5    1.986754 S    
C23   C27   1.410333 A    
O5    C3    1.285394 A    
N11   H30   1.045560 S    
C53   C54   1.518127 S    
C2    C16   1.451872 S    
C7    C8    1.387149 A    
C44   C45   1.417547 A    
N10   H28   1.045104 S    
C53   H15   1.111577 S    
C46   C47   1.496970 S    
C28   N11   1.433277 S    
C41   C46   1.361310 A    
C43   H8    1.083849 S    
C38   C39   1.390057 A    
C19   C38   1.416106 A    
O1    Zn1   1.987838 S    
C9    C10   1.396267 A    
N10   H29   1.045696 S    
C1    C42   1.419373 S    
C35   C40   1.420535 A    
C48   H11   1.112303 S    
C22   Cl3   1.766997 S    
C49   C52   1.404482 A    
N7    H23   1.045580 S    
C36   H4    1.075774 S    
C19   C20   1.417354 A    
C9    N5    1.440285 S    
C12   C34   1.412318 A    
C17   C29   1.409411 A    
C18   C21   1.409129 A    
C49   N3    1.362928 A    
C51   N4    1.367551 A    
C25   C26   1.394400 A    
C47   H9    1.110640 S    
C54   H17   1.111491 S    
C15   C37   1.397356 A    
C8    C16   1.410267 A    
C34   C35   1.417120 A    
C13   C14   1.397470 A    
C30   C31   1.397333 A    
C26   O12   1.350076 S    
O1    C1    1.281888 A    
C18   C20   1.413468 A    
C7    C11   1.394195 A    
C28   C29   1.401504 A    
C23   C24   1.415982 A    
C14   C36   1.387572 A    
N5    H19   1.042691 S    
C52   C53   1.490726 S    
Zn2   O8    1.992348 S    
C33   C36   1.411544 A    
N8    H25   1.045637 S    
N1    C6    1.366917 A    
N2    C32   1.426825 S    
N6    H20   1.045939 S    
N9    H27   1.045580 S    
C27   O10   1.347698 S    
C12   C13   1.407784 A    
N6    H21   1.044106 S    
C6    O11   1.349837 S    
C40   N8    1.433458 S    
C48   H10   1.112053 S    
C26   N2    1.362332 A    
C31   N7    1.433769 S    
O8    C4    1.290417 A    
N4    C52   1.362839 A    
Zn2   N3    2.008649 S    
C37   C40   1.397222 A    
O3    C2    1.289125 A    
C54   H16   1.111998 S    
C5    N1    1.367410 A    
C31   C32   1.398426 A    
C20   C24   1.412812 A    
C9    C16   1.417184 A    
O2    Zn2   1.986755 S    
C6    C15   1.400336 A    
C51   H13   1.081191 S    
O6    C3    1.283124 A    
O4    Zn2   1.997314 S    
C14   H2    1.083602 S    
C19   C35   1.416031 A    
C41   C42   1.387440 A    
O2    C1    1.282828 A    
C47   C48   1.518682 S    
C42   C43   1.401002 A    
C8    Cl4   1.764478 S    
C50   H12   1.081686 S    
N5    H18   1.045673 S    
O4    C2    1.290130 A    
C3    C45   1.429512 S    
C25   C39   1.398648 A    
N8    H24   1.045683 S    
C37   H6    1.084031 S    
C41   C48   1.493240 S    
C45   C46   1.394972 A    
N11   H31   1.045521 S    
C18   C33   1.415770 A    
C5    C13   1.397743 A    
Zn1   N4    2.008248 S    
Zn2   O6    1.987837 S    
C33   C34   1.417926 A    
C17   C30   1.413335 A    
C47   Cl2   1.784741 S    
N9    H26   1.045661 S    
C10   C11   1.398211 A    
C38   Cl1   1.766018 S    
C28   C32   1.402568 A    
C49   C54   1.490704 S    
