data_mof_unit_12073.cif
_audit_creation_date              2012-12-10T20:34:55-0500
_audit_creation_method            fapswitch 2.2
_symmetry_space_group_name_H-M    P1
_symmetry_Int_Tables_number       1
_space_group_crystal_system       triclinic
_cell_length_a                    10.616782
_cell_length_b                    10.706743
_cell_length_c                    9.868612
_cell_angle_alpha                 88.951561
_cell_angle_beta                  90.311375
_cell_angle_gamma                 90.45756
_cell_volume                      1121.5372795

loop_
_atom_site_label
_atom_site_type_symbol
_atom_type_description
_atom_site_fract_x
_atom_site_fract_y
_atom_site_fract_z
_atom_type_partial_charge
C1    C     C_R   0.504123 0.259646 0.500722 0.880547
C2    C     C_R   0.545906 0.932745 0.618159 0.128926
C3    C     C_3   0.476657 0.919072 0.748696 -0.462363
C4    C     C_R   0.257833 0.505058 0.499613 0.827832
C5    C     C_3   0.474643 0.060071 0.750811 -0.514077
C6    C     C_R   0.399348 0.452153 0.071764 0.145956
C7    C     C_R   0.594182 0.556362 0.071339 -0.139830
C8    C     C_R   0.594405 0.555999 0.927440 -0.134075
C9    C     C_R   0.398256 0.455129 0.928743 0.171421
C10   C     C_3   0.348767 0.325933 0.920713 -0.526589
C11   C     C_3   0.355928 0.318481 0.074369 -0.061344
C12   C     C_3   0.878653 0.508015 0.499840 0.194664
C13   C     C_R   0.505215 0.739902 0.498858 0.869047
C14   C     C_R   0.742225 0.504955 0.500048 0.824945
C15   C     C_3   0.071222 0.374325 0.528350 -0.411778
C16   C     C_3   0.926934 0.374524 0.530506 -0.398620
C17   C     C_3   0.073584 0.597048 0.610294 -0.394705
C18   C     C_3   0.071268 0.556534 0.360023 -0.398720
C19   C     C_3   0.121391 0.508255 0.499334 0.188642
C20   C     C_3   0.228229 0.296990 0.143084 -0.355196
C21   C     C_3   0.183609 0.161986 0.128918 -0.900100
C22   C     C_3   0.929067 0.598442 0.609075 -0.408731
C23   C     C_3   0.927846 0.553419 0.359134 -0.399617
C24   C     C_R   0.544682 0.060407 0.619949 0.129970
C25   C     C_R   0.525545 0.128018 0.499723 -0.107215
C26   C     C_R   0.534122 0.066749 0.375187 -0.229939
C27   C     C_R   0.535236 0.937608 0.373685 -0.240877
C28   C     C_R   0.528192 0.870880 0.496789 -0.106914
H1    H     H_    0.107529 0.338707 0.627730 0.165175
H2    H     H_    0.533267 0.097704 0.834543 0.198881
H3    H     H_    0.671332 0.600099 0.125111 0.140960
H4    H     H_    0.104059 0.309644 0.449227 0.158743
H5    H     H_    0.671828 0.599240 0.872837 0.138250
H6    H     H_    0.252214 0.323333 0.876510 0.195286
H7    H     H_    0.417489 0.265730 0.871818 0.202891
H8    H     H_    0.430586 0.254410 0.112621 0.167856
H9    H     H_    0.889833 0.308483 0.453772 0.160730
H10   H     H_    0.893406 0.341167 0.631690 0.170288
H11   H     H_    0.106818 0.565416 0.712398 0.181065
H12   H     H_    0.891308 0.648333 0.334091 0.160135
H13   H     H_    0.894345 0.570084 0.711430 0.176420
H14   H     H_    0.105358 0.653707 0.339863 0.166820
H15   H     H_    0.105284 0.497984 0.276419 0.172470
H16   H     H_    0.895180 0.489443 0.278151 0.181983
H17   H     H_    0.169752 0.139223 0.020499 0.265450
H18   H     H_    0.253663 0.097012 0.174766 0.261638
H19   H     H_    0.092541 0.148722 0.182313 0.244730
H20   H     H_    0.238786 0.315628 0.252520 0.226660
H21   H     H_    0.155969 0.360814 0.099256 0.196071
H22   H     H_    0.110818 0.693379 0.592121 0.153610
H23   H     H_    0.895287 0.694956 0.587330 0.155898
H24   H     H_    0.530532 0.117071 0.279169 0.164770
H25   H     H_    0.531475 0.891210 0.277086 0.171401
H26   H     H_    0.381453 0.876397 0.736683 0.204544
H27   H     H_    0.535962 0.876762 0.830334 0.200294
H28   H     H_    0.377893 0.098125 0.739555 0.203595
N1    N     N_R   0.499150 0.499140 0.142800 -0.114609
N2    N     N_R   0.499150 0.499180 0.857150 -0.099861
O1    O     O_R   0.500020 0.316790 0.614690 -0.612740
O2    O     O_R   0.500000 0.316760 0.385350 -0.626714
O3    O     O_R   0.314800 0.500000 0.614670 -0.622104
O4    O     O_R   0.314790 0.499960 0.385330 -0.635838
O5    O     O_R   0.500000 0.683240 0.614650 -0.618738
O6    O     O_R   0.499980 0.683210 0.385310 -0.621670
O7    O     O_R   0.685210 0.500040 0.614670 -0.630709
O8    O     O_R   0.685200 0.500000 0.385330 -0.631747
Zn1   Zn    Zn3+2 0.500010 0.500020 0.653130 0.931217
Zn2   Zn    Zn3+2 0.499990 0.499980 0.346870 0.925642

loop_
_geom_bond_atom_site_label_1
_geom_bond_atom_site_label_2
_ccdc_geom_bond_type
C17   H22   S    
O8    Zn2   S    
C27   H25   S    
C13   C28   S    
C10   H7    S    
C4    O4    A    
C2    C28   A    
C9    C10   S    
O3    Zn1   S    
C5    H28   S    
C17   C22   S    
C13   O5    A    
O4    Zn2   S    
C16   H9    S    
C3    C5    S    
O1    Zn1   S    
C6    C9    A    
C1    O1    A    
C2    C3    S    
C14   O8    A    
C15   H4    S    
C10   H6    S    
C20   H20   S    
C18   H15   S    
C24   C25   A    
C1    C25   S    
C13   O6    A    
C12   C23   S    
C26   C27   A    
C20   H21   S    
C5    C24   S    
C15   C16   S    
O6    Zn2   S    
C11   H8    S    
C17   C19   S    
C14   O7    A    
C12   C14   S    
C15   H1    S    
C21   H17   S    
C8    H5    S    
C18   H14   S    
C2    C24   A    
C3    H26   S    
O5    Zn1   S    
C11   C20   S    
C22   H13   S    
O7    Zn1   S    
C10   C11   S    
N1    Zn2   S    
C18   C23   S    
C21   H18   S    
C12   C22   S    
N2    Zn1   S    
C6    C11   S    
C7    H3    S    
C20   C21   S    
O2    Zn2   S    
C9    N2    A    
C5    H2    S    
C1    O2    A    
C7    C8    A    
C27   C28   A    
C23   H12   S    
C17   H11   S    
C18   C19   S    
C6    N1    A    
C8    N2    A    
C25   C26   A    
C15   C19   S    
C4    C19   S    
C3    H27   S    
C4    O3    A    
C7    N1    A    
C26   H24   S    
C23   H16   S    
C12   C16   S    
C16   H10   S    
C22   H23   S    
C21   H19   S    
