data_mof_unit_57621.cif
_audit_creation_date              2012-10-26T21:21:04-0400
_audit_creation_method            fapswitch 2.2
_symmetry_space_group_name_H-M    P1
_symmetry_Int_Tables_number       1
_space_group_crystal_system       triclinic
_cell_length_a                    10.776394
_cell_length_b                    10.931619
_cell_length_c                    9.753673
_cell_angle_alpha                 90.531151
_cell_angle_beta                  90.350012
_cell_angle_gamma                 90.277335
_cell_volume                      1148.93157862

loop_
_atom_site_label
_atom_site_type_symbol
_atom_type_description
_atom_site_fract_x
_atom_site_fract_y
_atom_site_fract_z
_atom_type_partial_charge
C1    C     C_R   0.501445 0.265573 0.499649 0.558728
C2    C     C_2   0.507704 0.133603 0.501667 -0.119160
C3    C     C_2   0.414458 0.449829 0.924690 0.015513
C4    C     C_R   0.262830 0.503884 0.499793 0.540301
C5    C     C_2   0.403151 0.474687 0.076415 -0.034468
C6    C     C_R   0.498511 0.734466 0.500548 0.540275
C7    C     C_R   0.737248 0.503840 0.500281 0.542604
C8    C     C_R   0.131424 0.700950 0.642063 -0.107923
C9    C     C_R   0.067313 0.793243 0.710720 -0.124218
C10   C     C_R   0.938237 0.793876 0.709639 -0.123925
C11   C     C_R   0.872488 0.701957 0.640338 -0.111800
C12   C     C_R   0.066690 0.605648 0.572845 0.026652
C13   C     C_R   0.935422 0.605803 0.572703 0.026673
C14   C     C_3   0.567826 0.607869 0.893209 -0.072983
C15   C     C_3   0.483376 0.717216 0.925132 -0.397345
C16   C     C_R   0.129099 0.512391 0.499390 0.001669
C17   C     C_R   0.063248 0.424753 0.423335 -0.157413
C18   C     C_R   0.935208 0.424401 0.424083 -0.152907
C19   C     C_R   0.871158 0.511994 0.500421 0.005065
C20   C     C_2   0.500603 0.931988 0.388029 -0.156160
C21   C     C_2   0.492322 0.866529 0.503316 -0.124469
C22   C     C_2   0.495116 0.065953 0.387311 -0.163663
Cu1   Cu    Cu3+1 0.500020 0.500020 0.638630 0.906639
Cu2   Cu    Cu3+1 0.499980 0.499980 0.361370 0.920281
H1    H     H_    0.111395 0.354398 0.365756 0.121022
H2    H     H_    0.885650 0.353814 0.366961 0.124873
H3    H     H_    0.509912 0.886428 0.289178 0.149472
H4    H     H_    0.477929 0.908205 0.602943 0.092764
H5    H     H_    0.482237 0.109550 0.288629 0.147190
H6    H     H_    0.537497 0.803592 0.917571 0.100817
H7    H     H_    0.404249 0.720883 0.851919 0.167039
H8    H     H_    0.446367 0.712189 0.030692 0.153074
H9    H     H_    0.635020 0.591356 0.976235 0.090388
H10   H     H_    0.630485 0.635969 0.810141 0.178088
H11   H     H_    0.525258 0.093536 0.600857 0.100121
H12   H     H_    0.344241 0.391893 0.876967 0.120871
H13   H     H_    0.311812 0.470394 0.121980 0.140850
H14   H     H_    0.580958 0.465374 0.115896 0.223792
H15   H     H_    0.231552 0.706790 0.641807 0.131926
H16   H     H_    0.118056 0.865615 0.763213 0.107836
H17   H     H_    0.888797 0.866827 0.761128 0.109092
H18   H     H_    0.772547 0.708824 0.637859 0.120084
N1    N     N_2   0.498640 0.498660 0.846910 -0.232802
N2    N     N_2   0.498610 0.498630 0.153040 -0.357683
O1    O     O_R   0.500020 0.321960 0.617040 -0.491845
O2    O     O_R   0.499980 0.321920 0.382900 -0.494633
O3    O     O_R   0.319670 0.500020 0.617100 -0.507081
O4    O     O_R   0.319630 0.499980 0.382950 -0.500746
O5    O     O_R   0.500020 0.678080 0.617100 -0.535353
O6    O     O_R   0.499980 0.678040 0.382960 -0.482172
O7    O     O_R   0.680370 0.500020 0.617050 -0.514468
O8    O     O_R   0.680330 0.499980 0.382900 -0.500483

loop_
_geom_bond_atom_site_label_1
_geom_bond_atom_site_label_2
_ccdc_geom_bond_type
C2    H11   S    
C14   H10   S    
Cu1   Cu2   S    
C2    C22   D    
Cu1   O1    S    
C20   H3    S    
C5    H13   S    
C9    C10   A    
Cu1   O7    S    
C18   H2    S    
C8    C12   A    
C17   H1    S    
C20   C21   D    
C14   H9    S    
C17   C18   A    
C8    C9    A    
C7    O7    A    
C15   H8    S    
C6    O6    A    
C10   H17   S    
H14   N2    S    
C11   C13   A    
C1    O1    A    
C3    H12   S    
C11   H18   S    
C3    N1    D    
C4    C16   S    
C22   H5    S    
C21   H4    S    
C20   C22   S    
C7    O8    A    
C1    C2    S    
C7    C19   S    
Cu2   O8    S    
C6    O5    A    
Cu2   O6    S    
Cu2   N2    S    
Cu2   O2    S    
C1    O2    A    
Cu1   O5    S    
Cu1   O3    S    
C10   C11   A    
C13   C19   A    
Cu2   O4    S    
Cu1   N1    S    
C12   C13   A    
C15   H6    S    
C18   C19   A    
C4    O4    A    
C8    H15   S    
C14   C15   S    
C16   C17   A    
C6    C21   S    
C15   H7    S    
C5    N2    D    
C9    H16   S    
C12   C16   A    
C14   N1    S    
C3    C5    S    
C4    O3    A    
