data_mof_unit_36643.cif
_audit_creation_date              2012-12-11T16:58:16-0500
_audit_creation_method            fapswitch 2.2
_symmetry_space_group_name_H-M    P1
_symmetry_Int_Tables_number       1
_space_group_crystal_system       triclinic
_cell_length_a                    16.923128
_cell_length_b                    7.257078
_cell_length_c                    16.779646
_cell_angle_alpha                 90.000042
_cell_angle_beta                  100.355885
_cell_angle_gamma                 89.999968
_cell_volume                      2027.18034152

loop_
_atom_site_label
_atom_site_type_symbol
_atom_type_description
_atom_site_fract_x
_atom_site_fract_y
_atom_site_fract_z
_atom_type_partial_charge
O1    O     O_R   0.413450 0.494370 0.415710 -0.543685
O2    O     O_R   0.586550 0.994370 0.584290 -0.543686
O3    O     O_R   0.578420 0.819350 0.429360 -0.541736
O4    O     O_R   0.421580 0.319350 0.570640 -0.541736
C1    C     C_R   0.604940 0.656953 0.413903 0.712249
C2    C     C_R   0.395060 0.156954 0.586097 0.712248
O5    O     O_R   0.413570 0.823780 0.406240 -0.527736
O6    O     O_R   0.586430 0.323780 0.593760 -0.527736
O7    O     O_R   0.420530 0.998740 0.561000 -0.536158
O8    O     O_R   0.579470 0.498740 0.439000 -0.536157
C3    C     C_R   0.386286 0.655457 0.383567 0.708074
C4    C     C_R   0.613714 0.155457 0.616433 0.708074
O9    O     O_3   0.502480 0.662320 0.550800 -0.376731
O10   O     O_3   0.497520 0.162320 0.449200 -0.376731
V1    V     V_3+5 0.499540 0.935370 0.490580 1.433355
V2    V     V_3+5 0.500460 0.435370 0.509420 1.433356
C5    C     C_R   0.689759 0.002674 0.742407 0.087300
C6    C     C_R   0.310241 0.502673 0.257593 0.087301
C7    C     C_R   0.680779 0.148196 0.686673 -0.094126
C8    C     C_R   0.319220 0.648196 0.313327 -0.094127
C9    C     C_R   0.736773 0.293811 0.702896 -0.114798
C10   C     C_R   0.263227 0.793811 0.297104 -0.114799
C11   C     C_R   0.803403 0.281321 0.766932 -0.125431
C12   C     C_R   0.196597 0.781321 0.233068 -0.125429
H1    H     H_    0.846666 0.392685 0.775316 0.117797
H2    H     H_    0.153334 0.892685 0.224684 0.117798
C13   C     C_R   0.815842 0.123327 0.816993 -0.106164
C14   C     C_R   0.184158 0.623327 0.183007 -0.106163
C15   C     C_R   0.754659 0.991119 0.805497 0.090722
C16   C     C_R   0.245341 0.491119 0.194503 0.090720
C17   C     C_3   0.753989 0.784776 0.805411 -0.271617
C18   C     C_3   0.246011 0.284776 0.194589 -0.271617
C19   C     C_3   0.681650 0.797631 0.734652 -0.269812
C20   C     C_3   0.318349 0.297630 0.265348 -0.269811
H3    H     H_    0.695818 0.747327 0.676233 0.098507
H4    H     H_    0.304181 0.247327 0.323766 0.098506
C21   C     C_R   0.331936 0.161721 0.637381 -0.071219
C22   C     C_R   0.668064 0.661720 0.362619 -0.071219
C23   C     C_R   0.168092 0.107966 0.863445 -0.036525
C24   C     C_R   0.831908 0.607967 0.136554 -0.036523
C25   C     C_R   0.273878 0.930556 0.816373 -0.169444
C26   C     C_R   0.726120 0.430559 0.183625 -0.169443
C27   C     C_R   0.220524 0.955292 0.870074 -0.149696
C28   C     C_R   0.779475 0.455295 0.129924 -0.149694
C29   C     C_R   0.171597 0.238732 0.802496 -0.226072
C30   C     C_R   0.828404 0.738731 0.197505 -0.226073
C31   C     C_R   0.224635 0.213153 0.747305 0.155466
C32   C     C_R   0.775365 0.713152 0.252696 0.155465
C33   C     C_R   0.275923 0.057183 0.753945 0.143666
C34   C     C_R   0.724077 0.557184 0.246054 0.143665
C35   C     C_R   0.328830 0.031421 0.698621 -0.211618
C36   C     C_R   0.671169 0.531422 0.301378 -0.211619
C37   C     C_R   0.279586 0.314462 0.630825 -0.166133
C38   C     C_R   0.720416 0.814459 0.369176 -0.166133
C39   C     C_R   0.226582 0.339692 0.684826 -0.187561
C40   C     C_R   0.773420 0.839688 0.315176 -0.187560
H5    H     H_    0.280614 0.417313 0.584216 0.119781
H6    H     H_    0.719388 0.917308 0.415787 0.119780
H7    H     H_    0.312689 0.810665 0.823007 0.139845
H8    H     H_    0.687308 0.310670 0.176990 0.139846
H9    H     H_    0.187775 0.459584 0.678214 0.115495
H10   H     H_    0.812228 0.959579 0.321790 0.115496
H11   H     H_    0.219206 0.851859 0.916363 0.135778
H12   H     H_    0.780792 0.351863 0.083634 0.135777
H13   H     H_    0.130995 0.355514 0.795936 0.115627
H14   H     H_    0.869007 0.855511 0.204066 0.115627
O11   O     O_R   0.920630 0.775410 0.061150 -0.524722
O12   O     O_R   0.079370 0.275410 0.938850 -0.524723
O13   O     O_R   0.086500 0.441450 0.093690 -0.541042
O14   O     O_R   0.913500 0.941450 0.906310 -0.541041
C41   C     C_R   0.113968 0.610188 0.116138 0.703596
C42   C     C_R   0.886032 0.110188 0.883861 0.703596
O15   O     O_R   0.921670 0.445960 0.070740 -0.546770
O16   O     O_R   0.078330 0.945960 0.929260 -0.546770
O17   O     O_R   0.913380 0.271130 0.915780 -0.532996
O18   O     O_R   0.086620 0.771130 0.084220 -0.532995
C43   C     C_R   0.895441 0.612731 0.085676 0.700366
C44   C     C_R   0.104559 0.112731 0.914324 0.700364
O19   O     O_3   0.997500 0.603030 0.949220 -0.381574
O20   O     O_3   0.002500 0.103030 0.050780 -0.381573
V3    V     V_3+5 0.000470 0.329940 0.009420 1.433263
V4    V     V_3+5 0.999530 0.829940 0.990580 1.433264
H15   H     H_    0.731312 0.413704 0.663926 0.113683
H16   H     H_    0.268688 0.913704 0.336074 0.113682
C45   C     C_2   0.737442 0.702472 0.883656 0.831857
O21   O     O_2   0.733546 0.800412 0.942199 -0.556465
O22   O     O_R   0.727835 0.512001 0.888959 -0.643497
H17   H     H_    0.716931 0.471921 0.943808 0.292796
C46   C     C_2   0.262557 0.202472 0.116344 0.831860
O23   O     O_2   0.266457 0.300412 0.057801 -0.556465
O24   O     O_R   0.272162 0.012001 0.111040 -0.643497
H18   H     H_    0.283066 0.971921 0.056191 0.292797
H19   H     H_    0.808675 0.726661 0.786809 0.101025
H20   H     H_    0.191325 0.226661 0.213191 0.101026
C47   C     C_2   0.602215 0.725357 0.750957 0.855984
O25   O     O_2   0.548691 0.831284 0.761278 -0.564271
O26   O     O_R   0.589815 0.535197 0.752486 -0.638381
H21   H     H_    0.534358 0.502041 0.762866 0.296684
C48   C     C_2   0.397785 0.225356 0.249044 0.855983
O27   O     O_2   0.451309 0.331282 0.238725 -0.564272
O28   O     O_R   0.410184 0.035195 0.247512 -0.638382
H22   H     H_    0.465640 0.002039 0.237132 0.296684
H23   H     H_    0.369453 0.914673 0.705126 0.153062
H24   H     H_    0.630545 0.414676 0.294872 0.153064

loop_
_geom_bond_atom_site_label_1
_geom_bond_atom_site_label_2
_ccdc_geom_bond_type
C18   H20   S    
O22   H17   S    
O28   H22   S    
C17   C45   S    
C13   C15   A    
C5    C15   A    
C47   O25   D    
O1    C3    A    
O2    C4    A    
C2    O7    A    
O26   H21   S    
C27   H11   S    
C31   C33   A    
C45   O21   D    
C28   H12   S    
C24   C30   A    
C5    C19   S    
O12   V3    S    
C7    C9    A    
C12   H2    S    
C30   H14   S    
C41   O18   A    
C21   C35   A    
C22   C36   A    
C35   H23   S    
C29   C31   A    
O15   V3    S    
O13   C41   A    
C19   H3    S    
C9    H15   S    
C33   C35   A    
O11   C43   A    
C34   C36   A    
C17   C19   S    
C6    C16   A    
C11   C13   A    
C46   O24   S    
C6    C8    A    
C23   C29   A    
C40   H10   S    
C21   C37   A    
O5    V1    S    
O6    V2    S    
C1    C22   S    
C25   C27   A    
C26   C28   A    
O16   V4    S    
C42   O17   A    
C19   C47   S    
C25   C33   A    
C30   C32   A    
C37   C39   A    
O12   C44   A    
C38   C40   A    
C3    C8    S    
C45   O22   S    
C23   C44   S    
C25   H7    S    
O4    C2    A    
O18   V4    S    
O24   H18   S    
C37   H5    S    
O17   V3    S    
C23   C27   A    
C17   H19   S    
C18   C20   S    
O4    V2    S    
O5    C3    A    
C18   C46   S    
C22   C38   A    
O6    C4    A    
C20   C48   S    
C2    C21   S    
O1    V2    S    
O2    V1    S    
C6    C20   S    
C26   C34   A    
C48   O28   S    
C8    C10   A    
C9    C11   A    
C29   H13   S    
C10   C12   A    
C14   C41   S    
C26   H8    S    
O3    V1    S    
C31   C39   A    
C38   H6    S    
C32   C40   A    
C36   H24   S    
C24   C43   S    
C12   C14   A    
O20   V3    S    
O3    C1    A    
O19   V4    S    
C47   O26   S    
C48   O27   D    
C14   C16   A    
O7    V1    S    
C1    O8    A    
C15   C17   S    
O8    V2    S    
C16   C18   S    
C39   H9    S    
C4    C7    S    
C32   C34   A    
C5    C7    A    
C20   H4    S    
C11   H1    S    
O14   V4    S    
O13   V3    S    
C24   C28   A    
O11   V4    S    
O16   C44   A    
O9    V2    S    
O15   C43   A    
O10   V1    S    
O14   C42   A    
C46   O23   D    
C13   C42   S    
C10   H16   S    
