data_mof_unit_57347.cif
_audit_creation_date              2012-12-10T18:58:49-0500
_audit_creation_method            fapswitch 2.2
_symmetry_space_group_name_H-M    P1
_symmetry_Int_Tables_number       1
_space_group_crystal_system       triclinic
_cell_length_a                    13.000548
_cell_length_b                    10.842681
_cell_length_c                    9.549839
_cell_angle_alpha                 90.687784
_cell_angle_beta                  96.264232
_cell_angle_gamma                 90.3649
_cell_volume                      1337.97903973

loop_
_atom_site_label
_atom_site_type_symbol
_atom_type_description
_atom_site_fract_x
_atom_site_fract_y
_atom_site_fract_z
_atom_type_partial_charge
C1    C     C_R   0.497252 0.262449 0.498786 0.801958
C2    C     C_R   0.484131 0.934278 0.369013 -0.218501
C3    C     C_R   0.487613 0.871204 0.497584 -0.095669
C4    C     C_R   0.300497 0.499699 0.473627 0.811149
C5    C     C_R   0.474512 0.938822 0.619720 0.132483
C6    C     C_3   0.534527 0.938009 0.762257 -0.492922
C7    C     C_3   0.531999 0.077650 0.760760 -0.455152
C8    C     C_R   0.585712 0.536779 0.086777 0.167206
C9    C     C_R   0.422379 0.442977 0.062383 0.565545
C10   C     C_R   0.421209 0.447414 0.912392 -0.190722
C11   C     C_R   0.586340 0.535058 0.939841 0.236242
C12   C     C_R   0.028192 0.499024 0.567603 0.177028
C13   C     C_3   0.640990 0.656182 0.943424 -0.495360
C14   C     C_3   0.639319 0.658591 0.102260 -0.474289
C15   C     C_R   0.498170 0.737871 0.500161 0.793785
C16   C     C_R   0.699493 0.499892 0.526382 0.800617
C17   C     C_R   0.812355 0.499413 0.541606 -0.050567
C18   C     C_R   0.187624 0.499218 0.458464 -0.057875
C19   C     C_R   0.023669 0.498539 0.311591 -0.227479
C20   C     C_R   0.131231 0.498887 0.324486 -0.179933
C21   C     C_R   0.135651 0.499139 0.579604 -0.270075
C22   C     C_3   0.325081 0.265696 0.072198 -0.368548
C23   C     C_R   0.971793 0.498699 0.432540 0.177132
C24   C     C_R   0.864353 0.498671 0.420518 -0.267056
C25   C     C_R   0.868706 0.499543 0.675609 -0.202300
C26   C     C_R   0.976281 0.499310 0.688541 -0.215550
C27   C     C_R   0.473232 0.065854 0.618210 0.125684
C28   C     C_R   0.485587 0.129591 0.495185 -0.096727
C29   C     C_R   0.483434 0.062888 0.367872 -0.220693
Cu1   Cu    Cu3+1 0.499990 0.499980 0.640670 0.938864
Cu2   Cu    Cu3+1 0.500010 0.500020 0.359330 0.978924
H1    H     H_    0.821500 0.497989 0.316552 0.148209
H2    H     H_    0.829813 0.499726 0.770273 0.150872
H3    H     H_    0.981165 0.498349 0.207421 0.133793
H4    H     H_    0.018761 0.499450 0.792722 0.135243
H5    H     H_    0.170049 0.499046 0.229780 0.191930
H6    H     H_    0.178549 0.499331 0.683585 0.152211
H7    H     H_    0.487183 0.109312 0.268844 0.162943
H8    H     H_    0.487415 0.885185 0.270237 0.158908
H9    H     H_    0.488795 0.898576 0.842991 0.195337
H10   H     H_    0.284444 0.213902 0.149505 0.199736
H11   H     H_    0.398485 0.216088 0.060038 0.139590
H12   H     H_    0.613910 0.901074 0.759757 0.198314
H13   H     H_    0.273979 0.264877 0.971095 0.155669
H14   H     H_    0.484287 0.117979 0.839314 0.189561
H15   H     H_    0.609640 0.120825 0.758630 0.202459
H16   H     H_    0.356361 0.409226 0.845089 0.156126
H17   H     H_    0.720120 0.648445 0.910537 0.187954
H18   H     H_    0.592133 0.727551 0.889414 0.212670
H19   H     H_    0.717647 0.652235 0.161088 0.192444
H20   H     H_    0.589690 0.732540 0.139361 0.206455
N1    N     N_R   0.500660 0.500930 0.148010 -0.226092
N2    N     N_R   0.500660 0.500890 0.852110 -0.205172
O1    O     O_R   0.500000 0.319640 0.618810 -0.583065
O2    O     O_R   0.500010 0.319680 0.381230 -0.563288
O3    O     O_R   0.348990 0.499960 0.599490 -0.598185
O4    O     O_R   0.349000 0.500000 0.361910 -0.527340
O5    O     O_R   0.499990 0.680320 0.618770 -0.575493
O6    O     O_R   0.500000 0.680360 0.381190 -0.589863
O7    O     O_R   0.651000 0.500000 0.638090 -0.585386
O8    O     O_R   0.651010 0.500040 0.400510 -0.586471
O9    O     O_3   0.342181 0.387694 0.123238 -0.557271

loop_
_geom_bond_atom_site_label_1
_geom_bond_atom_site_label_2
_ccdc_geom_bond_type
C4    O4    A    
C29   H7    S    
C1    C28   S    
C19   C23   A    
C23   C24   A    
C24   H1    S    
C6    C7    S    
C12   C21   A    
C22   O9    S    
C18   C21   A    
C11   C13   S    
C9    C10   A    
C8    N1    A    
C14   H20   S    
C11   N2    A    
Cu2   N1    S    
C1    O1    A    
C4    C18   S    
Cu2   O4    S    
C2    C3    A    
C1    O2    A    
C7    C27   S    
C14   H19   S    
C13   C14   S    
C4    O3    A    
C17   C25   A    
Cu1   O1    S    
C12   C23   A    
C22   H11   S    
C9    N1    A    
C15   O6    A    
C2    C29   A    
C13   H18   S    
Cu1   O5    S    
Cu1   O7    S    
C28   C29   A    
C15   O5    A    
C18   C20   A    
C6    H12   S    
C8    C11   A    
C12   C26   A    
C5    C6    S    
Cu1   N2    S    
C6    H9    S    
C22   H10   S    
C16   O8    A    
C9    O9    S    
C17   C24   A    
C7    H15   S    
C7    H14   S    
C26   H4    S    
C27   C28   A    
C3    C15   S    
C21   H6    S    
C16   O7    A    
Cu2   O6    S    
C10   H16   S    
C10   N2    A    
Cu2   O8    S    
Cu1   Cu2   S    
C8    C14   S    
Cu2   O2    S    
C25   C26   A    
C5    C27   A    
Cu1   O3    S    
C2    H8    S    
C19   H3    S    
C22   H13   S    
C19   C20   A    
C25   H2    S    
C16   C17   S    
C3    C5    A    
C13   H17   S    
C20   H5    S    
