data_mof_unit_52499.cif
_audit_creation_date              2012-12-10T17:40:51-0500
_audit_creation_method            fapswitch 2.2
_symmetry_space_group_name_H-M    P1
_symmetry_Int_Tables_number       1
_space_group_crystal_system       triclinic
_cell_length_a                    14.990676
_cell_length_b                    15.355756
_cell_length_c                    9.918912
_cell_angle_alpha                 89.996428
_cell_angle_beta                  88.094391
_cell_angle_gamma                 90.042709
_cell_volume                      2282.00235853

loop_
_atom_site_label
_atom_site_type_symbol
_atom_type_description
_atom_site_fract_x
_atom_site_fract_y
_atom_site_fract_z
_atom_type_partial_charge
C1    C     C_R   0.384262 0.875776 0.502398 0.840071
C2    C     C_R   0.736209 0.203253 0.381353 -0.256155
C3    C     C_R   0.190837 0.254611 0.399148 -0.236859
C4    C     C_R   0.236261 0.703202 0.381371 -0.255884
C5    C     C_R   0.694477 0.821963 0.492967 -0.104963
C6    C     C_R   0.676813 0.195793 0.492099 -0.118269
C7    C     C_R   0.194491 0.321974 0.492963 -0.104692
C8    C     C_R   0.176851 0.695762 0.492107 -0.118473
C9    C     C_R   0.336682 0.002377 0.146960 -0.235293
C10   C     C_R   0.836682 0.502389 0.146959 -0.235349
C11   C     C_R   0.255444 0.006148 0.080613 0.531384
C12   C     C_R   0.377653 0.118158 0.503416 0.878159
C13   C     C_R   0.755443 0.506174 0.080611 0.531393
C14   C     C_R   0.257227 0.011233 0.941005 -0.255489
C15   C     C_R   0.757229 0.511264 0.941004 -0.255473
C16   C     C_R   0.337614 0.005529 0.867665 -0.237018
C17   C     C_R   0.837616 0.505549 0.867664 -0.237026
C18   C     C_R   0.419841 0.001528 0.931570 0.023044
C19   C     C_R   0.919841 0.501538 0.931569 0.023046
C20   C     C_R   0.419695 0.001494 0.075751 -0.002933
C21   C     C_R   0.919695 0.501501 0.075751 -0.002907
C22   C     C_R   0.577140 0.997365 0.068795 0.417822
C23   C     C_R   0.884250 0.375784 0.502399 0.840021
C24   C     C_R   0.077139 0.497358 0.068794 0.417768
C25   C     C_R   0.615940 0.123645 0.497864 0.995722
C26   C     C_R   0.622924 0.883257 0.497834 0.947730
C27   C     C_R   0.115952 0.623635 0.497865 0.995781
C28   C     C_R   0.122934 0.383267 0.497834 0.947800
C29   C     C_R   0.577251 0.002935 0.924005 0.429188
C30   C     C_R   0.077251 0.502931 0.924004 0.429204
C31   C     C_R   0.343196 0.236577 0.746791 -0.058345
C32   C     C_R   0.286948 0.811783 0.759442 -0.189531
C33   C     C_R   0.843248 0.736623 0.746756 -0.058405
C34   C     C_R   0.877658 0.618163 0.503415 0.878120
C35   C     C_R   0.786893 0.311829 0.759438 -0.189546
C36   C     C_R   0.354217 0.309069 0.829151 -0.243781
C37   C     C_R   0.219240 0.813074 0.860023 -0.273458
C38   C     C_R   0.854279 0.809131 0.829082 -0.243899
C39   C     C_R   0.719180 0.313119 0.860013 -0.273460
C40   C     C_R   0.827849 0.890620 0.785216 -0.231608
C41   C     C_R   0.631206 0.297011 0.826217 -0.241419
C42   C     C_R   0.327821 0.390569 0.785293 -0.231971
C43   C     C_R   0.131263 0.796979 0.826232 -0.241410
C44   C     C_R   0.780500 0.898267 0.666641 0.618452
C45   C     C_R   0.250805 0.187407 0.405004 -0.209474
C46   C     C_R   0.613654 0.266560 0.697113 0.562795
C47   C     C_R   0.280522 0.398253 0.666667 0.618472
C48   C     C_R   0.113702 0.766539 0.697125 0.562873
C49   C     C_R   0.757995 0.822368 0.593825 -0.068509
C50   C     C_R   0.685511 0.248714 0.605681 -0.036617
C51   C     C_R   0.258003 0.322365 0.593833 -0.068301
C52   C     C_R   0.185554 0.748685 0.605688 -0.036650
C53   C     C_R   0.302398 0.244525 0.620035 0.023968
C54   C     C_R   0.267390 0.788078 0.625619 0.037172
C55   C     C_R   0.802416 0.744543 0.620020 0.024015
C56   C     C_R   0.306676 0.760294 0.387741 -0.248757
C57   C     C_R   0.767344 0.288116 0.625614 0.037276
C58   C     C_R   0.307436 0.181975 0.513591 -0.099856
C59   C     C_R   0.322502 0.803799 0.508828 -0.080976
C60   C     C_R   0.807446 0.681984 0.513588 -0.099791
C61   C     C_R   0.822465 0.303828 0.508826 -0.080848
C62   C     C_3   0.704997 0.083845 0.887732 -0.191847
C63   C     C_3   0.205009 0.583827 0.887753 -0.191975
C64   C     C_3   0.838030 0.010239 0.544264 -0.406632
C65   C     C_3   0.512549 0.334466 0.570043 -0.365609
C66   C     C_3   0.338374 0.510653 0.545525 -0.406487
C67   C     C_R   0.750803 0.687402 0.405012 -0.209504
C68   C     C_3   0.012643 0.834455 0.569986 -0.365632
C69   C     C_3   0.692390 0.908247 0.117625 -0.276061
C70   C     C_3   0.192371 0.408219 0.117614 -0.275981
C71   C     C_3   0.164220 0.943638 0.246094 -0.356687
C72   C     C_3   0.664230 0.443723 0.246177 -0.356734
C73   C     C_R   0.806630 0.260335 0.387732 -0.248683
C74   C     C_R   0.690828 0.754599 0.399155 -0.236828
H1    H     H_    0.844069 0.947871 0.843040 0.156290
H2    H     H_    0.695271 0.515583 0.888234 0.174002
H3    H     H_    0.332696 0.003580 0.760936 0.226137
H4    H     H_    0.832697 0.503592 0.760936 0.226136
H5    H     H_    0.756364 0.064868 0.960075 0.168095
H6    H     H_    0.662676 0.136753 0.932300 0.127521
H7    H     H_    0.740713 0.111018 0.797565 0.205936
H8    H     H_    0.256378 0.564832 0.960081 0.168118
H9    H     H_    0.162698 0.636733 0.932350 0.127551
H10   H     H_    0.240723 0.611013 0.797593 0.205856
H11   H     H_    0.366807 0.176225 0.786670 0.189410
H12   H     H_    0.577264 0.307119 0.899819 0.158970
H13   H     H_    0.353889 0.825972 0.789579 0.189428
H14   H     H_    0.866886 0.676281 0.786641 0.189462
H15   H     H_    0.853830 0.326021 0.789586 0.189456
H16   H     H_    0.387642 0.302613 0.923729 0.157286
H17   H     H_    0.234409 0.830494 0.962383 0.176604
H18   H     H_    0.887740 0.802699 0.923633 0.157306
H19   H     H_    0.734342 0.330543 0.962374 0.176639
H20   H     H_    0.853049 0.968554 0.454536 0.164039
H21   H     H_    0.897083 0.014590 0.609045 0.158313
H22   H     H_    0.824985 0.076804 0.507809 0.219185
H23   H     H_    0.344017 0.447798 0.843183 0.156166
H24   H     H_    0.560944 0.336888 0.482649 0.149289
H25   H     H_    0.514694 0.396529 0.627693 0.170830
H26   H     H_    0.446030 0.328860 0.526309 0.192193
H27   H     H_    0.396870 0.515414 0.611360 0.158403
H28   H     H_    0.325182 0.577111 0.508724 0.219179
H29   H     H_    0.354353 0.469007 0.456088 0.163768
H30   H     H_    0.060915 0.836681 0.482430 0.149379
H31   H     H_    0.015040 0.896558 0.627499 0.170684
H32   H     H_    0.946035 0.828988 0.526504 0.192233
H33   H     H_    0.641527 0.753765 0.321787 0.162252
H34   H     H_    0.077325 0.807093 0.899839 0.158950
H35   H     H_    0.729104 0.164303 0.291234 0.194658
H36   H     H_    0.141537 0.253780 0.321780 0.162230
H37   H     H_    0.229156 0.664247 0.291257 0.194692
H38   H     H_    0.721408 0.900596 0.014270 0.180140
H39   H     H_    0.642179 0.855975 0.137821 0.154941
H40   H     H_    0.747092 0.899334 0.188978 0.186416
H41   H     H_    0.221332 0.400541 0.014230 0.180111
H42   H     H_    0.142160 0.355960 0.137890 0.154940
H43   H     H_    0.247112 0.399312 0.188902 0.186562
H44   H     H_    0.332330 0.001014 0.253600 0.209391
H45   H     H_    0.251403 0.138460 0.326439 0.183621
H46   H     H_    0.832332 0.501016 0.253597 0.209390
H47   H     H_    0.196040 0.962566 0.341317 0.163078
H48   H     H_    0.191110 0.880179 0.208417 0.166191
H49   H     H_    0.092117 0.933938 0.270190 0.191239
H50   H     H_    0.696015 0.462732 0.341391 0.163048
H51   H     H_    0.691167 0.380257 0.208610 0.166242
H52   H     H_    0.592128 0.433995 0.270248 0.191259
H53   H     H_    0.349353 0.769581 0.298541 0.172472
H54   H     H_    0.751401 0.638450 0.326453 0.183613
H55   H     H_    0.849309 0.269618 0.298533 0.172463
H56   H     H_    0.195267 0.015545 0.888238 0.174018
N1    N     N_R   0.498810 1.000000 0.142780 -0.160802
N2    N     N_R   0.998810 0.500000 0.142780 -0.160804
N3    N     N_R   0.498740 1.000000 0.857170 -0.169461
N4    N     N_R   0.998740 0.500000 0.857170 -0.169463
O1    O     O_R   0.408390 0.908380 0.614690 -0.657973
O2    O     O_R   0.591620 0.908390 0.614640 -0.570706
O3    O     O_R   0.091620 0.591610 0.614640 -0.539005
O4    O     O_R   0.091620 0.408390 0.614640 -0.570743
O5    O     O_R   0.591610 0.091610 0.385310 -0.598323
O6    O     O_R   0.591610 0.908390 0.385310 -0.604062
O7    O     O_R   0.091610 0.591610 0.385310 -0.598324
O8    O     O_R   0.091610 0.408390 0.385310 -0.604046
O9    O     O_3   0.655990 0.009847 0.848248 -0.561131
O10   O     O_3   0.155990 0.509842 0.848245 -0.561099
O11   O     O_3   0.761762 0.980058 0.617153 -0.582354
O12   O     O_R   0.408390 0.091620 0.614690 -0.642443
O13   O     O_3   0.526820 0.262439 0.655791 -0.610906
O14   O     O_3   0.261778 0.480041 0.617143 -0.582353
O15   O     O_3   0.026864 0.762453 0.655805 -0.610916
O16   O     O_3   0.655882 0.992191 0.136764 -0.591415
O17   O     O_3   0.155881 0.492169 0.136760 -0.591371
O18   O     O_3   0.173267 0.010730 0.149080 -0.616543
O19   O     O_3   0.673261 0.510759 0.149068 -0.616541
O20   O     O_R   0.908390 0.408380 0.614690 -0.657965
O21   O     O_R   0.908390 0.591620 0.614690 -0.642475
O22   O     O_R   0.408370 0.908380 0.385360 -0.647714
O23   O     O_R   0.408370 0.091620 0.385360 -0.641364
O24   O     O_R   0.908370 0.408380 0.385360 -0.647715
O25   O     O_R   0.908370 0.591620 0.385360 -0.641368
O26   O     O_R   0.591620 0.091610 0.614640 -0.538977
Zn1   Zn    Zn3+2 0.500010 1.000000 0.653130 0.997228
Zn2   Zn    Zn3+2 0.000010 0.500000 0.653130 0.997228
Zn3   Zn    Zn3+2 0.499980 1.000000 0.346870 0.969441
Zn4   Zn    Zn3+2 0.999980 0.500000 0.346870 0.969469

loop_
_geom_bond_atom_site_label_1
_geom_bond_atom_site_label_2
_ccdc_geom_bond_type
C44   C49   A    
C33   C55   A    
C29   N3    A    
C22   O16   S    
C2    H35   S    
C31   H11   S    
C22   C29   A    
C64   O11   S    
C66   H28   S    
C71   H48   S    
C36   C42   A    
C62   O9    S    
C4    C8    A    
C39   C41   A    
C34   O21   A    
O6    Zn3   S    
C41   H12   S    
C69   H39   S    
C27   O3    A    
C69   O16   S    
C62   H6    S    
C19   C21   A    
C33   H14   S    
C65   H24   S    
C3    C7    A    
C1    C59   S    
O8    Zn4   S    
O3    Zn2   S    
C22   N1    A    
C69   H38   S    
C6    C25   S    
C70   H43   S    
C29   O9    S    
C23   O24   A    
C38   H18   S    
C30   O10   S    
C18   N3    A    
C16   H3    S    
C56   H53   S    
C12   O12   A    
C5    C74   A    
C39   H19   S    
C68   O15   S    
C27   O7    A    
C74   H33   S    
C71   O18   S    
O22   Zn3   S    
C30   N4    A    
C41   C46   A    
C12   O23   A    
C65   O13   S    
C43   C48   A    
C8    C52   A    
C40   C44   A    
C66   O14   S    
O24   Zn4   S    
O2    Zn1   S    
C12   C58   S    
C34   O25   A    
C45   H45   S    
C15   H2    S    
O21   Zn2   S    
C48   O15   S    
C4    C56   A    
C34   C60   S    
C9    H44   S    
O1    Zn1   S    
C66   H27   S    
C5    C49   A    
C2    C6    A    
C68   H32   S    
C32   C54   A    
C52   C54   A    
C71   H49   S    
C54   C59   A    
C10   C21   A    
C45   C58   A    
O12   Zn1   S    
C73   H55   S    
C69   H40   S    
C37   H17   S    
C63   H8    S    
C62   H5    S    
C28   O4    A    
C60   C67   A    
C42   H23   S    
C11   C14   A    
C47   C51   A    
C61   C73   A    
C49   C55   A    
C32   H13   S    
C3    C45   A    
C6    C50   A    
C7    C28   S    
N4    Zn2   S    
C72   H52   S    
C19   N4    A    
C37   C43   A    
C1    O22   A    
C35   C39   A    
N2    Zn4   S    
C21   N2    A    
C24   O17   S    
C72   H51   S    
C24   N2    A    
C9    C20   A    
C46   O13   S    
N1    Zn3   S    
C63   O10   S    
C13   O19   S    
C25   O26   A    
C44   O11   S    
O4    Zn2   S    
C67   C74   A    
C32   C37   A    
C31   C53   A    
C9    C11   A    
C64   H22   S    
C2    C73   A    
C35   H15   S    
C62   H7    S    
C13   C15   A    
C14   C16   A    
C28   O8    A    
C68   H31   S    
C20   N1    A    
O20   Zn2   S    
C14   H56   S    
C23   C61   S    
C36   H16   S    
C15   C17   A    
O23   Zn3   S    
C47   O14   S    
C72   O19   S    
C25   O5    A    
C31   C36   A    
C50   C57   A    
C66   H29   S    
C4    H37   S    
C70   O17   S    
C68   H30   S    
C64   H21   S    
C65   H26   S    
C10   C13   A    
N3    Zn1   S    
C65   H25   S    
C53   C58   A    
C56   C59   A    
C57   C61   A    
C70   H41   S    
C46   C50   A    
C26   O6    A    
C33   C38   A    
C40   H1    S    
C63   H10   S    
C35   C57   A    
C70   H42   S    
O26   Zn1   S    
O5    Zn3   S    
C64   H20   S    
C1    O1    A    
C67   H54   S    
C38   C40   A    
C17   H4    S    
C17   C19   A    
C18   C20   A    
C42   C47   A    
C43   H34   S    
C24   C30   A    
C26   O2    A    
C7    C51   A    
C5    C26   S    
C71   H47   S    
C11   O18   S    
C48   C52   A    
O7    Zn4   S    
C16   C18   A    
C23   O20   A    
C63   H9    S    
C8    C27   S    
O25   Zn4   S    
C3    H36   S    
C51   C53   A    
C55   C60   A    
C10   H46   S    
C72   H50   S    
