data_mof_unit_50014.cif
_audit_creation_date              2013-03-05T16:41:26-0500
_audit_creation_method            fapswitch 2.2
_symmetry_space_group_name_H-M    P1
_symmetry_Int_Tables_number       1
_space_group_crystal_system       triclinic
_cell_length_a                    10.906379
_cell_length_b                    10.753032
_cell_length_c                    9.872214
_cell_angle_alpha                 89.986801
_cell_angle_beta                  104.575801
_cell_angle_gamma                 90.350445
_cell_volume                      1120.49560614

loop_
_atom_site_label
_atom_site_type_symbol
_atom_site_description
_atom_site_fract_x
_atom_site_fract_y
_atom_site_fract_z
_atom_type_partial_charge
O1    O     O_R   0.500020 0.316790 0.614700 -0.607841
O2    O     O_R   0.500000 0.316760 0.385350 -0.620908
C1    C     C_R   0.501761 0.260521 0.500398 0.905453
O3    O     O_R   0.317820 0.500020 0.571850 -0.640321
O4    O     O_R   0.317800 0.499980 0.342510 -0.521890
C2    C     C_R   0.259213 0.500368 0.440440 0.865205
Zn1   Zn    Zn3+2 0.500010 0.500020 0.653140 1.045378
Zn2   Zn    Zn3+2 0.499990 0.499980 0.346860 1.058107
O5    O     O_R   0.500000 0.683240 0.614650 -0.616034
O6    O     O_R   0.499980 0.683210 0.385300 -0.622171
O7    O     O_R   0.682200 0.500020 0.657490 -0.563495
O8    O     O_R   0.682180 0.499980 0.428150 -0.643033
C3    C     C_R   0.499519 0.739489 0.499645 0.899193
C4    C     C_R   0.740874 0.500543 0.559112 0.837205
H1    H     H_    0.876915 0.535067 0.384255 0.210600
H2    H     H_    0.115459 0.439941 0.600256 0.185614
C5    C     C_2   0.122501 0.505869 0.402184 0.149517
C6    C     C_2   0.063686 0.479979 0.502188 -0.206215
C7    C     C_2   0.877804 0.498465 0.594043 0.118431
C8    C     C_2   0.932640 0.509651 0.487651 -0.198094
C9    C     C_R   0.503678 0.062072 0.618776 0.010157
C10   C     C_R   0.504743 0.129302 0.499688 -0.088599
C11   C     C_R   0.506568 0.064638 0.376246 -0.106199
H3    H     H_    0.509573 0.112871 0.280854 0.219081
C12   C     C_R   0.504365 0.935543 0.375439 -0.135564
H4    H     H_    0.505975 0.887498 0.279449 0.196908
C13   C     C_R   0.500169 0.870717 0.498117 -0.084379
C14   C     C_R   0.499087 0.937707 0.617240 0.018501
C15   C     C_3   0.495932 0.927718 0.767373 0.041807
C16   C     C_3   0.502526 0.071206 0.769721 0.059354
H5    H     H_    0.579857 0.880026 0.834268 0.140885
H6    H     H_    0.417619 0.118602 0.787482 0.163208
C17   C     C_R   0.438555 0.408012 0.054444 0.077678
N1    N     N_R   0.499160 0.499140 0.142600 -0.111371
C18   C     C_R   0.571516 0.582809 0.091828 -0.015542
H7    H     H_    0.627048 0.651498 0.161472 0.140786
C19   C     C_R   0.572007 0.582397 0.948020 0.032419
H8    H     H_    0.628070 0.650590 0.909310 0.140582
N2    N     N_R   0.499160 0.499180 0.856960 -0.092589
C20   C     C_R   0.437768 0.408703 0.911455 0.146132
C21   C     C_3   0.299639 0.380968 0.866260 -0.560489
C22   C     C_3   0.300086 0.379307 0.020119 0.813050
H9    H     H_    0.247506 0.461084 0.809892 0.259313
H10   H     H_    0.278641 0.290033 0.811763 0.199709
N3    N     N_R   0.622445 0.118609 0.857527 0.234470
O9    O     O_R   0.730297 0.086142 0.834578 -0.312298
O10   O     O_R   0.622061 0.188196 0.965073 -0.348699
F1    F     F_    0.228799 0.474074 0.056143 -0.541975
N4    N     N_R   0.271919 0.257304 0.071276 0.198720
O11   O     O_R   0.328733 0.157927 0.043429 -0.406771
O12   O     O_R   0.190732 0.247646 0.147352 -0.270320
N5    N     N_R   0.949300 0.483605 0.736825 0.215378
O13   O     O_R   0.911363 0.405242 0.818426 -0.257523
O14   O     O_R   0.037072 0.564382 0.791524 -0.289017
N6    N     N_R   0.056322 0.547091 0.264534 0.239269
O15   O     O_R   0.099843 0.641116 0.207427 -0.257795
O16   O     O_R   0.965644 0.479231 0.188214 -0.286275
N7    N     N_R   0.374664 0.879378 0.783615 0.242472
O17   O     O_R   0.372995 0.798826 0.881379 -0.336817
O18   O     O_R   0.267891 0.917568 0.703140 -0.322357

loop_
_geom_bond_atom_site_label_1
_geom_bond_atom_site_label_2
_geom_bond_distance
_ccdc_geom_bond_type
O4    Zn2   1.976663 S    
Zn1   O7    1.976662 S    
N6    O15   1.301507 A    
C19   H8    1.081485 S    
C12   C13   1.407806 A    
C21   C22   1.517803 S    
C5    N6    1.440155 S    
C16   N3    1.463969 S    
C18   H7    1.081787 S    
Zn2   O8    1.946721 S    
C21   H10   1.110648 S    
N4    O12   1.300926 A    
C11   C12   1.388213 A    
O2    C1    1.282547 A    
N7    O17   1.300148 A    
C15   H5    1.112782 S    
Zn2   N1    2.014260 S    
C9    C10   1.382509 A    
N5    O13   1.301304 A    
C16   H6    1.111549 S    
C21   H9    1.105274 S    
C15   C16   1.544074 S    
O5    C3    1.285156 A    
O3    Zn1   1.946721 S    
C17   C22   1.492502 S    
C4    C7    1.445988 S    
H2    C6    1.081264 S    
C20   C21   1.487870 S    
C18   C19   1.421065 A    
C9    C14   1.337884 A    
N5    O14   1.300883 A    
C5    C6    1.334205 D    
C6    C8    1.437856 S    
N6    O16   1.301766 A    
O4    C2    1.286058 A    
C19   N2    1.368316 A    
O7    C4    1.290562 A    
O2    Zn2   2.006390 S    
C17   C20   1.409509 A    
C22   N4    1.464023 S    
N7    O18   1.302285 A    
Zn1   O5    2.006387 S    
N2    C20   1.362858 A    
C17   N1    1.362886 A    
C15   N7    1.464046 S    
Zn2   O6    2.006582 S    
N1    C18   1.368804 A    
C9    C16   1.496617 S    
N3    O10   1.299937 A    
C13   C14   1.381851 A    
N4    O11   1.302085 A    
C2    C5    1.444621 S    
Zn1   N2    2.014526 S    
C10   C11   1.407739 A    
C14   C15   1.495001 S    
C1    C10   1.411635 S    
C22   F1    1.385073 S    
C11   H3    1.082606 S    
O1    Zn1   2.006583 S    
C12   H4    1.083482 S    
N3    O9    1.302315 A    
O3    C2    1.293926 A    
C7    N5    1.438287 S    
C3    C13   1.411163 S    
C7    C8    1.338119 D    
O8    C4    1.290256 A    
H1    C8    1.084280 S    
O1    C1    1.284920 A    
O6    C3    1.282086 A    
