data_mof_unit_33420.cif
_audit_creation_date              2012-12-10T18:45:07-0500
_audit_creation_method            fapswitch 2.2
_symmetry_space_group_name_H-M    P1
_symmetry_Int_Tables_number       1
_space_group_crystal_system       triclinic
_cell_length_a                    10.621098
_cell_length_b                    9.881705
_cell_length_c                    10.65005
_cell_angle_alpha                 87.54254
_cell_angle_beta                  88.836714
_cell_angle_gamma                 89.840739
_cell_volume                      1116.51110088

loop_
_atom_site_label
_atom_site_type_symbol
_atom_type_description
_atom_site_fract_x
_atom_site_fract_y
_atom_site_fract_z
_atom_type_partial_charge
C1    C     C_R   0.260534 0.499782 0.496720 0.944449
C2    C     C_R   0.739763 0.499701 0.495909 0.928891
C3    C     C_R   0.937836 0.545765 0.381766 0.230927
C4    C     C_R   0.068399 0.550286 0.383594 0.237188
C5    C     C_R   0.582503 0.067483 0.572026 0.033354
C6    C     C_R   0.414951 0.074488 0.430802 0.020472
C7    C     C_R   0.582600 0.924035 0.571361 -0.079312
C8    C     C_R   0.415831 0.931000 0.430376 -0.104060
C9    C     C_R   0.513364 0.504358 0.259752 0.931468
C10   C     C_R   0.489637 0.497783 0.740495 0.864995
C11   C     C_R   0.503775 0.770909 0.092676 -0.049495
C12   C     C_R   0.357412 0.710545 0.886937 -0.028008
C13   C     C_R   0.432227 0.873338 0.031477 -0.054602
C14   C     C_R   0.353361 0.841326 0.933359 -0.032620
C15   C     C_R   0.442335 0.612480 0.937832 0.027355
C16   C     C_R   0.495029 0.634537 0.054386 0.061196
C17   C     C_R   0.533948 0.516885 0.125250 -0.079241
C18   C     C_R   0.481523 0.495044 0.875448 -0.108756
C19   C     C_R   0.566281 0.398855 0.065365 -0.140625
C20   C     C_R   0.544075 0.389631 0.939594 -0.171496
C21   C     C_R   0.062558 0.436995 0.592569 -0.184985
C22   C     C_R   0.933733 0.441310 0.594229 -0.193046
C23   C     C_R   0.872430 0.497729 0.490428 -0.132776
C24   C     C_R   0.128398 0.497755 0.490898 -0.123495
H1    H     H_    0.607309 0.313221 0.116748 0.182918
H2    H     H_    0.576127 0.300373 0.892726 0.180142
H3    H     H_    0.111147 0.392219 0.672799 0.172220
H4    H     H_    0.881905 0.401894 0.676386 0.179029
H5    H     H_    0.648149 0.865867 0.628693 0.147367
H6    H     H_    0.348768 0.878389 0.374823 0.164681
N1    N     N_R   0.500000 0.857200 0.500000 -0.093471
N2    N     N_R   0.500000 0.142810 0.500000 -0.124406
O1    O     O_R   0.316770 0.614620 0.499990 -0.598232
O2    O     O_R   0.683230 0.614620 0.500010 -0.600867
O3    O     O_R   0.316800 0.385290 0.500000 -0.624381
O4    O     O_R   0.683200 0.385290 0.500000 -0.614259
O5    O     O_R   0.500010 0.614690 0.316770 -0.613204
O6    O     O_R   0.499990 0.614690 0.683230 -0.622676
O7    O     O_R   0.500040 0.385360 0.316770 -0.614574
O8    O     O_R   0.499960 0.385360 0.683230 -0.623520
Zn1   Zn    Zn3+2 0.500000 0.653120 0.500000 0.987914
Zn2   Zn    Zn3+2 0.500000 0.346880 0.500000 0.982082
C25   C     C_1   0.600042 0.812961 0.177403 0.271150
N3    N     N_1   0.675767 0.849502 0.244785 -0.134683
C26   C     C_1   0.260261 0.673314 0.802430 0.219894
N4    N     N_1   0.179349 0.647173 0.737064 -0.199269
C27   C     C_1   0.437541 0.011539 0.070449 0.155122
N5    N     N_1   0.441067 0.122171 0.100838 -0.202360
C28   C     C_1   0.271736 0.944330 0.876863 0.212170
N6    N     N_1   0.206912 0.026406 0.831756 -0.177403
Br1   Br    Br    0.851286 0.590429 0.228736 -0.479652
Br2   Br    Br    0.164529 0.620410 0.239240 -0.465976
C29   C     C_1   0.668105 0.132391 0.652876 0.227733
N7    N     N_1   0.737326 0.183142 0.718793 -0.219618
C30   C     C_1   0.320504 0.147014 0.360152 0.275880
N8    N     N_1   0.243937 0.204499 0.303160 -0.147526

loop_
_geom_bond_atom_site_label_1
_geom_bond_atom_site_label_2
_ccdc_geom_bond_type
O4    Zn2   S    
C15   C18   A    
C6    N2    A    
C30   N8    T    
C11   C25   S    
C7    H5    S    
C11   C16   A    
C3    C23   A    
C19   C20   A    
C12   C15   A    
C6    C30   S    
C10   O6    A    
C5    N2    A    
O1    Zn1   S    
C2    O2    A    
O8    Zn2   S    
C21   H3    S    
C8    H6    S    
C22   H4    S    
C13   C14   A    
C11   C13   A    
O2    Zn1   S    
C20   H2    S    
C10   C18   S    
C4    C24   A    
C6    C8    A    
C9    C17   S    
C17   C19   A    
C12   C14   A    
C4    Br2   S    
O7    Zn2   S    
C18   C20   A    
C25   N3    T    
O5    Zn1   S    
C19   H1    S    
C28   N6    T    
C14   C28   S    
C7    N1    A    
C1    O1    A    
C15   C16   A    
C27   N5    T    
C26   N4    T    
C9    O7    A    
C2    O4    A    
C1    O3    A    
C1    C24   S    
C10   O8    A    
O6    Zn1   S    
C21   C24   A    
C5    C29   S    
C2    C23   S    
C5    C7    A    
O3    Zn2   S    
N2    Zn2   S    
C22   C23   A    
C16   C17   A    
C3    Br1   S    
N1    Zn1   S    
C21   C22   A    
C8    N1    A    
C13   C27   S    
C3    C4    A    
C29   N7    T    
C12   C26   S    
C9    O5    A    
