data_mof_unit_62854.cif
_audit_creation_date              2012-12-10T18:19:10-0500
_audit_creation_method            fapswitch 2.2
_symmetry_space_group_name_H-M    P1
_symmetry_Int_Tables_number       1
_space_group_crystal_system       triclinic
_cell_length_a                    18.576496
_cell_length_b                    18.609364
_cell_length_c                    18.513468
_cell_angle_alpha                 109.331902
_cell_angle_beta                  109.219077
_cell_angle_gamma                 109.488359
_cell_volume                      4949.36624956

loop_
_atom_site_label
_atom_site_type_symbol
_atom_type_description
_atom_site_fract_x
_atom_site_fract_y
_atom_site_fract_z
_atom_type_partial_charge
C1    C     C_R   0.619889 0.498451 0.621294 0.848990
C2    C     C_R   0.380106 0.501545 0.378706 0.849010
C3    C     C_3   0.336907 0.239872 0.504888 -0.400734
C4    C     C_3   0.663059 0.760088 0.495044 -0.400770
C5    C     C_3   0.311737 0.310739 0.501633 0.182596
C6    C     C_3   0.688268 0.689261 0.498372 0.182588
C7    C     C_3   0.189342 0.188020 0.498217 0.182811
C8    C     C_3   0.810658 0.811985 0.501788 0.182814
C9    C     C_3   0.151184 0.196497 0.414898 -0.374778
C10   C     C_3   0.848804 0.803562 0.585145 -0.374812
C11   C     C_3   0.263362 0.166047 0.500398 -0.397770
C12   C     C_3   0.736597 0.833914 0.499527 -0.397728
C13   C     C_3   0.776014 0.583406 0.731814 -0.414649
C14   C     C_3   0.223996 0.416554 0.268132 -0.414633
C15   C     C_3   0.848742 0.585336 0.803886 -0.347368
C16   C     C_3   0.151269 0.414631 0.196067 -0.347428
C17   C     C_3   0.663671 0.495875 0.761242 -0.411750
C18   C     C_3   0.336364 0.504197 0.238799 -0.411800
C19   C     C_3   0.699430 0.417765 0.649692 -0.385054
C20   C     C_3   0.300512 0.582191 0.350319 -0.385037
C21   C     C_3   0.688176 0.498554 0.689462 0.122210
C22   C     C_3   0.311820 0.501442 0.310538 0.122199
C23   C     C_R   0.380049 0.378881 0.501690 0.829125
C24   C     C_R   0.619957 0.621119 0.498315 0.829141
C25   C     C_3   0.810812 0.501567 0.811615 0.104380
C26   C     C_3   0.189188 0.498430 0.188381 0.104373
C27   C     C_3   0.736920 0.499274 0.834314 -0.488690
C28   C     C_3   0.263113 0.500786 0.165719 -0.488652
C29   C     C_3   0.770609 0.418279 0.722220 0.208489
C30   C     C_3   0.229345 0.581685 0.277788 0.208489
C31   C     C_3   0.998355 0.310715 0.808513 0.171978
C32   C     C_3   0.001644 0.689285 0.191486 0.171963
C33   C     C_R   0.999030 0.120278 0.621514 0.830960
C34   C     C_R   0.000969 0.879722 0.378486 0.830972
C35   C     C_R   0.121166 0.119635 0.498061 0.829655
C36   C     C_R   0.878834 0.880370 0.501944 0.829652
C37   C     C_R   0.001890 0.621159 0.123442 0.870449
C38   C     C_R   0.998109 0.378841 0.876557 0.870450
C39   C     C_R   0.878843 0.502163 0.880634 0.888159
C40   C     C_R   0.121157 0.497834 0.119362 0.888149
C41   C     C_3   0.903499 0.161641 0.670565 -0.410724
C42   C     C_3   0.096499 0.838356 0.329435 -0.410710
C43   C     C_3   0.053863 0.203517 0.782753 -0.364754
C44   C     C_3   0.946139 0.796483 0.217249 -0.364756
C45   C     C_3   0.040853 0.348152 0.760147 -0.355434
C46   C     C_3   0.959152 0.651850 0.239856 -0.355426
C47   C     C_3   0.051674 0.274372 0.852654 -0.439821
C48   C     C_3   0.948322 0.725623 0.147347 -0.439824
C49   C     C_3   0.902893 0.234725 0.739780 -0.378631
C50   C     C_3   0.097104 0.765274 0.260216 -0.378652
C51   C     C_3   0.999019 0.188587 0.689591 0.179321
C52   C     C_3   0.000981 0.811412 0.310409 0.179313
C53   C     C_3   0.039174 0.275264 0.688382 -0.420995
C54   C     C_3   0.960824 0.724737 0.311617 -0.421009
C55   C     C_3   0.299325 0.349608 0.582172 -0.372804
C56   C     C_3   0.700731 0.650383 0.417874 -0.372777
C57   C     C_3   0.228425 0.276484 0.581137 -0.418663
C58   C     C_3   0.771632 0.723508 0.418909 -0.418676
C59   C     C_3   0.224194 0.267616 0.416036 -0.415798
C60   C     C_3   0.775796 0.732437 0.584003 -0.415781
H1    H     H_    0.110211 0.401331 0.807579 0.174914
H2    H     H_    0.889797 0.598667 0.192426 0.174921
H3    H     H_    0.347432 0.211226 0.448753 0.183766
H4    H     H_    0.652500 0.788740 0.551150 0.183758
H5    H     H_    0.399447 0.269894 0.566714 0.147365
H6    H     H_    0.600528 0.730027 0.433194 0.147355
H7    H     H_    0.291682 0.158416 0.558685 0.184084
H8    H     H_    0.708282 0.841501 0.441209 0.184092
H9    H     H_    0.236264 0.102836 0.440529 0.147941
H10   H     H_    0.763655 0.897136 0.559364 0.147949
H11   H     H_    0.230901 0.237648 0.357391 0.173326
H12   H     H_    0.769053 0.762410 0.642621 0.173348
H13   H     H_    0.120710 0.132704 0.354324 0.158335
H14   H     H_    0.879236 0.867366 0.645691 0.158303
H15   H     H_    0.769700 0.642225 0.761022 0.173681
H16   H     H_    0.230345 0.357763 0.238904 0.173718
H17   H     H_    0.794185 0.586568 0.680865 0.166608
H18   H     H_    0.205801 0.413332 0.319052 0.166570
H19   H     H_    0.902296 0.590238 0.787874 0.224872
H20   H     H_    0.097701 0.409691 0.212063 0.224885
H21   H     H_    0.877456 0.645035 0.867892 0.149989
H22   H     H_    0.122578 0.354956 0.132051 0.149971
H23   H     H_    0.107175 0.294530 0.699838 0.149933
H24   H     H_    0.892823 0.705470 0.300155 0.149946
H25   H     H_    0.654456 0.552505 0.790730 0.194656
H26   H     H_    0.345629 0.447604 0.209312 0.194644
H27   H     H_    0.764299 0.558455 0.898281 0.170295
H28   H     H_    0.235768 0.441626 0.101750 0.170310
H29   H     H_    0.636162 0.356041 0.617396 0.136333
H30   H     H_    0.363769 0.643940 0.382661 0.136378
H31   H     H_    0.717050 0.418582 0.597917 0.226135
H32   H     H_    0.282855 0.581311 0.402058 0.226114
H33   H     H_    0.739736 0.358798 0.727143 0.113180
H34   H     H_    0.260220 0.641188 0.272899 0.113160
H35   H     H_    0.600603 0.434840 0.731589 0.151576
H36   H     H_    0.399417 0.565264 0.268490 0.151575
H37   H     H_    0.708129 0.440756 0.841306 0.187788
H38   H     H_    0.291892 0.559322 0.158749 0.187797
H39   H     H_    0.870188 0.206607 0.772194 0.178013
H40   H     H_    0.129801 0.793393 0.227799 0.178020
H41   H     H_    0.873914 0.099523 0.671768 0.146335
H42   H     H_    0.126087 0.900476 0.328239 0.146333
H43   H     H_    0.999909 0.266851 0.622972 0.189622
H44   H     H_    0.000084 0.733149 0.377027 0.189616
H45   H     H_    0.862076 0.149705 0.604044 0.193306
H46   H     H_    0.137918 0.850285 0.395953 0.193301
H47   H     H_    0.863563 0.259628 0.706998 0.208149
H48   H     H_    0.136436 0.740373 0.292993 0.208083
H49   H     H_    0.004869 0.376881 0.729852 0.221447
H50   H     H_    0.995141 0.623129 0.270155 0.221473
H51   H     H_    0.123321 0.224569 0.798810 0.177147
H52   H     H_    0.876683 0.775439 0.201194 0.177148
H53   H     H_    0.027142 0.141321 0.784526 0.162881
H54   H     H_    0.972865 0.858678 0.215476 0.162883
H55   H     H_    0.021543 0.245767 0.886439 0.170741
H56   H     H_    0.978444 0.754221 0.113554 0.170739
H57   H     H_    0.119968 0.328198 0.903485 0.152949
H58   H     H_    0.880029 0.671797 0.096524 0.152958
H59   H     H_    0.279333 0.399429 0.580495 0.183479
H60   H     H_    0.720747 0.600587 0.419603 0.183460
H61   H     H_    0.362302 0.382862 0.644553 0.160694
H62   H     H_    0.637768 0.617097 0.355469 0.160727
H63   H     H_    0.257783 0.272533 0.641732 0.171428
H64   H     H_    0.742288 0.727422 0.358287 0.171398
H65   H     H_    0.175837 0.292422 0.581698 0.156114
H66   H     H_    0.824248 0.707597 0.418407 0.156149
H67   H     H_    0.206082 0.317943 0.411581 0.155291
H68   H     H_    0.793936 0.682139 0.588510 0.155265
H69   H     H_    0.099175 0.214254 0.412597 0.184340
H70   H     H_    0.900843 0.785839 0.587506 0.184354
O1    O     O_R   0.592570 0.552270 0.644860 -0.629774
O2    O     O_R   0.407430 0.447730 0.355140 -0.629768
O3    O     O_R   0.947720 0.540390 0.092600 -0.620603
O4    O     O_R   0.052280 0.459610 0.907400 -0.620624
O5    O     O_R   0.959660 0.552230 0.907350 -0.605168
O6    O     O_R   0.040340 0.447770 0.092650 -0.605120
O7    O     O_R   0.855120 0.447750 0.907440 -0.642958
O8    O     O_R   0.144880 0.552250 0.092560 -0.642967
O9    O     O_R   0.592650 0.447750 0.540350 -0.628356
O10   O     O_R   0.407350 0.552250 0.459650 -0.628356
O11   O     O_R   0.407370 0.459660 0.552260 -0.629643
O12   O     O_R   0.592630 0.540340 0.447740 -0.629643
O13   O     O_R   0.407450 0.355140 0.447760 -0.630295
O14   O     O_R   0.592550 0.644860 0.552240 -0.630292
O15   O     O_R   0.052270 0.092540 0.644860 -0.632735
O16   O     O_R   0.947730 0.907460 0.355140 -0.632732
O17   O     O_R   0.947710 0.092600 0.540380 -0.625534
O18   O     O_R   0.052290 0.907400 0.459620 -0.625533
O19   O     O_R   0.144880 0.092570 0.552230 -0.629655
O20   O     O_R   0.855120 0.907430 0.447770 -0.629655
O21   O     O_R   0.040310 0.092630 0.447750 -0.629589
O22   O     O_R   0.959690 0.907370 0.552250 -0.629587
O23   O     O_R   0.052260 0.644880 0.092510 -0.638539
O24   O     O_R   0.947740 0.355120 0.907490 -0.638535
Zn1   Zn    Zn3+2 0.499940 0.569790 0.569780 0.923021
Zn2   Zn    Zn3+2 0.500060 0.430210 0.430220 0.923026
Zn3   Zn    Zn3+2 0.069820 0.999960 0.569760 0.921055
Zn4   Zn    Zn3+2 0.930180 0.000040 0.430240 0.921059
Zn5   Zn    Zn3+2 0.069800 0.569760 0.999940 0.942266
Zn6   Zn    Zn3+2 0.930200 0.430240 0.000060 0.942304
Cl1   Cl    Cl    0.851979 0.410709 0.692904 -0.720944
Cl2   Cl    Cl    0.147938 0.589195 0.307063 -0.720893

loop_
_geom_bond_atom_site_label_1
_geom_bond_atom_site_label_2
_ccdc_geom_bond_type
C4    H6    S    
C39   O7    A    
C1    C21   S    
C18   H36   S    
C3    C11   S    
C36   O20   A    
C55   H61   S    
C49   H47   S    
C20   C30   S    
C47   H55   S    
C12   H8    S    
C7    C35   S    
C18   H26   S    
C41   H45   S    
C46   H2    S    
C17   H25   S    
C54   H44   S    
C19   C21   S    
C24   O14   A    
C57   H65   S    
C45   H49   S    
C15   C25   S    
C57   H63   S    
C60   H12   S    
C59   H67   S    
C28   H28   S    
O15   Zn3   S    
C8    C36   S    
C35   O21   A    
C34   C52   S    
C33   O17   A    
C8    C58   S    
C34   O18   A    
O8    Zn5   S    
C15   H19   S    
C13   H15   S    
C24   O12   A    
C40   O8    A    
C2    C22   S    
C2    O2    A    
C26   C40   S    
C17   H35   S    
C4    C12   S    
C43   C47   S    
C1    O9    A    
C48   H56   S    
C44   C52   S    
C14   H18   S    
O4    Zn5   S    
C45   C53   S    
C9    H13   S    
C31   C47   S    
C50   H48   S    
C56   H60   S    
C23   O13   A    
C3    H5    S    
C43   H51   S    
C31   C49   S    
C42   H42   S    
C41   C49   S    
C42   C52   S    
C11   H7    S    
C7    C11   S    
C25   C29   S    
C13   H17   S    
O5    Zn5   S    
C5    C59   S    
C17   C27   S    
O21   Zn4   S    
C6    C60   S    
C60   H68   S    
C18   C28   S    
C15   H21   S    
C36   O22   A    
C39   O5    A    
C3    C5    S    
C20   H30   S    
C17   C21   S    
C16   H20   S    
C14   H16   S    
O23   Zn5   S    
C10   C60   S    
C10   H70   S    
O24   Zn6   S    
C19   H29   S    
C37   O23   A    
C49   H39   S    
C40   O6    A    
C5    C23   S    
C8    C12   S    
C6    C24   S    
C46   C54   S    
C16   H22   S    
C13   C21   S    
C32   C37   S    
C27   H27   S    
C42   H46   S    
C32   C50   S    
C33   O15   A    
C42   C50   S    
C44   H52   S    
C4    C6    S    
C41   C51   S    
C20   C22   S    
C58   H66   S    
C3    H3    S    
C55   C57   S    
C37   O3    A    
C20   H32   S    
C33   C51   S    
C30   Cl2   S    
C19   C29   S    
C28   H38   S    
C41   H41   S    
C7    C9    S    
C12   H10   S    
O22   Zn3   S    
C27   H37   S    
O20   Zn4   S    
O7    Zn6   S    
C18   C22   S    
C32   C46   S    
C5    C55   S    
O11   Zn1   S    
C6    C56   S    
C58   H64   S    
C1    O1    A    
C16   C26   S    
C48   H58   S    
C11   H9    S    
C26   C30   S    
C55   H59   S    
O16   Zn4   S    
C9    H69   S    
C25   C27   S    
C4    H4    S    
C26   C28   S    
C31   C38   S    
C53   H23   S    
O3    Zn6   S    
C2    O10   A    
C14   C22   S    
O14   Zn1   S    
C13   C15   S    
C45   H1    S    
C30   H34   S    
C46   H50   S    
C25   C39   S    
C29   H33   S    
C10   H14   S    
C43   C51   S    
O13   Zn2   S    
C32   C48   S    
O19   Zn3   S    
O9    Zn2   S    
C53   H43   S    
O1    Zn1   S    
O2    Zn2   S    
C56   C58   S    
C52   C54   S    
C14   C16   S    
O18   Zn3   S    
C38   O4    A    
C54   H24   S    
C50   H40   S    
C19   H31   S    
O10   Zn1   S    
C44   H54   S    
O6    Zn6   S    
C47   H57   S    
O12   Zn2   S    
C8    C10   S    
C31   C45   S    
C59   H11   S    
C38   O24   A    
C34   O16   A    
C23   O11   A    
C35   O19   A    
C29   Cl1   S    
C51   C53   S    
O17   Zn4   S    
C9    C59   S    
C7    C57   S    
C43   H53   S    
C44   C48   S    
C56   H62   S    
