data_mof_unit_27988.cif
_audit_creation_date              2012-12-10T17:24:38-0500
_audit_creation_method            fapswitch 2.2
_symmetry_space_group_name_H-M    P1
_symmetry_Int_Tables_number       1
_space_group_crystal_system       triclinic
_cell_length_a                    19.200731
_cell_length_b                    19.651654
_cell_length_c                    19.232712
_cell_angle_alpha                 109.742493
_cell_angle_beta                  108.407155
_cell_angle_gamma                 110.415092
_cell_volume                      5574.67808512

loop_
_atom_site_label
_atom_site_type_symbol
_atom_type_description
_atom_site_fract_x
_atom_site_fract_y
_atom_site_fract_z
_atom_type_partial_charge
C1    C     C_R   0.614614 0.620223 0.495748 0.905125
C2    C     C_3   0.181195 0.404512 0.189943 -0.203863
C3    C     C_3   0.216932 0.455398 0.288540 -0.244131
C4    C     C_3   0.310278 0.489734 0.306491 -0.080190
C5    C     C_R   0.604091 0.776640 0.514506 0.405788
C6    C     C_R   0.598038 0.847203 0.517230 0.444329
C7    C     C_R   0.661248 0.909765 0.519069 -0.426957
C8    C     C_R   0.729697 0.902925 0.509559 0.443691
C9    C     C_R   0.739263 0.829971 0.505951 -0.100558
C10   C     C_R   0.674474 0.765660 0.507599 -0.134475
C11   C     C_R   0.810922 0.819150 0.502674 -0.147055
C12   C     C_R   0.379496 0.498009 0.378854 0.899625
C13   C     C_R   0.821257 0.750762 0.508316 -0.044952
C14   C     C_R   0.757862 0.691558 0.514008 0.019589
C15   C     C_R   0.681748 0.692353 0.502127 -0.094429
C16   C     C_R   0.894681 0.740910 0.511452 0.439722
C17   C     C_R   0.911336 0.686627 0.548456 0.151482
C18   C     C_R   0.845318 0.629477 0.550330 -0.170466
C19   C     C_R   0.771103 0.631068 0.532946 -0.217837
C20   C     C_R   0.788564 0.670225 0.773064 0.037713
C21   C     C_R   0.878023 0.745300 0.832137 0.524334
C22   C     C_R   0.929740 0.738613 0.899070 -0.328736
C23   C     C_R   0.380172 0.381312 0.501265 0.833583
C24   C     C_R   0.903208 0.659759 0.898409 -0.164075
C25   C     C_R   0.829225 0.582591 0.826616 0.060603
C26   C     C_R   0.767348 0.586227 0.763198 0.001805
C27   C     C_R   0.816777 0.502898 0.818859 -0.132075
C28   C     C_R   0.743625 0.425962 0.747098 -0.017667
C29   C     C_R   0.679328 0.427141 0.685082 0.073129
C30   C     C_R   0.690175 0.506289 0.692109 -0.150510
C31   C     C_R   0.733887 0.346733 0.735368 -0.248191
C32   C     C_R   0.661106 0.269638 0.667563 0.589158
C33   C     C_R   0.595572 0.270530 0.608033 -0.271247
C34   C     C_R   0.620781 0.501266 0.622176 0.821023
C35   C     C_R   0.604316 0.347615 0.617147 -0.225032
C36   C     C_R   0.373400 0.410655 0.672133 0.084577
C37   C     C_R   0.362119 0.430386 0.750322 0.109971
C38   C     C_R   0.303226 0.360277 0.749567 0.521282
C39   C     C_R   0.240459 0.285772 0.666212 -0.289258
C40   C     C_R   0.244543 0.270201 0.585586 -0.027937
C41   C     C_R   0.311727 0.333361 0.587610 0.021991
C42   C     C_R   0.182214 0.190996 0.503702 -0.121901
C43   C     C_R   0.178307 0.181343 0.425064 0.077604
C44   C     C_R   0.241993 0.246636 0.426362 -0.008874
C45   C     C_3   0.314604 0.566092 0.298015 0.153597
C46   C     C_R   0.312782 0.318349 0.506109 -0.143066
C47   C     C_R   0.110815 0.108256 0.344355 -0.224718
C48   C     C_R   0.101837 0.103758 0.267538 -0.286813
C49   C     C_R   0.163743 0.169550 0.267896 0.599270
C50   C     C_R   0.231724 0.240161 0.346807 -0.233232
C51   C     C_R   0.994203 0.619837 0.114675 1.080115
C52   C     C_R   0.123122 0.487153 0.112329 0.811590
C53   C     C_R   0.007562 0.379980 0.887268 0.832462
C54   C     C_R   0.883270 0.501089 0.884413 0.866656
C55   C     C_R   0.000061 0.880935 0.381453 0.889865
C56   C     C_3   0.222162 0.533234 0.283239 -0.137123
C57   C     C_R   0.879881 0.883773 0.502542 0.956792
C58   C     C_R   0.997974 0.116994 0.619702 0.859271
C59   C     C_R   0.118541 0.120414 0.501185 0.830209
C60   C     C_R   0.148717 0.749824 0.286516 0.481283
C61   C     C_R   0.230320 0.817325 0.355067 -0.291747
C62   C     C_R   0.235001 0.891816 0.407154 0.225792
C63   C     C_R   0.158523 0.894034 0.390478 -0.203345
C64   C     C_R   0.077013 0.823119 0.322002 -0.069306
C65   C     C_R   0.074688 0.756120 0.262716 0.024927
C66   C     C_R   0.997999 0.814503 0.314735 -0.118095
C67   C     C_3   0.188139 0.483724 0.183465 -0.107641
C68   C     C_R   0.918298 0.739218 0.248302 0.047712
C69   C     C_R   0.915908 0.677790 0.179324 -0.077307
C70   C     C_R   0.994653 0.687226 0.184655 -0.160065
C71   C     C_R   0.841444 0.723978 0.251047 -0.173757
C72   C     C_R   0.762662 0.652203 0.186183 -0.201580
C73   C     C_R   0.756029 0.594040 0.113582 0.174915
C74   C     C_R   0.835339 0.607604 0.106958 0.403101
C75   C     C_R   0.994178 0.382256 0.726009 0.112550
C76   C     C_R   0.996174 0.385463 0.654609 -0.147985
C77   C     C_R   0.003470 0.326348 0.597489 0.215725
C78   C     C_3   0.281240 0.514833 0.200334 -0.287582
C79   C     C_R   0.009106 0.262681 0.612036 -0.193447
C80   C     C_R   0.003503 0.253574 0.681945 -0.021926
C81   C     C_R   0.000467 0.316873 0.743025 0.072840
C82   C     C_R   0.002253 0.183217 0.690605 -0.150801
C83   C     C_R   0.003186 0.176304 0.764279 0.064787
C84   C     C_R   0.001746 0.241238 0.826159 -0.038160
C85   C     C_R   0.003705 0.312358 0.817501 -0.129364
C86   C     C_R   0.003787 0.107334 0.779185 0.140431
C87   C     C_R   0.992573 0.101212 0.848468 -0.289221
C88   C     C_R   0.985762 0.162898 0.905763 0.532621
C89   C     C_3   0.275277 0.437297 0.209156 0.591565
C90   C     C_R   0.998330 0.234121 0.897274 -0.260291
H1    H     H_    0.193791 0.566710 0.322672 0.115869
H2    H     H_    0.650808 0.960563 0.519986 0.173602
H3    H     H_    0.728129 0.586911 0.543084 0.166808
H4    H     H_    0.536137 0.212617 0.556211 0.138698
H5    H     H_    0.990414 0.794239 0.952981 0.149030
H6    H     H_    0.942285 0.661637 0.955931 0.192533
H7    H     H_    0.783031 0.341752 0.776964 0.185330
H8    H     H_    0.548939 0.342404 0.571782 0.180396
H9    H     H_    0.186564 0.239415 0.664764 0.188419
H10   H     H_    0.063867 0.052869 0.338201 0.187691
H11   H     H_    0.045864 0.049073 0.208634 0.139820
H12   H     H_    0.307485 0.537367 0.163069 0.148010
H13   H     H_    0.273526 0.291290 0.343137 0.187143
H14   H     H_    0.288550 0.814052 0.369568 0.134795
H15   H     H_    0.163303 0.951629 0.430940 0.176681
H16   H     H_    0.841619 0.766616 0.304882 0.188910
H17   H     H_    0.704872 0.643683 0.190677 0.161140
H18   H     H_    0.993853 0.436216 0.644495 0.138353
H19   H     H_    0.021797 0.223364 0.568215 0.180164
H20   H     H_    0.988782 0.048156 0.858008 0.151592
H21   H     H_    0.005236 0.283886 0.950158 0.191675
H22   H     H_    0.125294 0.338693 0.145916 0.182242
H23   H     H_    0.191700 0.432520 0.326252 0.156783
H24   H     H_    0.852346 0.583604 0.568870 0.155770
O1    O     O_R   0.592010 0.539900 0.448660 -0.628328
O2    O     O_R   0.054870 0.643310 0.094700 -0.620879
O3    O     O_R   0.044440 0.448270 0.096110 -0.597148
O4    O     O_R   0.147870 0.551680 0.096080 -0.657462
O5    O     O_R   0.952810 0.356650 0.912880 -0.632986
O6    O     O_R   0.056240 0.460060 0.912840 -0.636400
O7    O     O_R   0.859800 0.448280 0.911500 -0.638318
O8    O     O_R   0.963240 0.551690 0.911470 -0.657360
O9    O     O_R   0.052860 0.908430 0.461230 -0.623725
O10   O     O_R   0.948620 0.908400 0.356980 -0.642093
O11   O     O_R   0.960510 0.908410 0.552140 -0.611640
O12   O     O_R   0.591210 0.643320 0.551330 -0.591338
O13   O     O_R   0.856270 0.908390 0.447890 -0.545956
O14   O     O_R   0.051380 0.091620 0.643040 -0.684055
O15   O     O_R   0.947140 0.091600 0.538800 -0.618572
O16   O     O_R   0.143730 0.091640 0.552130 -0.617542
O17   O     O_R   0.039490 0.091610 0.447890 -0.640725
O18   O     O_R   0.408080 0.448290 0.356360 -0.584561
O19   O     O_R   0.407280 0.551710 0.459030 -0.624314
O20   O     O_R   0.408790 0.356680 0.448670 -0.629211
O21   O     O_R   0.407990 0.460100 0.551340 -0.640680
O22   O     O_R   0.592720 0.448290 0.540970 -0.624965
O23   O     O_R   0.591920 0.551710 0.643640 -0.653727
O24   O     O_R   0.951440 0.539900 0.094740 -0.587986
Zn1   Zn    Zn3+2 0.500540 0.430950 0.431450 0.991560
Zn2   Zn    Zn3+2 0.499460 0.569050 0.568550 0.882676
Zn3   Zn    Zn3+2 0.934770 0.430930 0.003810 0.975881
Zn4   Zn    Zn3+2 0.072900 0.569020 0.003770 0.918437
Zn5   Zn    Zn3+2 0.069600 0.000030 0.569620 0.919519
Zn6   Zn    Zn3+2 0.930400 0.000000 0.430410 0.984351
O25   O     O_3   0.776457 0.955979 0.484109 -0.527363
C91   C     C_3   0.777816 0.041590 0.523209 -0.254300
H25   H     H_    0.796184 0.066113 0.595913 0.134014
H26   H     H_    0.715756 0.037420 0.481229 0.124218
H27   H     H_    0.827470 0.093670 0.523364 0.200894
O26   O     O_3   0.940058 0.777200 0.469330 -0.589162
C92   C     C_3   0.017356 0.773731 0.492371 -0.140612
H28   H     H_    0.003913 0.709029 0.442145 0.140994
H29   H     H_    0.051169 0.802248 0.565512 0.136504
H30   H     H_    0.073969 0.821880 0.495819 0.174531
C93   C     C_3   0.997671 0.687171 0.595203 -0.875352
H31   H     H_    0.992110 0.638872 0.618318 0.222661
H32   H     H_    0.022559 0.666455 0.548122 0.218113
H33   H     H_    0.047854 0.753961 0.656927 0.220287
C94   C     C_3   0.718874 0.684630 0.720012 -0.657346
H34   H     H_    0.694792 0.644434 0.652465 0.233647
H35   H     H_    0.666338 0.683279 0.741047 0.233027
H36   H     H_    0.745769 0.747034 0.721382 0.221195
O27   O     O_3   0.909759 0.824921 0.822361 -0.584735
C95   C     C_3   0.007805 0.893023 0.868762 -0.200894
H37   H     H_    0.050860 0.856942 0.865849 0.127666
H38   H     H_    0.023953 0.932599 0.941741 0.132856
H39   H     H_    0.029746 0.932564 0.830642 0.127227
C96   C     C_3   0.392030 0.657981 0.352782 -0.784488
H40   H     H_    0.378077 0.697538 0.327057 0.213618
H41   H     H_    0.404389 0.685208 0.419310 0.268250
H42   H     H_    0.450029 0.658901 0.351671 0.255458
O28   O     O_3   0.653316 0.197279 0.670373 -0.619925
C97   C     C_3   0.600963 0.118075 0.591085 -0.288613
H43   H     H_    0.591944 0.128946 0.535471 0.126064
H44   H     H_    0.530793 0.094122 0.582328 0.182047
H45   H     H_    0.655977 0.097230 0.596695 0.195354
O29   O     O_3   0.160587 0.170956 0.194294 -0.589056
C98   C     C_3   0.100319 0.091222 0.117047 -0.287710
H46   H     H_    0.034569 0.083951 0.094515 0.152825
H47   H     H_    0.101403 0.037086 0.126045 0.137725
H48   H     H_    0.118584 0.089725 0.064917 0.176260
C99   C     C_3   0.460204 0.469170 0.686731 -0.612111
H49   H     H_    0.475838 0.434414 0.642826 0.192117
H50   H     H_    0.460914 0.527196 0.686807 0.257774
H51   H     H_    0.520240 0.471240 0.734723 0.165528
C100  C     C_3   0.421482 0.522433 0.834299 -0.850303
H52   H     H_    0.440918 0.503982 0.881453 0.230272
H53   H     H_    0.487113 0.571993 0.844966 0.225626
H54   H     H_    0.388631 0.561971 0.847004 0.222255
O30   O     O_3   0.306922 0.351248 0.822074 -0.588630
C101  C     C_3   0.364211 0.420265 0.909844 -0.260304
H55   H     H_    0.364344 0.478582 0.918138 0.147697
H56   H     H_    0.432264 0.441391 0.939403 0.136671
H57   H     H_    0.340350 0.403056 0.950267 0.179163
C102  C     C_3   0.660265 0.525671 0.041160 -0.923243
H58   H     H_    0.613446 0.530504 0.062531 0.230608
H59   H     H_    0.644315 0.539033 0.987570 0.242560
H60   H     H_    0.644629 0.458176 0.019245 0.222694
O31   O     O_3   0.120150 0.661495 0.238313 -0.640376
C103  C     C_3   0.188151 0.644323 0.246171 -0.248009
H61   H     H_    0.142962 0.580499 0.238665 0.236802
H62   H     H_    0.255149 0.685362 0.310521 0.121725
H63   H     H_    0.201924 0.645406 0.187810 0.258990
C104  C     C_3   0.321237 0.968024 0.483199 -0.925572
H64   H     H_    0.375176 0.960820 0.480202 0.219532
H65   H     H_    0.329787 0.026745 0.482199 0.244122
H66   H     H_    0.323610 0.973954 0.544062 0.244290
O32   O     O_3   0.833240 0.574494 0.022745 -0.636796
C105  C     C_3   0.757547 0.487544 0.967198 0.012431
H67   H     H_    0.693988 0.475988 0.917937 0.121340
H68   H     H_    0.754505 0.469983 0.019044 0.092206
H69   H     H_    0.760923 0.418188 0.950949 0.118996
O33   O     O_3   0.974722 0.163246 0.976392 -0.609226
C106  C     C_3   0.935071 0.083147 0.970336 -0.274254
H70   H     H_    0.986175 0.068527 0.987552 0.148287
H71   H     H_    0.872644 0.028938 0.904996 0.163216
H72   H     H_    0.924850 0.094591 0.027330 0.183361
O34   O     O_3   0.306561 0.386220 0.175560 -0.580149
C107  C     C_3   0.257990 0.339855 0.085581 -0.280497
H73   H     H_    0.267815 0.382618 0.058580 0.141127
H74   H     H_    0.188188 0.299654 0.061735 0.167170
H75   H     H_    0.281763 0.297618 0.062322 0.199876
C108  C     C_3   0.993053 0.456890 0.783150 -0.770002
H76   H     H_    0.060648 0.506897 0.826284 0.262251
H77   H     H_    0.964068 0.483551 0.748529 0.195809
H78   H     H_    0.954824 0.441418 0.813018 0.260348
C109  C     C_3   0.003978 0.330503 0.519596 -0.911826
H79   H     H_    0.002832 0.387130 0.519980 0.233703
H80   H     H_    0.063469 0.334835 0.519726 0.246415
H81   H     H_    0.946984 0.273137 0.459982 0.246067
C110  C     C_3   0.004868 0.032080 0.719157 -0.754644
H82   H     H_    0.007095 0.988621 0.743666 0.199976
H83   H     H_    0.943256 0.995808 0.658211 0.219694
H84   H     H_    0.059429 0.048717 0.702120 0.309372
O35   O     O_3   0.533951 0.711616 0.504490 -0.599745
C111  C     C_3   0.497540 0.734310 0.556525 -0.085262
H85   H     H_    0.440012 0.738448 0.515477 0.145782
H86   H     H_    0.546099 0.793979 0.618794 0.130155
H87   H     H_    0.464878 0.681939 0.568331 0.168692
O36   O     O_3   0.524701 0.847629 0.514082 -0.658070
C112  C     C_3   0.509631 0.912825 0.509987 -0.141175
H88   H     H_    0.485109 0.902460 0.440746 0.143035
H89   H     H_    0.499525 0.960606 0.558442 0.046906
H90   H     H_    0.457193 0.893641 0.536447 0.168552

loop_
_geom_bond_atom_site_label_1
_geom_bond_atom_site_label_2
_ccdc_geom_bond_type
C8    C9    A    
C66   C68   A    
C87   C88   A    
C59   O16   A    
C58   O14   A    
O30   C101  S    
C21   O27   S    
C78   H12   S    
C73   C74   A    
C4    C89   S    
C108  H76   S    
C43   C44   A    
C33   H4    S    
C18   H24   S    
C98   H46   S    
C104  H65   S    
C108  H78   S    
C7    C8    A    
C87   H20   S    
C74   O32   S    
O33   C106  S    
O18   Zn1   S    
C2    H22   S    
C37   C38   A    
C83   C84   A    
C86   C110  S    
C36   C37   A    
C8    O25   S    
C18   C19   A    
C10   C15   A    
C24   H6    S    
C57   O11   A    
C5    C6    A    
C106  H71   S    
C93   H32   S    
C48   H11   S    
C58   O15   A    
C65   C70   A    
C102  H59   S    
C105  H69   S    
C111  H85   S    
C112  H88   S    
C22   H5    S    
C92   H30   S    
C49   C50   A    
C109  H79   S    
C99   H49   S    
C60   O31   S    
C16   O26   S    
C89   O34   S    
C68   C69   A    
O27   C95   S    
C84   C85   A    
C96   H42   S    
C31   C32   A    
C45   C56   S    
C103  H61   S    
C38   O30   S    
C20   C94   S    
C41   C46   A    
C94   H35   S    
C45   C78   S    
C1    C15   S    
C51   C70   S    
C63   H15   S    
C35   H8    S    
C9    C10   A    
C49   O29   S    
C19   H3    S    
C72   C73   A    
C102  H60   S    
C52   O3    A    
C96   H41   S    
C32   O28   S    
C75   C108  S    
O31   C103  S    
C76   H18   S    
C23   C46   S    
C13   C14   A    
C93   H33   S    
C40   C42   A    
C53   C85   S    
C36   C41   A    
C61   C62   A    
C67   C78   S    
C84   C90   A    
C90   H21   S    
O22   Zn1   S    
C45   C96   S    
C44   C46   A    
C17   C18   A    
C91   H26   S    
C4    C45   S    
C56   H1    S    
C78   C89   S    
O21   Zn2   S    
O23   Zn2   S    
C55   O9    A    
C53   O6    A    
C28   C31   A    
C88   O33   S    
C79   H19   S    
C39   C40   A    
C101  H55   S    
C47   C48   A    
O7    Zn3   S    
C61   H14   S    
O6    Zn4   S    
C24   C25   A    
C80   C82   A    
C2    C67   S    
C3    H23   S    
O32   C105  S    
O20   Zn1   S    
O15   Zn6   S    
C30   C34   S    
C106  H70   S    
C16   C17   A    
C25   C26   A    
C97   H43   S    
C6    O36   S    
C106  H72   S    
C47   H10   S    
C63   C64   A    
C60   C61   A    
C112  H89   S    
C99   H51   S    
C64   C66   A    
C2    C89   S    
O3    Zn3   S    
C75   C76   A    
C101  H56   S    
C29   C30   A    
C107  H74   S    
C91   H27   S    
C3    C56   S    
C39   H9    S    
C94   H34   S    
C110  H82   S    
C72   H17   S    
C34   O22   A    
C92   H28   S    
O1    Zn1   S    
O12   Zn2   S    
C109  H81   S    
C62   C63   A    
C108  H77   S    
C105  H67   S    
C94   H36   S    
C69   C74   A    
C110  H83   S    
C76   C77   A    
O16   Zn5   S    
C9    C11   A    
C62   C104  S    
C97   H44   S    
C27   C54   S    
O2    Zn4   S    
C96   H40   S    
C109  H80   S    
C54   O7    A    
C88   C90   A    
C60   C65   A    
C77   C109  S    
C12   O19   A    
C73   C102  S    
C1    O12   A    
O5    Zn3   S    
C22   C24   A    
C79   C80   A    
C13   C16   A    
C4    C12   S    
C42   C43   A    
O8    Zn4   S    
C100  H53   S    
C3    C4    S    
C17   C93   S    
O25   C91   S    
C107  H73   S    
C55   C66   S    
O28   C97   S    
C28   C29   A    
C59   O17   A    
C97   H45   S    
C44   C50   A    
C103  H63   S    
C55   O10   A    
C95   H37   S    
O35   C111  S    
C12   O18   A    
C23   O20   A    
C20   C21   A    
C86   C87   A    
C14   C19   A    
C95   H39   S    
C75   C81   A    
C14   C15   A    
C52   C67   S    
C80   C81   A    
O4    Zn4   S    
O24   Zn3   S    
C42   C59   S    
C57   O13   A    
C98   H47   S    
C53   O5    A    
C37   C100  S    
C26   C30   A    
C6    C7    A    
C31   H7    S    
C25   C27   A    
C56   C67   S    
C29   C35   A    
C34   O23   A    
C51   O2    A    
C111  H87   S    
C23   O21   A    
C112  H90   S    
C32   C33   A    
C100  H54   S    
C58   C82   S    
C2    C3    S    
C101  H57   S    
C5    C10   A    
C11   C57   S    
C82   C83   A    
C64   C65   A    
C107  H75   S    
C11   C13   A    
O34   C107  S    
C38   C39   A    
C20   C26   A    
O11   Zn5   S    
C68   C71   A    
C48   C49   A    
C7    H2    S    
C95   H38   S    
O36   C112  S    
C33   C35   A    
C111  H86   S    
C104  H66   S    
C91   H25   S    
O13   Zn6   S    
C92   H29   S    
C54   O8    A    
C69   C70   A    
O14   Zn5   S    
C99   H50   S    
C98   H48   S    
C110  H84   S    
C102  H58   S    
C77   C79   A    
C51   O24   A    
C50   H13   S    
C83   C86   A    
C36   C99   S    
C104  H64   S    
O19   Zn2   S    
C103  H62   S    
O29   C98   S    
C5    O35   S    
C71   H16   S    
O9    Zn5   S    
C93   H31   S    
C105  H68   S    
O26   C92   S    
O10   Zn6   S    
C40   C41   A    
C1    O1    A    
C71   C72   A    
C100  H52   S    
C21   C22   A    
C43   C47   A    
C81   C85   A    
O17   Zn6   S    
C27   C28   A    
C52   O4    A    
