data_mof_unit_41852.cif
_audit_creation_date              2012-12-10T18:31:04-0500
_audit_creation_method            fapswitch 2.2
_symmetry_space_group_name_H-M    P1
_symmetry_Int_Tables_number       1
_space_group_crystal_system       triclinic
_cell_length_a                    13.686594
_cell_length_b                    15.004489
_cell_length_c                    15.448548
_cell_angle_alpha                 97.290622
_cell_angle_beta                  92.726433
_cell_angle_gamma                 98.375743
_cell_volume                      3106.24552613

loop_
_atom_site_label
_atom_site_type_symbol
_atom_type_description
_atom_site_fract_x
_atom_site_fract_y
_atom_site_fract_z
_atom_type_partial_charge
C1    C     C_R   0.515979 0.556634 0.662420 0.856766
C2    C     C_R   0.561780 0.388832 0.927070 -0.327807
C3    C     C_R   0.616228 0.669817 0.023362 0.447805
C4    C     C_R   0.543334 0.323270 0.983342 0.446314
C5    C     C_R   0.362090 0.172281 0.640908 -0.327118
C6    C     C_R   0.640010 0.828126 0.360618 -0.329072
C7    C     C_R   0.383508 0.258249 0.616476 0.021464
C8    C     C_R   0.617488 0.741921 0.384272 0.020585
C9    C     C_R   0.487660 0.206073 0.508737 -0.063016
C10   C     C_R   0.512509 0.793989 0.491320 -0.064825
C11   C     C_R   0.469259 0.117132 0.530365 -0.001726
C12   C     C_R   0.488698 0.443086 0.337730 0.858444
C13   C     C_R   0.532202 0.883214 0.470608 -0.000807
C14   C     C_R   0.404840 0.101333 0.598053 0.189103
C15   C     C_R   0.597294 0.899133 0.403429 0.182895
C16   C     C_R   0.318666 0.514043 0.497061 0.904775
C17   C     C_R   0.681327 0.485945 0.502907 0.905015
C18   C     C_R   0.512378 0.044340 0.487736 0.081347
C19   C     C_R   0.489593 0.956136 0.513587 0.081843
C20   C     C_R   0.425159 0.943761 0.581497 -0.241019
C21   C     C_R   0.577505 0.056870 0.420344 -0.241325
C22   C     C_R   0.383705 0.015147 0.622646 -0.216823
C23   C     C_R   0.570520 0.549319 0.900605 0.058546
C24   C     C_R   0.619129 0.985491 0.379331 -0.216705
C25   C     C_1   0.781535 0.475983 0.502526 -0.165152
C26   C     C_1   0.218393 0.523880 0.497105 -0.172109
C27   C     C_2   0.969470 0.460951 0.501257 0.402994
C28   C     C_2   0.030356 0.538694 0.497659 0.403749
C29   C     C_1   0.133643 0.532782 0.497211 -0.093678
C30   C     C_1   0.866231 0.466963 0.502071 -0.091430
C31   C     C_R   0.539932 0.589209 0.755314 -0.054312
C32   C     C_R   0.497939 0.408738 0.246083 -0.052465
C33   C     C_R   0.597152 0.708315 0.875260 -0.166352
C34   C     C_R   0.546338 0.445344 0.104040 0.059690
C35   C     C_R   0.506503 0.286965 0.129211 -0.173014
C36   C     C_R   0.570161 0.681396 0.786559 -0.216068
C37   C     C_R   0.490161 0.315691 0.216092 -0.218525
C38   C     C_R   0.539302 0.524664 0.812554 -0.230562
C39   C     C_R   0.524080 0.472099 0.189565 -0.231961
C40   C     C_3   0.064731 0.695641 0.490871 0.107831
C41   C     C_3   0.015251 0.779713 0.487776 -0.799280
C42   C     C_3   0.934916 0.303837 0.507048 0.108214
C43   C     C_3   0.984262 0.219620 0.509596 -0.800908
C44   C     C_3   0.573642 0.795968 0.102272 0.081258
C45   C     C_R   0.595745 0.643071 0.933284 0.060161
C46   C     C_3   0.603336 0.898185 0.125968 -0.814073
C47   C     C_3   0.445905 0.201758 0.903649 0.083104
C48   C     C_3   0.437191 0.100431 0.872559 -0.808672
C49   C     C_R   0.532811 0.351154 0.072065 0.057478
C50   C     C_R   0.569210 0.482697 0.957652 0.005725
C51   C     C_R   0.574208 0.510928 0.048190 0.010021
C52   C     C_R   0.605888 0.603829 0.079953 -0.330338
H1    H     H_    0.313011 0.161421 0.692876 0.139863
H2    H     H_    0.497569 0.214674 0.106824 0.178230
H3    H     H_    0.625698 0.626479 0.148557 0.154570
H4    H     H_    0.572451 0.364644 0.859822 0.165940
H5    H     H_    0.334561 0.002651 0.674262 0.142680
H6    H     H_    0.668794 0.998077 0.328098 0.146348
H7    H     H_    0.463818 0.774176 0.540377 0.125724
H8    H     H_    0.535389 0.225683 0.458935 0.125293
H9    H     H_    0.649405 0.685992 0.351570 0.137628
H10   H     H_    0.351658 0.314168 0.649258 0.135182
H11   H     H_    0.105786 0.685458 0.430751 0.148475
H12   H     H_    0.689987 0.839111 0.309341 0.155431
H13   H     H_    0.117162 0.707770 0.550018 0.143162
H14   H     H_    0.974128 0.792218 0.547299 0.259416
H15   H     H_    0.072208 0.839835 0.484683 0.202895
H16   H     H_    0.962812 0.770088 0.429039 0.258700
H17   H     H_    0.882878 0.292298 0.447664 0.144897
H18   H     H_    0.893431 0.313409 0.566981 0.150001
H19   H     H_    0.036294 0.228637 0.568551 0.256712
H20   H     H_    0.927181 0.159390 0.511893 0.204536
H21   H     H_    0.025808 0.207719 0.450237 0.259211
H22   H     H_    0.563360 0.765826 0.164023 0.145111
H23   H     H_    0.404911 0.879652 0.605130 0.136693
H24   H     H_    0.501959 0.783407 0.061954 0.135767
H25   H     H_    0.610916 0.930932 0.065564 0.257281
H26   H     H_    0.545942 0.926746 0.164539 0.209170
H27   H     H_    0.675039 0.913260 0.165663 0.252819
H28   H     H_    0.439821 0.237216 0.844943 0.141238
H29   H     H_    0.383234 0.212955 0.945214 0.134408
H30   H     H_    0.443569 0.062738 0.929481 0.252667
H31   H     H_    0.364263 0.075614 0.836406 0.194564
H32   H     H_    0.496695 0.087299 0.828338 0.264879
H33   H     H_    0.598494 0.121176 0.397284 0.137594
H34   H     H_    0.523905 0.543002 0.212528 0.155323
H35   H     H_    0.510671 0.454805 0.787945 0.155938
H36   H     H_    0.471333 0.265375 0.259444 0.159422
H37   H     H_    0.572278 0.732517 0.742810 0.162427
H38   H     H_    0.617652 0.780176 0.898344 0.182538
N1    N     N_R   0.445040 0.272490 0.551770 -0.099155
N2    N     N_R   0.554960 0.727510 0.448230 -0.099605
O1    O     O_R   0.527700 0.614770 0.606110 -0.617210
O2    O     O_3   0.008391 0.379830 0.504148 -0.626271
O3    O     O_3   0.648813 0.760259 0.055663 -0.610775
O4    O     O_3   0.537724 0.231960 0.951742 -0.607741
O5    O     O_R   0.472300 0.385230 0.393890 -0.617231
O6    O     O_R   0.492440 0.468680 0.639380 -0.626269
O7    O     O_R   0.507560 0.531320 0.360620 -0.626278
O8    O     O_R   0.379820 0.583550 0.480950 -0.620898
O9    O     O_R   0.620180 0.416450 0.519050 -0.620995
O10   O     O_R   0.344560 0.437460 0.514220 -0.594973
O11   O     O_R   0.655440 0.562540 0.485780 -0.595462
O12   O     O_3   0.991400 0.619802 0.494790 -0.625168
Zn1   Zn    Zn3+2 0.523550 0.597550 0.477790 0.944394
Zn2   Zn    Zn3+2 0.476450 0.402450 0.522210 0.944922

loop_
_geom_bond_atom_site_label_1
_geom_bond_atom_site_label_2
_ccdc_geom_bond_type
C36   H37   S    
C43   H21   S    
C11   C18   A    
C43   H20   S    
C23   C45   A    
C18   C21   A    
C33   C45   A    
C37   H36   S    
C19   C20   A    
C42   H18   S    
C9    N1    A    
C22   H5    S    
C41   H15   S    
C34   C51   A    
C40   H11   S    
C5    H1    S    
C28   C29   S    
C35   C37   A    
C46   H27   S    
C11   C14   A    
C1    C31   S    
C33   C36   A    
C18   C19   A    
C32   C39   A    
C6    H12   S    
C44   H24   S    
C17   O9    A    
C12   O7    A    
C2    C50   A    
O1    Zn1   S    
C6    C15   A    
C4    O4    S    
C35   C49   A    
C47   O4    S    
C8    N2    A    
C52   H3    S    
C8    H9    S    
C10   N2    A    
C12   C32   S    
C27   C30   S    
N1    Zn2   S    
C47   H28   S    
C44   C46   S    
C41   H16   S    
C16   C26   S    
O7    Zn1   S    
C21   H33   S    
C13   C19   A    
C51   C52   A    
C5    C7    A    
C16   O8    A    
C23   C50   A    
C6    C8    A    
C3    C45   A    
C42   H17   S    
C34   C39   A    
C20   H23   S    
C2    C4    A    
C7    H10   S    
C40   O12   S    
C28   O12   S    
C47   C48   S    
C7    N1    A    
C50   C51   A    
C5    C14   A    
O11   Zn1   S    
C32   C37   A    
C44   H22   S    
C9    C11   A    
C12   O5    A    
O5    Zn2   S    
C16   O10   A    
C15   C24   A    
C20   C22   A    
C40   H13   S    
C13   C15   A    
C42   C43   S    
O9    Zn2   S    
C46   H26   S    
C25   C30   T    
C1    O1    A    
C40   C41   S    
C34   C49   A    
C43   H19   S    
C42   O2    S    
O8    Zn1   S    
C10   C13   A    
C1    O6    A    
C46   H25   S    
C3    C52   A    
C31   C38   A    
C41   H14   S    
C23   C38   A    
C38   H35   S    
O6    Zn2   S    
C48   H31   S    
C4    C49   A    
C9    H8    S    
C17   C25   S    
C14   C22   A    
C10   H7    S    
C17   O11   A    
C44   O3    S    
C2    H4    S    
C33   H38   S    
C48   H30   S    
O10   Zn2   S    
C47   H29   S    
C48   H32   S    
N2    Zn1   S    
C26   C29   T    
C24   H6    S    
C21   C24   A    
C27   C28   D    
C31   C36   A    
C27   O2    S    
C3    O3    S    
C39   H34   S    
C35   H2    S    
