data_mof_unit_47044.cif
_audit_creation_date              2012-12-10T20:28:46-0500
_audit_creation_method            fapswitch 2.2
_symmetry_space_group_name_H-M    P1
_symmetry_Int_Tables_number       1
_space_group_crystal_system       triclinic
_cell_length_a                    10.699862
_cell_length_b                    10.701159
_cell_length_c                    9.860116
_cell_angle_alpha                 90.563449
_cell_angle_beta                  89.052131
_cell_angle_gamma                 89.301377
_cell_volume                      1128.69712734

loop_
_atom_site_label
_atom_site_type_symbol
_atom_type_description
_atom_site_fract_x
_atom_site_fract_y
_atom_site_fract_z
_atom_type_partial_charge
C1    C     C_R   0.503456 0.260194 0.498976 0.903551
C2    C     C_R   0.470185 0.935155 0.381903 -0.166717
C3    C     C_R   0.513140 0.871811 0.496274 -0.050965
C4    C     C_R   0.260060 0.508267 0.501890 0.897241
C5    C     C_R   0.576737 0.936757 0.596753 0.027789
C6    C     C_3   0.567553 0.936341 0.748893 -0.252200
C7    C     C_3   0.576610 0.078128 0.744309 -0.493846
C8    C     C_R   0.425946 0.419335 0.071933 0.229027
C9    C     C_R   0.580790 0.571763 0.071289 -0.080217
C10   C     C_R   0.580703 0.571859 0.927348 -0.032094
C11   C     C_R   0.426506 0.418338 0.929044 0.142177
C12   C     C_R   0.059584 0.593373 0.603816 0.100340
C13   C     C_3   0.286959 0.413057 0.927019 -0.256963
C14   C     C_3   0.286994 0.414514 0.081290 -0.539756
C15   C     C_R   0.501827 0.740013 0.500132 0.848682
C16   C     C_R   0.739279 0.507134 0.498883 0.867487
C17   C     C_R   0.116094 0.659695 0.712009 -0.254127
C18   C     C_R   0.043020 0.725829 0.809315 0.023329
C19   C     C_R   0.915501 0.742235 0.787498 -0.190725
C20   C     C_R   0.859720 0.683140 0.678772 -0.210209
C21   C     C_R   0.928960 0.600237 0.593112 0.121848
C22   C     C_2   0.239222 0.293538 0.866664 0.970442
C23   C     C_R   0.126884 0.519554 0.505316 -0.075070
C24   C     C_2   0.098407 0.774672 0.935777 0.860067
C25   C     C_2   0.442818 0.894886 0.802532 1.029712
C26   C     C_R   0.065916 0.453623 0.403684 -0.185977
C27   C     C_R   0.938660 0.454463 0.400096 -0.197514
C28   C     C_R   0.870741 0.523827 0.496129 -0.100438
C29   C     C_R   0.581197 0.064593 0.593502 0.110449
C30   C     C_R   0.517583 0.128635 0.493071 -0.066910
C31   C     C_R   0.472029 0.063872 0.380465 -0.193407
H1    H     H_    0.116857 0.396265 0.329815 0.160934
H2    H     H_    0.215852 0.661412 0.723947 0.197853
H3    H     H_    0.857917 0.798161 0.856731 0.165714
H4    H     H_    0.761449 0.701876 0.664119 0.150043
H5    H     H_    0.893011 0.396829 0.325082 0.169410
H6    H     H_    0.429578 0.112134 0.296405 0.180110
H7    H     H_    0.427377 0.886275 0.298158 0.181226
H8    H     H_    0.229945 0.106208 0.876698 0.368136
H9    H     H_    0.238075 0.763708 0.070222 0.366368
H10   H     H_    0.255838 0.895833 0.779223 0.334333
H11   H     H_    0.649310 0.890820 0.797027 0.131428
H12   H     H_    0.492160 0.129884 0.782327 0.246410
H13   H     H_    0.666183 0.113432 0.784348 0.202860
H14   H     H_    0.644090 0.631867 0.125142 0.149760
H15   H     H_    0.643618 0.632329 0.872702 0.132079
H16   H     H_    0.244127 0.498167 0.883605 0.203222
H17   H     H_    0.244921 0.501449 0.125744 0.235608
H18   H     H_    0.254649 0.327113 0.129957 0.216221
N1    N     N_R   0.499160 0.499140 0.142800 -0.113726
N2    N     N_R   0.499160 0.499180 0.857150 -0.120258
O1    O     O_R   0.500020 0.316790 0.614690 -0.613118
O2    O     O_R   0.275286 0.178365 0.920126 -0.813207
O3    O     O_2   0.043823 0.855893 0.002778 -0.621400
O4    O     O_R   0.211662 0.725411 0.980854 -0.804704
O5    O     O_2   0.437233 0.833793 0.906331 -0.623034
O6    O     O_R   0.334191 0.927463 0.733589 -0.806561
O7    O     O_R   0.500000 0.316760 0.385350 -0.624054
O8    O     O_R   0.316770 0.500020 0.614690 -0.619724
O9    O     O_R   0.316760 0.499980 0.385350 -0.626253
O10   O     O_R   0.500000 0.683240 0.614650 -0.632969
O11   O     O_R   0.499980 0.683210 0.385310 -0.622549
O12   O     O_R   0.683240 0.500020 0.614650 -0.625120
O13   O     O_R   0.683230 0.499980 0.385310 -0.624588
O14   O     O_2   0.166667 0.297856 0.772300 -0.612828
Zn1   Zn    Zn3+2 0.500010 0.500020 0.653130 0.967996
Zn2   Zn    Zn3+2 0.499990 0.499980 0.346870 0.959379

loop_
_geom_bond_atom_site_label_1
_geom_bond_atom_site_label_2
_ccdc_geom_bond_type
C12   C17   A    
C16   C28   S    
C14   H17   S    
C22   O14   D    
C26   H1    S    
C6    C7    S    
C7    C29   S    
C16   O12   A    
C7    H12   S    
C27   H5    S    
C29   C30   A    
N1    Zn2   S    
C2    H7    S    
C19   C20   A    
C25   O5    D    
C30   C31   A    
H9    O4    S    
C4    O9    A    
C2    C3    A    
C15   O10   A    
O12   Zn1   S    
H10   O6    S    
C1    O7    A    
C24   O4    S    
C9    H14   S    
C6    C25   S    
C11   C13   S    
C12   C23   A    
C26   C27   A    
H8    O2    S    
C17   H2    S    
O11   Zn2   S    
C8    C11   A    
C18   C24   S    
C10   N2    A    
O10   Zn1   S    
C4    O8    A    
C1    C30   S    
C21   C28   A    
C13   C22   S    
C17   C18   A    
C22   O2    S    
C5    C29   A    
O8    Zn1   S    
C5    C6    S    
C1    O1    A    
C10   H15   S    
C14   H18   S    
C11   N2    A    
N2    Zn1   S    
C24   O3    D    
C25   O6    S    
O13   Zn2   S    
C8    N1    A    
O7    Zn2   S    
O1    Zn1   S    
C3    C15   S    
C20   C21   A    
C18   C19   A    
C6    H11   S    
C23   C26   A    
C27   C28   A    
C13   H16   S    
C4    C23   S    
C8    C14   S    
C16   O13   A    
C7    H13   S    
C13   C14   S    
C20   H4    S    
C12   C21   A    
C15   O11   A    
C9    N1    A    
C31   H6    S    
O9    Zn2   S    
C9    C10   A    
C2    C31   A    
C3    C5    A    
C19   H3    S    
