data_mof_unit_11436.cif
_audit_creation_date              2013-03-05T16:50:05-0500
_audit_creation_method            fapswitch 2.2
_symmetry_space_group_name_H-M    P1
_symmetry_Int_Tables_number       1
_space_group_crystal_system       triclinic
_cell_length_a                    27.72555
_cell_length_b                    10.836052
_cell_length_c                    26.419243
_cell_angle_alpha                 91.711853
_cell_angle_beta                  89.903446
_cell_angle_gamma                 91.051979
_cell_volume                      7932.39376959

loop_
_atom_site_label
_atom_site_type_symbol
_atom_site_description
_atom_site_fract_x
_atom_site_fract_y
_atom_site_fract_z
_atom_type_partial_charge
O1    O     O_R   0.500000 0.319660 0.542350 -0.573758
O2    O     O_R   0.500000 0.680340 0.457650 -0.585421
O3    O     O_R   0.500000 0.319630 0.457650 -0.567289
O4    O     O_R   0.500000 0.680370 0.542350 -0.566075
C1    C     C_R   0.498824 0.261944 0.499390 0.850127
C2    C     C_R   0.500134 0.738202 0.500822 0.839147
O5    O     O_R   0.430260 0.500030 0.542340 -0.579198
O6    O     O_R   0.569740 0.499970 0.457660 -0.585711
O7    O     O_R   0.430270 0.500010 0.457650 -0.597271
O8    O     O_R   0.569730 0.499990 0.542350 -0.594423
C3    C     C_R   0.407274 0.498486 0.499980 0.890730
C4    C     C_R   0.592788 0.501928 0.499964 0.876283
Cu1   Cu    Cu3+1 0.500000 0.500020 0.550150 0.999477
Cu2   Cu    Cu3+1 0.500000 0.499980 0.449850 0.997237
O9    O     O_2   0.462398 0.689527 0.785814 -0.469873
O10   O     O_2   0.565842 0.370413 0.214151 -0.408202
C5    C     C_R   0.433685 0.641147 0.054679 0.502451
C6    C     C_R   0.544300 0.310736 0.944827 0.500677
H1    H     H_    0.427662 0.433843 0.630228 0.173152
H2    H     H_    0.563998 0.609426 0.372836 0.183061
C7    C     C_R   0.174934 0.378747 0.487410 0.613605
C8    C     C_R   0.825554 0.616152 0.487237 0.588962
O11   O     O_2   0.197056 0.275239 0.471031 -0.538636
O12   O     O_2   0.803453 0.718647 0.472201 -0.558262
N1    N     N_R   0.201674 0.481779 0.500395 -0.432339
N2    N     N_R   0.798753 0.514307 0.499389 -0.432123
C9    C     C_R   0.180473 0.590736 0.514086 0.660162
C10   C     C_R   0.819923 0.406546 0.512101 0.672299
C11   C     C_R   0.278425 0.514260 0.455879 0.410496
C12   C     C_R   0.721650 0.496961 0.453704 0.379953
C13   C     C_R   0.328666 0.519307 0.455997 -0.204467
C14   C     C_R   0.671362 0.493054 0.454074 -0.215780
C15   C     C_R   0.329142 0.454950 0.543078 -0.230452
C16   C     C_R   0.671434 0.531622 0.544938 -0.256765
C17   C     C_R   0.278594 0.441700 0.542397 0.461806
C18   C     C_R   0.722019 0.541735 0.544647 0.455107
C19   C     C_R   0.253309 0.476954 0.499180 0.193761
C20   C     C_R   0.747089 0.519786 0.499023 0.174560
C21   C     C_R   0.101760 0.492605 0.503579 -0.108631
C22   C     C_R   0.898698 0.504093 0.502879 -0.109703
C23   C     C_R   0.124576 0.380506 0.491023 0.010151
C24   C     C_R   0.875922 0.614629 0.490701 0.015485
C25   C     C_R   0.096633 0.273516 0.481364 -0.155273
C26   C     C_R   0.903915 0.720424 0.481463 -0.153595
C27   C     C_R   0.129772 0.600811 0.513162 -0.186079
C28   C     C_R   0.870669 0.396820 0.511750 -0.192381
C29   C     C_R   0.354308 0.491547 0.499769 -0.139279
C30   C     C_R   0.645882 0.508576 0.499711 -0.159102
H3    H     H_    0.348896 0.437737 0.577333 0.173723
H4    H     H_    0.652202 0.540767 0.580510 0.183272
H5    H     H_    0.113138 0.187676 0.469539 0.159541
H6    H     H_    0.887470 0.804688 0.469801 0.161552
C31   C     C_R   0.972864 0.387489 0.510911 -0.101807
C32   C     C_R   0.027579 0.610586 0.511286 -0.103037
C33   C     C_R   0.977091 0.612444 0.502614 0.129524
C34   C     C_R   0.023383 0.384445 0.502535 0.130309
C35   C     C_R   0.949590 0.501162 0.505539 0.035827
C36   C     C_R   0.050866 0.496086 0.505877 0.035473
C37   C     C_R   0.944703 0.282485 0.523954 0.236498
C38   C     C_R   0.055727 0.717369 0.524640 0.237266
C39   C     C_R   0.893969 0.284763 0.521253 0.442587
C40   C     C_R   0.106494 0.714279 0.522630 0.444367
O13   O     O_2   0.791695 0.310084 0.525349 -0.471258
O14   O     O_2   0.208621 0.688034 0.528829 -0.485994
C41   C     C_R   0.046837 0.275214 0.487372 -0.115555
C42   C     C_R   0.953688 0.719573 0.487563 -0.118810
H7    H     H_    0.652308 0.475038 0.418778 0.214137
H8    H     H_    0.347560 0.547609 0.422219 0.202382
H9    H     H_    0.026781 0.191503 0.477530 0.176882
H10   H     H_    0.973757 0.801965 0.477876 0.177960
H11   H     H_    0.354211 0.182131 0.314241 0.244973
H12   H     H_    0.553560 0.820230 0.734601 0.243974
C43   C     C_R   0.365623 0.173251 0.394631 0.379329
C44   C     C_R   0.584547 0.857701 0.661608 0.399174
C45   C     C_R   0.398381 0.145759 0.433076 0.274796
C46   C     C_R   0.575055 0.884294 0.610806 0.268440
C47   C     C_R   0.445582 0.108337 0.420144 -0.132130
C48   C     C_R   0.526891 0.893501 0.594359 -0.115931
C49   C     C_R   0.459479 0.101211 0.368812 0.354601
C50   C     C_R   0.488798 0.871887 0.628661 0.384540
C51   C     C_R   0.426357 0.127746 0.331105 -0.204457
C52   C     C_R   0.498835 0.844125 0.678739 -0.217152
H13   H     H_    0.436734 0.120108 0.291630 0.241706
H14   H     H_    0.469620 0.829190 0.705163 0.255804
C53   C     C_R   0.379645 0.162973 0.343917 -0.240539
C54   C     C_R   0.546398 0.839029 0.695333 -0.239907
C55   C     C_R   0.479755 0.929156 0.460334 -0.136936
C56   C     C_R   0.517238 0.071213 0.540988 -0.135012
H15   H     H_    0.463824 0.873947 0.429528 0.172661
H16   H     H_    0.531548 0.126168 0.572728 0.175665
C57   C     C_R   0.499161 0.871953 0.502242 -0.065564
C58   C     C_R   0.498227 0.128321 0.498860 -0.059976
C59   C     C_R   0.515794 0.943889 0.544293 0.135938
C60   C     C_R   0.476967 0.056765 0.459251 0.141577
C61   C     C_R   0.469685 0.577386 0.187978 0.684312
C62   C     C_R   0.519307 0.402982 0.811894 0.689550
O15   O     O_2   0.437416 0.645697 0.214237 -0.488082
O16   O     O_2   0.536568 0.304927 0.785400 -0.487594
N3    N     N_R   0.502375 0.509383 0.213469 -0.436540
N4    N     N_R   0.500368 0.499143 0.786627 -0.429952
C63   C     C_R   0.536172 0.441182 0.187596 0.701247
C64   C     C_R   0.481908 0.599197 0.812535 0.687014
C65   C     C_R   0.537589 0.567385 0.297645 0.293684
C66   C     C_R   0.458801 0.462006 0.704090 0.289949
C67   C     C_R   0.536175 0.562290 0.350627 0.016850
C68   C     C_R   0.459597 0.463147 0.650955 0.009703
C69   C     C_R   0.463764 0.443432 0.347200 -0.010130
C70   C     C_R   0.540843 0.533512 0.651660 -0.028449
C71   C     C_R   0.463304 0.447123 0.294013 0.295017
C72   C     C_R   0.542217 0.530087 0.704718 0.261442
C73   C     C_R   0.501005 0.508257 0.268497 0.175038
C74   C     C_R   0.500505 0.496320 0.731655 0.175814
C75   C     C_R   0.504676 0.510644 0.107338 -0.101433
C76   C     C_R   0.502811 0.507958 0.892717 -0.105182
C77   C     C_R   0.469415 0.576681 0.134600 -0.042775
C78   C     C_R   0.521067 0.405755 0.865258 -0.044900
C79   C     C_R   0.433234 0.636490 0.108186 -0.256142
C80   C     C_R   0.539360 0.306266 0.891468 -0.240003
C81   C     C_R   0.539391 0.443370 0.133740 -0.182044
C82   C     C_R   0.482906 0.607068 0.866513 -0.170310
N5    N     N_R   0.500000 0.499970 0.374520 -0.226707
N6    N     N_R   0.500000 0.500030 0.625480 -0.223275
H17   H     H_    0.434881 0.396266 0.366743 0.165875
H18   H     H_    0.572770 0.563107 0.631609 0.174377
H19   H     H_    0.403796 0.675466 0.129716 0.183112
H20   H     H_    0.548851 0.223957 0.869941 0.186141
C83   C     C_R   0.479826 0.603151 0.974449 -0.045944
C84   C     C_R   0.536932 0.435651 0.025717 -0.054539
C85   C     C_R   0.529590 0.418508 0.972347 0.060719
C86   C     C_R   0.472878 0.588218 0.027589 0.065260
C87   C     C_R   0.504089 0.509918 0.946482 -0.044012
C88   C     C_R   0.504829 0.511453 0.053569 -0.042083
C89   C     C_R   0.465882 0.709770 0.948689 0.350386
C90   C     C_R   0.576296 0.385990 0.051923 0.361911
C91   C     C_R   0.466433 0.711164 0.895271 0.353952
C92   C     C_R   0.576705 0.385199 0.105345 0.373377
Cl1   Cl    Cl    0.970443 0.156440 0.554773 -0.505344
Cl2   Cl    Cl    0.029860 0.848611 0.554835 -0.505045
Cl3   Cl    Cl    0.305940 0.214803 0.408735 -0.511570
Cl4   Cl    Cl    0.643837 0.851488 0.684692 -0.539934
Cl5   Cl    Cl    0.378981 0.150279 0.496881 -0.594186
Cl6   Cl    Cl    0.623222 0.908429 0.568252 -0.588945
Cl7   Cl    Cl    0.517873 0.056455 0.350536 -0.499863
Cl8   Cl    Cl    0.427972 0.883979 0.610505 -0.533565
Cl9   Cl    Cl    0.447916 0.848202 0.866443 -0.445755
Cl10  Cl    Cl    0.626644 0.317076 0.134781 -0.348450
Cl11  Cl    Cl    0.458108 0.851890 0.982529 -0.574404
Cl12  Cl    Cl    0.630794 0.354146 0.019268 -0.502646
Cl13  Cl    Cl    0.415199 0.376617 0.260105 -0.583947
Cl14  Cl    Cl    0.596388 0.567870 0.736569 -0.536463
O17   O     O_3   0.252578 0.407940 0.584978 -0.582961
C93   C     C_3   0.266841 0.291616 0.602564 0.082040
H21   H     H_    0.250347 0.280570 0.640543 0.202359
H22   H     H_    0.306367 0.285558 0.608399 0.162409
C94   C     C_3   0.248488 0.184800 0.567823 -0.381239
H23   H     H_    0.208667 0.189928 0.564069 0.248421
H24   H     H_    0.265172 0.191981 0.529746 0.291049
C95   C     C_3   0.261069 0.059755 0.588800 -0.702486
H25   H     H_    0.300818 0.051467 0.592051 0.293582
H26   H     H_    0.247213 0.984858 0.562809 0.279871
H27   H     H_    0.244297 0.048428 0.626628 0.260057
O18   O     O_3   0.747901 0.558808 0.589279 -0.580824
C96   C     C_3   0.738571 0.675746 0.612349 0.102921
H28   H     H_    0.750447 0.672495 0.652423 0.217084
H29   H     H_    0.699565 0.697766 0.613468 0.192571
C97   C     C_3   0.767224 0.778702 0.586476 -0.411740
H30   H     H_    0.805700 0.752536 0.583088 0.245488
H31   H     H_    0.752351 0.791237 0.548019 0.264676
C98   C     C_3   0.764255 0.901376 0.616068 -0.673392
H32   H     H_    0.726214 0.931187 0.618834 0.311930
H33   H     H_    0.785480 0.973163 0.596136 0.271896
H34   H     H_    0.779285 0.892726 0.654747 0.262916
O19   O     O_3   0.393313 0.674651 0.026894 -0.585761
C99   C     C_3   0.365303 0.768520 0.050253 0.132921
H35   H     H_    0.354745 0.832413 0.020249 0.217905
H36   H     H_    0.385534 0.827371 0.078592 0.151900
C100  C     C_3   0.318888 0.712759 0.072243 -0.394359
H37   H     H_    0.296931 0.670099 0.040963 0.253569
H38   H     H_    0.327425 0.639061 0.098924 0.238581
C101  C     C_3   0.289245 0.811025 0.099908 -0.810589
H39   H     H_    0.310102 0.852675 0.132183 0.267145
H40   H     H_    0.255625 0.768226 0.114817 0.273917
H41   H     H_    0.279385 0.884609 0.073634 0.264881
O20   O     O_3   0.554777 0.205715 0.972002 -0.577643
C102  C     C_3   0.588363 0.126113 0.947811 0.112558
H42   H     H_    0.614323 0.097382 0.977003 0.219886
H43   H     H_    0.610961 0.171550 0.918551 0.152260
C103  C     C_3   0.562456 0.009295 0.926975 -0.356774
H44   H     H_    0.549627 0.954317 0.959274 0.278181
H45   H     H_    0.530553 0.033838 0.904283 0.273883
C104  C     C_3   0.595783 0.930016 0.894149 -0.789615
H46   H     H_    0.608024 0.981670 0.860638 0.275452
H47   H     H_    0.576034 0.845103 0.880765 0.274558
H48   H     H_    0.627673 0.902789 0.916329 0.268201
Cl15  Cl    Cl    0.405674 0.415426 0.735122 -0.511090
Cl16  Cl    Cl    0.584572 0.651289 0.268953 -0.451142
Cl17  Cl    Cl    0.752303 0.469026 0.396263 -0.507690
Cl18  Cl    Cl    0.247368 0.556586 0.401239 -0.541638
O21   O     O_3   0.866992 0.179473 0.531874 -0.519383
C105  C     C_3   0.870426 0.090987 0.491397 0.097794
H49   H     H_    0.862154 0.999058 0.507083 0.189021
H50   H     H_    0.907355 0.085451 0.474830 0.136436
C106  C     C_3   0.833586 0.114966 0.449720 -0.366421
H51   H     H_    0.796570 0.111454 0.465853 0.283444
H52   H     H_    0.840267 0.207966 0.434254 0.230078
C107  C     C_3   0.836835 0.019092 0.406434 -0.797244
H53   H     H_    0.873591 0.020209 0.389626 0.246867
H54   H     H_    0.810417 0.040537 0.376551 0.292645
H55   H     H_    0.828338 0.925495 0.420283 0.287661
O22   O     O_3   0.133440 0.820919 0.533658 -0.517139
C108  C     C_3   0.131270 0.902843 0.492835 0.093317
H56   H     H_    0.137944 0.997688 0.508665 0.188719
H57   H     H_    0.095182 0.903558 0.474275 0.133717
C109  C     C_3   0.170439 0.874483 0.453311 -0.365063
H58   H     H_    0.206530 0.882306 0.471469 0.279051
H59   H     H_    0.165211 0.778883 0.437672 0.237688
C110  C     C_3   0.168867 0.963491 0.409723 -0.789851
H60   H     H_    0.133111 0.957789 0.390810 0.242754
H61   H     H_    0.197090 0.939000 0.381487 0.291112
H62   H     H_    0.175860 0.059543 0.423851 0.295139

loop_
_geom_bond_atom_site_label_1
_geom_bond_atom_site_label_2
_geom_bond_distance
_ccdc_geom_bond_type
C95   H26   1.110799 S    
C106  H51   1.111061 S    
C24   C26   1.399851 A    
C75   C88   1.420808 A    
C55   C57   1.398164 A    
C94   H24   1.110754 S    
C14   C30   1.403721 A    
C76   C87   1.420471 A    
C27   C40   1.414596 A    
C3    C29   1.469062 S    
C96   H28   1.111042 S    
C69   H17   1.080925 S    
C4    C30   1.472520 S    
C25   H5    1.081672 S    
C84   C85   1.431057 A    
C39   O21   1.388158 S    
C66   C68   1.404332 A    
C31   C37   1.418769 A    
C21   C23   1.410374 A    
C32   C38   1.419782 A    
O19   C99   1.417203 S    
C110  H62   1.108978 S    
C22   C28   1.411588 A    
C106  H52   1.111001 S    
C10   C28   1.412819 A    
C44   C46   1.407396 A    
C103  C104  1.525078 S    
O1    C1    1.279576 A    
C65   C73   1.407717 A    
C17   C19   1.406991 A    
C46   C48   1.411160 A    
O18   C96   1.417530 S    
C71   C73   1.408822 A    
C61   N3    1.369042 A    
C102  H43   1.114588 S    
C37   Cl1   1.772552 S    
C48   C59   1.480877 S    
C15   H3    1.081336 S    
C2    C57   1.449445 S    
C55   C60   1.387502 A    
C47   C60   1.480654 S    
O20   C102  1.419204 S    
C12   C20   1.403868 A    
C38   C40   1.409443 A    
C98   H32   1.110364 S    
O4    Cu1   1.971228 S    
C99   H35   1.111035 S    
C45   Cl5   1.768116 S    
C95   H27   1.110723 S    
N1    C19   1.433787 S    
C75   C81   1.415173 A    
C26   C42   1.389875 A    
C49   Cl7   1.761175 S    
C56   C58   1.398073 A    
C103  H45   1.110163 S    
C5    O19   1.398979 S    
C105  H49   1.110232 S    
C91   Cl9   1.773583 S    
C62   O16   1.349455 S    
O17   C93   1.419507 S    
C86   C88   1.418120 A    
C89   Cl11  1.773881 S    
C50   Cl8   1.762372 S    
C12   Cl17  1.759146 S    
C6    C80   1.415878 A    
C16   C18   1.404787 A    
C101  H41   1.110889 S    
C5    C79   1.416049 A    
C21   C27   1.411223 A    
C9    C27   1.412268 A    
C22   C24   1.410113 A    
O21   C105  1.419078 S    
Cu2   N5    1.990158 S    
C13   C29   1.401652 A    
Cu1   Cu2   2.649840 S    
C94   C95   1.525666 S    
C97   H31   1.110161 S    
C69   C71   1.407012 A    
O2    C2    1.285005 A    
C17   O17   1.389873 S    
C70   H18   1.079437 S    
C84   C88   1.413112 A    
C58   C60   1.407310 A    
C51   H13   1.082568 S    
C101  H40   1.110369 S    
C51   C53   1.395185 A    
C99   H36   1.114267 S    
C47   C49   1.409481 A    
C13   H8    1.083379 S    
C106  C107  1.525549 S    
C37   C39   1.409269 A    
C16   H4    1.082596 S    
C28   C39   1.415035 A    
C104  H46   1.110819 S    
C63   C81   1.426361 A    
C25   C41   1.389825 A    
C70   N6    1.365606 A    
C96   C97   1.534339 S    
C50   C52   1.395137 A    
C61   C77   1.410030 A    
C49   C51   1.395827 A    
C31   C35   1.411993 A    
C109  H58   1.111165 S    
N2    C20   1.434811 S    
C102  C103  1.532202 S    
C90   C92   1.411738 A    
C43   Cl3   1.759287 S    
C77   C79   1.402331 A    
C110  H60   1.110804 S    
C52   C54   1.392952 A    
C21   C36   1.413424 A    
C44   Cl4   1.757411 S    
C109  C110  1.525224 S    
C103  H44   1.109555 S    
C95   H25   1.111060 S    
O5    C3    1.288327 A    
O7    Cu2   1.943916 S    
C104  H47   1.110944 S    
C84   C90   1.416477 A    
C57   C59   1.411132 A    
O7    C3    1.286753 A    
C76   C78   1.407231 A    
C108  H56   1.110410 S    
C93   C94   1.535428 S    
C6    O20   1.398768 S    
C71   Cl13  1.758049 S    
O6    C4    1.287790 A    
C100  C101  1.525491 S    
N3    C73   1.454618 S    
C68   N6    1.365531 A    
N4    C64   1.371412 A    
C40   O22   1.388252 S    
C48   C50   1.411360 A    
C67   N5    1.363415 A    
C65   C67   1.402958 A    
C76   C82   1.415871 A    
C44   C54   1.397619 A    
C45   C47   1.415450 A    
C99   C100  1.532494 S    
C43   C53   1.396268 A    
O3    Cu2   1.971230 S    
O8    C4    1.289036 A    
C78   C80   1.401726 A    
C14   H7    1.083380 S    
C7    C23   1.399747 A    
O4    C2    1.279621 A    
C108  H57   1.115244 S    
C93   H22   1.110331 S    
C100  H37   1.111639 S    
C52   H14   1.081518 S    
C7    O11   1.347909 S    
C97   H30   1.111595 S    
C15   C29   1.402691 A    
C98   H34   1.111430 S    
C8    O12   1.348687 S    
O1    Cu1   1.959093 S    
C65   Cl16  1.758521 S    
C43   C45   1.405838 A    
O3    C1    1.283804 A    
C33   C42   1.408127 A    
C64   C82   1.426345 A    
C101  H39   1.110938 S    
C66   C74   1.405841 A    
H2    C67   1.081366 S    
C32   C36   1.412506 A    
C31   C34   1.418485 A    
C32   C33   1.419414 A    
C41   H9    1.080524 S    
C7    N1    1.364333 A    
C56   C59   1.384893 A    
O6    Cu2   1.944906 S    
C22   C35   1.413856 A    
C96   H29   1.111882 S    
C5    C86   1.420472 A    
C107  H53   1.110948 S    
C23   C25   1.399799 A    
C83   C89   1.418333 A    
C56   H16   1.085254 S    
C72   Cl14  1.758571 S    
O8    Cu1   1.943914 S    
H12   C54   1.082572 S    
C61   O15   1.349497 S    
N4    C74   1.451727 S    
N1    C9    1.367321 A    
C90   Cl12  1.772962 S    
C42   H10   1.080352 S    
N2    C10   1.367517 A    
C81   C92   1.422477 A    
C82   C91   1.422931 A    
C83   C87   1.413430 A    
C33   C35   1.418821 A    
C104  H48   1.110766 S    
C11   C13   1.393009 A    
C12   C14   1.394152 A    
Cu1   N6    1.990158 S    
C107  H55   1.109548 S    
C26   H6    1.081252 S    
C102  H42   1.110950 S    
C8    C24   1.400059 A    
C70   C72   1.403959 A    
C100  H38   1.109865 S    
C18   O18   1.387259 S    
C105  C106  1.534194 S    
H11   C53   1.082589 S    
C62   N4    1.367445 A    
C18   C20   1.406671 A    
C15   C17   1.406275 A    
C66   Cl15  1.757814 S    
C34   C36   1.418418 A    
C109  H59   1.110852 S    
O22   C108  1.419244 S    
O9    C64   1.345769 S    
C110  H61   1.110421 S    
O2    Cu2   1.959093 S    
C72   C74   1.405364 A    
C83   C86   1.430309 A    
C1    C58   1.447387 S    
C9    O14   1.348569 S    
H1    C68   1.079597 S    
O10   C63   1.346937 S    
O5    Cu1   1.944906 S    
C108  C109  1.534076 S    
C16   C30   1.403737 A    
C93   H21   1.110782 S    
C97   C98   1.525359 S    
C105  H50   1.114763 S    
C11   Cl18  1.758956 S    
C8    N2    1.365065 A    
C11   C19   1.404169 A    
C94   H23   1.111242 S    
C89   C91   1.411847 A    
C55   H15   1.085257 S    
C69   N5    1.363482 A    
C10   O13   1.348511 S    
C62   C78   1.410159 A    
C6    C85   1.422852 A    
C80   H20   1.079816 S    
C75   C77   1.406806 A    
C107  H54   1.110380 S    
C79   H19   1.079278 S    
N3    C63   1.372805 A    
C92   Cl10  1.772633 S    
C34   C41   1.408326 A    
C38   Cl2   1.772269 S    
C85   C87   1.419766 A    
C98   H33   1.111452 S    
C46   Cl6   1.765084 S    
