data_mof_unit_6001.cif
_audit_creation_date              2012-12-11T20:41:05-0500
_audit_creation_method            fapswitch 2.2
_symmetry_space_group_name_H-M    P1
_symmetry_Int_Tables_number       1
_space_group_crystal_system       triclinic
_cell_length_a                    8.399684
_cell_length_b                    18.985432
_cell_length_c                    27.034243
_cell_angle_alpha                 98.380052
_cell_angle_beta                  91.782465
_cell_angle_gamma                 86.590628
_cell_volume                      4256.51682219

loop_
_atom_site_label
_atom_site_type_symbol
_atom_type_description
_atom_site_fract_x
_atom_site_fract_y
_atom_site_fract_z
_atom_type_partial_charge
Ba1   Ba    Ba6+2 0.852670 0.466460 0.522850 1.727289
Ba2   Ba    Ba6+2 0.337150 0.533490 0.477140 1.774310
C1    C     C_3   0.750346 0.224410 0.666701 -0.098253
C2    C     C_R   0.879861 0.551892 0.177055 0.665408
C3    C     C_2   0.742069 0.509695 0.270927 0.588561
C4    C     C_3   0.137835 0.311542 0.649049 0.275252
C5    C     C_3   0.703652 0.511341 0.325719 -0.174157
C6    C     C_1   0.986228 0.486620 0.342210 0.139430
C7    C     C_2   0.023539 0.484488 0.294334 -0.140562
C8    C     C_2   0.895565 0.497418 0.255368 0.105064
C9    C     C_R   0.012566 0.495287 0.100834 -0.077205
C10   C     C_R   0.068553 0.439330 0.126921 -0.035591
C11   C     C_R   0.163457 0.383163 0.101635 -0.033142
C12   C     C_3   0.681362 0.285191 0.639423 0.485607
C13   C     C_R   0.917367 0.551799 0.126265 -0.047655
C14   C     C_2   0.852846 0.520173 0.358608 -0.128272
C15   C     C_2   0.355036 0.484328 0.640256 -0.036489
C16   C     C_3   0.171118 0.287534 0.700011 1.060630
C17   C     C_R   0.186000 0.436596 0.972627 0.006013
C18   C     C_R   0.032913 0.551268 0.972289 0.024779
C19   C     C_R   0.129102 0.493664 0.946962 0.055652
C20   C     C_R   0.279931 0.380502 0.945665 -0.119879
C21   C     C_R   0.318726 0.379871 0.895568 0.167807
C22   C     C_R   0.264047 0.436584 0.869634 -0.036546
C23   C     C_3   0.530344 0.666405 0.638294 0.797444
C24   C     C_R   0.168857 0.493317 0.895486 -0.110763
C25   C     C_R   0.113537 0.550080 0.869916 -0.042326
C26   C     C_R   0.154863 0.550444 0.819491 0.615825
C27   C     C_R   0.301734 0.438275 0.818665 0.687396
C28   C     C_3   0.202741 0.315324 0.404672 0.358981
C29   C     C_2   0.448623 0.487449 0.729008 -0.057939
C30   C     C_3   0.496448 0.492144 0.675940 0.060194
C31   C     C_1   0.213089 0.512518 0.655394 0.055246
C32   C     C_2   0.170106 0.510567 0.702308 -0.079216
C33   C     C_2   0.293188 0.496878 0.742315 0.269383
C34   C     C_3   0.446964 0.711338 0.683055 1.053511
C35   C     C_R   0.147603 0.437162 0.024110 0.025877
C36   C     C_R   0.051468 0.494715 0.049323 0.058380
C37   C     C_R   0.993715 0.551728 0.023630 0.018543
C38   C     C_R   0.202246 0.382015 0.051710 -0.089962
C39   C     C_R   0.861459 0.607516 0.100479 -0.036327
C40   C     C_3   0.238380 0.238018 0.381667 0.558637
C41   C     C_R   0.979226 0.606799 0.945076 -0.090520
C42   C     C_R   0.018736 0.606132 0.895375 -0.034194
C43   C     C_R   0.898292 0.607593 0.050586 -0.088000
C44   C     C_2   0.384812 0.296056 0.506349 -0.260495
C45   C     C_3   0.072101 0.701386 0.339851 0.851643
C46   C     C_3   0.256312 0.244088 0.506209 -0.025641
C47   C     C_2   0.324978 0.169822 0.511654 -0.096946
C48   C     C_2   0.480408 0.150677 0.501240 -0.058445
C49   C     C_2   0.585675 0.207209 0.489518 -0.084088
C50   C     C_1   0.526152 0.273541 0.488619 0.073626
C51   C     C_R   0.648937 0.934581 0.493746 0.513159
C52   C     C_3   0.034620 0.684720 0.586866 0.853805
C53   C     C_R   0.542554 0.074648 0.499601 0.444985
C54   C     C_R   0.610362 0.808528 0.510028 0.499767
C55   C     C_R   0.660227 0.736145 0.506170 0.045273
C56   C     C_3   0.156558 0.717866 0.293219 0.624079
C57   C     C_R   0.900469 0.758423 0.465575 -0.011038
C58   C     C_R   0.851118 0.831167 0.468199 -0.194204
C59   C     C_R   0.704298 0.857349 0.490445 -0.143321
C60   C     C_R   0.803750 0.712176 0.484101 -0.327303
C61   C     C_3   0.058055 0.764694 0.598461 -0.075634
C62   C     C_3   0.689818 0.366606 0.370845 0.304848
C63   C     C_3   0.729621 0.333747 0.317539 -0.277796
C64   C     C_3   0.521174 0.715232 0.368385 0.277608
C65   C     C_3   0.529110 0.788468 0.350768 -0.132128
C66   C     C_R   0.028163 0.440332 0.177702 0.623223
F1    F     F_    0.316386 0.235541 0.337069 -0.650208
F2    F     F_    0.474621 0.831259 0.534918 -0.679000
F3    F     F_    0.106444 0.338143 0.737040 -0.713085
F4    F     F_    0.876967 0.674197 0.577992 -0.778230
F5    F     F_    0.425676 0.617371 0.616455 -0.792286
F6    F     F_    0.395986 0.667964 0.715674 -0.699467
F7    F     F_    0.549202 0.759494 0.708351 -0.689317
F8    F     F_    0.333511 0.278887 0.708839 -0.676076
F9    F     F_    0.106167 0.630547 0.344485 -0.752112
F10   F     F_    0.138035 0.790101 0.290093 -0.677762
F11   F     F_    0.619455 0.512970 0.237110 -0.656836
H1    H     H_    0.776371 0.297864 0.615068 0.089854
H2    H     H_    0.793640 0.371037 0.298556 0.030555
H3    H     H_    0.618317 0.320044 0.295936 0.163677
H4    H     H_    0.656091 0.203565 0.687782 0.151750
H5    H     H_    0.341212 0.741539 0.669730 -0.010012
H6    H     H_    0.842015 0.245691 0.694388 0.106133
H7    H     H_    0.285151 0.703695 0.296946 0.062169
H8    H     H_    0.605402 0.712993 0.400484 -0.047757
H9    H     H_    0.400903 0.708998 0.381579 0.104606
H10   H     H_    0.654815 0.803082 0.350776 0.148080
H11   H     H_    0.016389 0.337737 0.649204 0.019994
H12   H     H_    0.315610 0.209638 0.407179 -0.081661
H13   H     H_    0.482366 0.786394 0.311711 0.177088
H14   H     H_    0.146907 0.475071 0.283385 0.165218
H15   H     H_    0.208973 0.339296 0.120516 0.137034
H16   H     H_    0.541695 0.480804 0.756987 0.098883
H17   H     H_    0.326516 0.335178 0.962255 0.071561
H18   H     H_    0.276208 0.336541 0.036081 0.078094
H19   H     H_    0.787964 0.651898 0.118915 0.135880
H20   H     H_    0.906017 0.652377 0.960970 0.080657
H21   H     H_    0.226517 0.350561 0.643327 -0.023275
H22   H     H_    0.974078 0.650454 0.876813 0.140948
H23   H     H_    0.125304 0.210368 0.374460 0.009499
H24   H     H_    0.046287 0.520818 0.712437 0.135010
H25   H     H_    0.849124 0.652843 0.034395 0.080116
H26   H     H_    0.243500 0.130693 0.519378 0.115612
H27   H     H_    0.708603 0.192928 0.479466 0.116406
H28   H     H_    0.926976 0.866803 0.453337 0.143855
H29   H     H_    0.345715 0.351519 0.507967 0.048377
H30   H     H_    0.846364 0.657592 0.484881 0.108291
H31   H     H_    0.117000 0.236035 0.701594 -0.023331
H32   H     H_    0.317355 0.340716 0.413610 -0.005699
H33   H     H_    0.131943 0.317265 0.438813 -0.119484
H34   H     H_    0.102272 0.663488 0.552838 -0.003656
H35   H     H_    0.008751 0.848847 0.652723 0.200902
H36   H     H_    0.856079 0.796237 0.637985 0.238757
H37   H     H_    0.880514 0.129922 0.651994 0.199514
H38   H     H_    0.732561 0.140552 0.610248 0.201961
H39   H     H_    0.468336 0.235367 0.628275 0.223842
H40   H     H_    0.477464 0.307235 0.599922 0.159470
H41   H     H_    0.653830 0.606368 0.686474 0.148994
H42   H     H_    0.760356 0.667572 0.666468 0.221904
H43   H     H_    0.848215 0.712899 0.367442 0.119663
H44   H     H_    0.856240 0.672728 0.308744 0.184813
H45   H     H_    0.009281 0.791688 0.566974 0.046839
H46   H     H_    0.984538 0.697321 0.238115 0.231603
H47   H     H_    0.095307 0.623802 0.250791 0.168433
H48   H     H_    0.453866 0.836488 0.420219 0.189718
H49   H     H_    0.318715 0.842272 0.373493 0.265985
H50   H     H_    0.356402 0.273959 0.873019 0.199510
H51   H     H_    0.523002 0.317407 0.891668 0.178645
H52   H     H_    0.808479 0.613823 0.402451 0.140710
H53   H     H_    0.780007 0.539571 0.430027 0.187948
H54   H     H_    0.421737 0.500522 0.570877 0.267199
H55   H     H_    0.292003 0.434058 0.570664 0.180876
H56   H     H_    0.187718 0.773441 0.602116 0.090520
H57   H     H_    0.800670 0.385312 0.390333 -0.004260
H58   H     H_    0.600129 0.411764 0.370334 0.013229
H59   H     H_    0.807817 0.284550 0.318033 0.150329
N1    N     N_R   0.935071 0.496487 0.202619 -0.413783
N2    N     N_3   0.675955 0.629831 0.654968 -0.408334
N3    N     N_3   0.900613 0.714964 0.333481 -0.471825
N4    N     N_3   0.099295 0.677502 0.246556 -0.465603
N5    N     N_3   0.439860 0.844819 0.382968 -0.473658
N6    N     N_3   0.415211 0.320590 0.871483 -0.403741
N7    N     N_3   0.851871 0.562582 0.406666 -0.426237
N8    N     N_3   0.386540 0.459197 0.588811 -0.485617
N9    N     N_R   0.248010 0.494910 0.794175 -0.433636
N10   N     N_R   0.498556 0.956522 0.508455 -0.147076
N11   N     N_R   0.446629 0.024645 0.511285 -0.225958
N12   N     N_R   0.693437 0.053039 0.484843 -0.231689
N13   N     N_R   0.745453 0.984574 0.481959 -0.235217
N14   N     N_3   0.979465 0.795564 0.644685 -0.434269
N15   N     N_3   0.823443 0.166946 0.631344 -0.483617
N16   N     N_3   0.543595 0.261981 0.608159 -0.506294
O1    O     O_2   0.914730 0.537460 0.618690 -0.436193
O2    O     O_2   0.227542 0.752924 0.474285 -0.456755
O3    O     O_3   0.130845 0.747047 0.381702 -0.630981
O4    O     O_3   0.146720 0.537410 0.558510 -0.495375
O5    O     O_3   0.553920 0.415280 0.473710 -0.507028
O6    O     O_2   0.383540 0.672140 0.526840 -0.441436
O7    O     O_3   0.570639 0.712609 0.605063 -0.612147
O8    O     O_2   0.374082 0.553941 0.325989 -0.392585
O9    O     O_3   0.560244 0.660527 0.328876 -0.598485
O10   O     O_2   0.074206 0.390492 0.199399 -0.568238
O11   O     O_2   0.381769 0.388961 0.795897 -0.465664
O12   O     O_3   0.624516 0.314440 0.393908 -0.605113
O13   O     O_2   0.798875 0.601968 0.198619 -0.553767
O14   O     O_2   0.109906 0.601091 0.798447 -0.541841
O15   O     O_3   0.666360 0.409390 0.586570 -0.475199
O16   O     O_2   0.825606 0.446890 0.672927 -0.500697
O17   O     O_3   0.083480 0.651323 0.627926 -0.590140
O18   O     O_3   0.635409 0.343894 0.675339 -0.571470
O19   O     O_2   0.806150 0.327840 0.473120 -0.473836
O20   O     O_3   0.073640 0.373350 0.561550 -0.516988
O21   O     O_2   0.938380 0.249725 0.538024 -0.473786
O22   O     O_3   0.147534 0.252169 0.611337 -0.640892
O23   O     O_2   0.274960 0.462520 0.381280 -0.459650
O24   O     O_3   0.042980 0.462530 0.441480 -0.486077
O25   O     O_3   0.523340 0.590550 0.413420 -0.520725
O26   O     O_3   0.112784 0.349293 0.370167 -0.630435
O27   O     O_3   0.635780 0.584660 0.526290 -0.432757
O28   O     O_3   0.116060 0.626590 0.438450 -0.404618
P1    P     P_3+3 0.084800 0.558370 0.611580 1.124392
P2    P     P_3+3 0.628800 0.338360 0.458800 0.989061
P3    P     P_3+3 0.102733 0.280124 0.553109 0.960030
P4    P     P_3+3 0.104900 0.441570 0.388420 1.048649
P5    P     P_3+3 0.092722 0.720153 0.439754 1.010682
P6    P     P_3+3 0.659113 0.424777 0.652574 1.006022
P7    P     P_3+3 0.564840 0.675183 0.541399 1.182711
P8    P     P_3+3 0.537812 0.577263 0.348177 1.057490

loop_
_geom_bond_atom_site_label_1
_geom_bond_atom_site_label_2
_ccdc_geom_bond_type
C19   C24   A    
C62   H57   S    
C54   C59   A    
C1    H6    S    
H35   N14   S    
C65   N5    S    
C61   H45   S    
Ba1   P1    S    
O27   P7    S    
O22   P3    S    
H50   N6    S    
C10   C66   A    
Ba1   O19   S    
C24   C25   A    
H53   N7    S    
H42   N2    S    
O17   P1    S    
Ba1   O4    S    
C34   F7    S    
C41   H20   S    
O6    P7    D    
C32   C33   S    
C35   C38   A    
O20   P3    S    
C64   H9    S    
C36   C37   A    
O1    P1    D    
C52   C61   S    
C52   H34   S    
C44   C50   D    
C65   H10   S    
C54   C55   A    
Ba1   Ba2   S    
Ba2   O28   S    
C27   O11   D    
Ba1   O1    S    
C1    N15   S    
C22   C27   A    
C11   C38   A    
C62   O12   S    
C17   C35   A    
C9    C13   A    
C25   C42   A    
O19   P2    D    
C23   O7    S    
C6    C7    D    
C26   N9    Am   
C44   H29   S    
H36   N14   S    
C31   P1    S    
C21   C22   A    
C5    P8    S    
C57   P5    S    
C17   C20   A    
H41   N2    S    
Ba2   O23   S    
C12   H1    S    
O5    P2    S    
C3    F11   S    
H51   N6    S    
C7    C8    S    
C60   H30   S    
C37   C43   A    
C64   C65   S    
C57   C58   A    
C6    C14   D    
C12   N16   S    
C40   H12   S    
C15   C31   D    
C4    C16   S    
C40   H23   S    
Ba1   P2    S    
C53   N11   A    
C62   H58   S    
C66   O10   D    
H55   N8    S    
C44   C46   S    
Ba1   O20   S    
C30   P6    S    
C49   C50   D    
C9    C10   A    
C16   H31   S    
C55   C60   A    
C23   N2    S    
O12   P2    S    
N10   N11   A    
C13   C39   A    
O7    P7    S    
C64   H8    S    
C3    C5    S    
C18   C37   A    
Ba1   O27   S    
Ba2   O5    S    
H48   N5    S    
C6    P4    S    
C4    H11   S    
H47   N4    S    
C40   F1    S    
O23   P4    D    
C28   H33   S    
C14   N7    S    
Ba2   O27   S    
C61   H56   S    
C9    C36   A    
C41   C42   A    
Ba2   P4    S    
C55   P7    S    
C35   C36   A    
C56   H7    S    
C43   H25   S    
O21   P3    D    
Ba1   O24   S    
C56   N4    S    
C63   H2    S    
C29   C30   S    
Ba1   O5    S    
H46   N4    S    
Ba2   O4    S    
H44   N3    S    
C31   C32   D    
C11   H15   S    
C48   C49   S    
C33   N9    S    
C18   C19   A    
C58   H28   S    
H37   N15   S    
C1    C12   S    
C34   F6    S    
C63   H59   S    
C12   O18   S    
C46   C47   S    
H40   N16   S    
C54   F2    S    
H38   N15   S    
C29   C33   D    
C21   N6    S    
Ba2   O25   S    
C45   F9    S    
C51   C59   S    
C7    H14   S    
O8    P8    D    
C18   C41   A    
C53   N12   A    
C45   O3    S    
O2    P5    D    
C16   F3    S    
C5    C14   S    
C57   C60   A    
C16   F8    S    
C17   C19   A    
C20   C21   A    
C20   H17   S    
C52   O17   S    
C28   C40   S    
C50   P2    S    
O15   P6    S    
C22   C24   A    
C27   N9    Am   
C47   H26   S    
C42   H22   S    
C45   N3    S    
C26   O14   D    
C48   C53   S    
N12   N13   A    
C2    O13   D    
C28   H32   S    
O26   P4    S    
C62   C63   S    
C2    C13   A    
C15   N8    S    
C3    C8    D    
C38   H18   S    
C39   C43   A    
C45   C56   S    
C1    H4    S    
C63   H3    S    
O25   P8    S    
C4    O22   S    
C34   H5    S    
C49   H27   S    
C29   H16   S    
C32   H24   S    
Ba1   O15   S    
C65   H13   S    
H39   N16   S    
C64   O9    S    
H52   N7    S    
O9    P8    S    
C23   F5    S    
O28   P5    S    
C51   N10   A    
H49   N5    S    
C61   N14   S    
O3    P5    S    
C56   F10   S    
C23   C34   S    
O24   P4    S    
C46   P3    S    
C52   F4    S    
C10   C11   A    
Ba2   O6    S    
C47   C48   D    
C8    N1    S    
O16   P6    D    
C25   C26   A    
C51   N13   A    
C15   C30   S    
C28   O26   S    
C39   H19   S    
C58   C59   A    
C66   N1    Am   
H54   N8    S    
Ba2   O24   S    
H43   N3    S    
O18   P6    S    
O4    P1    S    
C4    H21   S    
C2    N1    Am   
