data_mof_unit_10713.cif
_audit_creation_date              2012-12-10T18:59:20-0500
_audit_creation_method            fapswitch 2.2
_symmetry_space_group_name_H-M    P1
_symmetry_Int_Tables_number       1
_space_group_crystal_system       triclinic
_cell_length_a                    9.908756
_cell_length_b                    10.675262
_cell_length_c                    16.937393
_cell_angle_alpha                 88.882675
_cell_angle_beta                  96.678023
_cell_angle_gamma                 89.406048
_cell_volume                      1778.97530556

loop_
_atom_site_label
_atom_site_type_symbol
_atom_type_description
_atom_site_fract_x
_atom_site_fract_y
_atom_site_fract_z
_atom_type_partial_charge
C1    C     C_R   0.500825 0.260637 0.501706 0.905307
C2    C     C_R   0.083214 0.411486 0.541987 -0.089963
C3    C     C_R   0.520584 0.497421 0.653415 0.877775
C4    C     C_R   0.479748 0.499208 0.347273 0.865624
C5    C     C_R   0.537629 0.491144 0.740301 -0.106693
C6    C     C_R   0.463605 0.486371 0.262033 -0.089016
C7    C     C_R   0.425687 0.452484 0.777252 -0.266483
C8    C     C_R   0.543850 0.561429 0.219021 -0.260956
C9    C     C_R   0.433349 0.444829 0.858726 -0.210846
C10   C     C_R   0.540963 0.546970 0.138486 -0.200535
C11   C     C_R   0.552270 0.480550 0.905967 0.276072
C12   C     C_R   0.499482 0.739440 0.499100 0.915622
C13   C     C_R   0.462242 0.452250 0.099701 0.278725
C14   C     C_R   0.665526 0.522563 0.870352 0.116819
C15   C     C_R   0.381114 0.374412 0.142443 0.120582
C16   C     C_R   0.660637 0.522483 0.786917 -0.065734
C17   C     C_R   0.378792 0.394251 0.224295 -0.075077
C18   C     C_R   0.469156 0.062952 0.570122 0.107459
C19   C     C_R   0.528365 0.937422 0.430258 0.116463
C20   C     C_3   0.789258 0.570885 0.921959 -0.411260
C21   C     C_3   0.890374 0.465238 0.947075 -0.855281
C22   C     C_3   0.302589 0.268318 0.100590 -0.407249
C23   C     C_R   0.477299 0.931924 0.570757 0.107035
C24   C     C_3   0.167996 0.315664 0.057160 -0.861981
C25   C     C_1   0.780637 0.557964 0.750693 0.187626
C26   C     C_1   0.293242 0.318391 0.269600 0.149171
C27   C     C_3   0.429629 0.133508 0.642440 -0.406985
C28   C     C_3   0.551313 0.154628 0.704568 -0.866119
C29   C     C_3   0.546932 0.867943 0.353758 -0.420993
C30   C     C_3   0.413322 0.861690 0.299232 -0.899089
C31   C     C_3   0.474046 0.854823 0.647680 -0.409060
C32   C     C_3   0.617854 0.816407 0.682639 -0.850232
C33   C     C_3   0.577386 0.143683 0.361579 -0.371239
C34   C     C_R   0.535456 0.068089 0.432478 0.109015
C35   C     C_3   0.731967 0.151395 0.364703 -0.829681
C36   C     C_3   0.113884 0.687313 0.404738 -0.396011
C37   C     C_3   0.109699 0.816475 0.441959 -0.856695
C38   C     C_3   0.881729 0.310186 0.593535 -0.365963
C39   C     C_3   0.966450 0.279898 0.673395 -0.953743
C40   C     C_R   0.500012 0.872231 0.499662 -0.144485
C41   C     C_R   0.501487 0.128047 0.501381 -0.159073
C42   C     C_R   0.059559 0.588228 0.456434 0.227375
C43   C     C_R   0.940150 0.411904 0.544364 0.214593
C44   C     C_R   0.916638 0.586974 0.456834 -0.107901
H1    H     H_    0.608841 0.632093 0.247947 0.158819
H2    H     H_    0.840487 0.645501 0.890385 0.206178
H3    H     H_    0.759247 0.616243 0.975854 0.208411
H4    H     H_    0.105171 0.359331 0.099659 0.265763
H5    H     H_    0.186444 0.385419 0.010275 0.261775
H6    H     H_    0.111326 0.236168 0.028572 0.251654
H7    H     H_    0.363876 0.224214 0.057430 0.211767
H8    H     H_    0.282390 0.191913 0.142894 0.206623
H9    H     H_    0.591038 0.065412 0.732685 0.269778
H10   H     H_    0.633311 0.203099 0.677125 0.254205
H11   H     H_    0.519616 0.213442 0.752533 0.256592
H12   H     H_    0.331481 0.425756 0.743027 0.180724
H13   H     H_    0.382890 0.226100 0.626253 0.214075
H14   H     H_    0.346766 0.085822 0.669324 0.187518
H15   H     H_    0.432162 0.822706 0.241170 0.254377
H16   H     H_    0.341924 0.799679 0.326255 0.261647
H17   H     H_    0.365422 0.955863 0.288604 0.263314
H18   H     H_    0.625042 0.911821 0.320998 0.213177
H19   H     H_    0.586518 0.771344 0.365479 0.206717
H20   H     H_    0.658499 0.742726 0.646662 0.282698
H21   H     H_    0.688021 0.896802 0.683792 0.262090
H22   H     H_    0.616283 0.780173 0.744357 0.240472
H23   H     H_    0.601727 0.609761 0.106623 0.157681
H24   H     H_    0.426956 0.904417 0.694187 0.214519
H25   H     H_    0.410757 0.770346 0.637420 0.214322
H26   H     H_    0.758387 0.200862 0.310406 0.249138
H27   H     H_    0.775073 0.204344 0.417166 0.273008
H28   H     H_    0.779939 0.056813 0.368107 0.240064
H29   H     H_    0.534427 0.104688 0.304091 0.205205
H30   H     H_    0.535357 0.240104 0.358873 0.200930
H31   H     H_    0.164078 0.814523 0.503128 0.277831
H32   H     H_    0.158977 0.886002 0.405386 0.254952
H33   H     H_    0.002891 0.847224 0.444573 0.244157
H34   H     H_    0.344062 0.413848 0.884488 0.166820
H35   H     H_    0.217124 0.664531 0.392741 0.260913
H36   H     H_    0.052035 0.690605 0.345567 0.173708
H37   H     H_    0.055789 0.220207 0.664864 0.249823
H38   H     H_    0.903878 0.226801 0.712566 0.260587
H39   H     H_    0.001431 0.366861 0.703788 0.281472
H40   H     H_    0.781643 0.338736 0.608192 0.269531
H41   H     H_    0.870111 0.223302 0.558523 0.198631
H42   H     H_    0.852688 0.655587 0.421980 0.142703
H43   H     H_    0.147888 0.340891 0.574017 0.150370
H44   H     H_    0.842792 0.392199 0.981953 0.268990
H45   H     H_    0.926966 0.422299 0.894137 0.262290
H46   H     H_    0.978403 0.504200 0.984764 0.250444
N1    N     N_2   0.558659 0.483161 0.989504 -0.201457
N2    N     N_2   0.458516 0.437545 0.016936 -0.198834
N3    N     N_R   0.857210 0.499970 0.500020 -0.122593
N4    N     N_R   0.142790 0.500030 0.499980 -0.118542
N5    N     N_1   0.876475 0.587105 0.722121 -0.210037
N6    N     N_1   0.225080 0.257837 0.305800 -0.206411
O1    O     O_R   0.614620 0.316750 0.500010 -0.641319
O2    O     O_R   0.385380 0.683250 0.499990 -0.628846
O3    O     O_R   0.385290 0.316780 0.500000 -0.626477
O4    O     O_R   0.614710 0.683220 0.500000 -0.628952
O5    O     O_R   0.627460 0.498830 0.616130 -0.630812
O6    O     O_R   0.372540 0.501170 0.383870 -0.628649
O7    O     O_R   0.398130 0.498850 0.616130 -0.623295
O8    O     O_R   0.601870 0.501150 0.383870 -0.616646
Zn1   Zn    Zn3+2 0.653130 0.499980 0.500000 0.926360
Zn2   Zn    Zn3+2 0.346870 0.500020 0.500000 0.933125

loop_
_geom_bond_atom_site_label_1
_geom_bond_atom_site_label_2
_ccdc_geom_bond_type
C29   H19   S    
C36   C42   S    
C1    O3    A    
C21   H45   S    
C10   H23   S    
O4    Zn1   S    
C17   C26   S    
C22   H8    S    
C36   C37   S    
C38   C39   S    
C11   C14   A    
C3    O7    A    
C23   C40   A    
C24   H5    S    
C7    C9    A    
O3    Zn2   S    
C8    H1    S    
C5    C16   A    
C44   N3    A    
N3    Zn1   S    
C15   C22   S    
C35   H26   S    
C4    O6    A    
C12   O2    A    
O1    Zn1   S    
C3    O5    A    
C37   H31   S    
C21   H44   S    
C35   H27   S    
C26   N6    T    
C19   C34   A    
C34   C41   A    
C42   C44   A    
C7    H12   S    
C44   H42   S    
O8    Zn1   S    
C28   H11   S    
C21   H46   S    
C24   H6    S    
C31   H24   S    
O5    Zn1   S    
C38   H41   S    
C18   C23   A    
C24   H4    S    
C14   C20   S    
C2    N4    A    
C32   H20   S    
C4    C6    S    
C36   H36   S    
C18   C41   A    
C1    O1    A    
N1    N2    D    
C5    C7    A    
C28   H10   S    
C6    C8    A    
C37   H33   S    
C10   C13   A    
C30   H16   S    
C23   C31   S    
C12   C40   S    
C29   C30   S    
C31   C32   S    
C2    C43   A    
C30   H15   S    
C33   C34   S    
C2    H43   S    
C9    C11   A    
C39   H37   S    
C36   H35   S    
C1    C41   S    
C37   H32   S    
C35   H28   S    
C25   N5    T    
C13   C15   A    
C13   N2    S    
C27   H13   S    
C14   C16   A    
C19   C29   S    
C32   H22   S    
C33   H29   S    
C16   C25   S    
C15   C17   A    
C6    C17   A    
C29   H18   S    
N4    Zn2   S    
C38   H40   S    
C42   N4    A    
C18   C27   S    
C39   H38   S    
C3    C5    S    
C27   H14   S    
C28   H9    S    
O2    Zn2   S    
C43   N3    A    
C39   H39   S    
C38   C43   S    
C4    O8    A    
C33   C35   S    
O6    Zn2   S    
O7    Zn2   S    
C22   C24   S    
C9    H34   S    
C12   O4    A    
C20   H3    S    
C19   C40   A    
C11   N1    S    
C33   H30   S    
C31   H25   S    
C20   C21   S    
C8    C10   A    
C30   H17   S    
C27   C28   S    
C22   H7    S    
C20   H2    S    
C32   H21   S    
