data_mof_unit_20476.cif
_audit_creation_date              2012-12-11T15:55:52-0500
_audit_creation_method            fapswitch 2.2
_symmetry_space_group_name_H-M    P1
_symmetry_Int_Tables_number       1
_space_group_crystal_system       triclinic
_cell_length_a                    11.010588
_cell_length_b                    11.080412
_cell_length_c                    18.802867
_cell_angle_alpha                 90.734183
_cell_angle_beta                  90.937571
_cell_angle_gamma                 59.368301
_cell_volume                      1973.59160748

loop_
_atom_site_label
_atom_site_type_symbol
_atom_type_description
_atom_site_fract_x
_atom_site_fract_y
_atom_site_fract_z
_atom_type_partial_charge
C1    C     C_R   0.387060 0.706688 0.390105 0.558250
C2    C     C_R   0.235110 0.414523 0.203771 -0.170254
C3    C     C_R   0.233834 0.421017 0.277566 -0.056117
C4    C     C_R   0.385388 0.352718 0.388277 0.527829
C5    C     C_R   0.864148 0.734775 0.388016 -0.103106
C6    C     C_R   0.944779 0.600233 0.416086 -0.071912
C7    C     C_R   0.058613 0.495555 0.378149 -0.046759
C8    C     C_R   0.100456 0.526967 0.313942 0.043762
C9    C     C_R   0.361307 0.331204 0.313786 -0.001626
C10   C     C_R   0.880490 0.330214 0.186822 0.020877
C11   C     C_R   0.955764 0.219842 0.234320 -0.006935
C12   C     C_R   0.624454 0.112684 0.168378 0.030856
C13   C     C_R   0.920135 0.229634 0.305009 -0.007715
C14   C     C_R   0.744215 0.472044 0.284206 -0.137573
C15   C     C_R   0.772583 0.457997 0.212098 -0.158748
C16   C     C_R   0.776991 0.379361 0.403639 0.532442
C17   C     C_3   0.108972 0.140822 0.250782 -0.274214
C18   C     C_3   0.070676 0.145653 0.328048 -0.284344
C19   C     C_R   0.818422 0.358508 0.330896 0.034255
C20   C     C_R   0.372486 0.809669 0.169657 0.000339
C21   C     C_R   0.456497 0.831053 0.219760 -0.014285
C22   C     C_R   0.452545 0.802730 0.290585 0.014779
C23   C     C_R   0.355462 0.316648 0.165567 0.009227
C24   C     C_R   0.327476 0.685783 0.263439 -0.168714
C25   C     C_R   0.319618 0.723344 0.191549 -0.154394
C26   C     C_3   0.470005 0.953432 0.243786 -0.290930
C27   C     C_3   0.458296 0.922896 0.320290 -0.252652
C28   C     C_R   0.350535 0.755901 0.608010 0.553055
C29   C     C_R   0.385317 0.735322 0.314625 0.003211
C30   C     C_R   0.316997 0.318308 0.814179 0.020776
C31   C     C_R   0.411177 0.203769 0.772614 0.028895
C32   C     C_R   0.418845 0.214423 0.701069 0.022995
C33   C     C_R   0.247790 0.461184 0.708857 -0.158763
C34   C     C_R   0.482425 0.233279 0.275556 -0.151133
C35   C     C_R   0.240993 0.450500 0.782702 -0.171702
C36   C     C_3   0.428744 0.061373 0.765729 -0.247480
C37   C     C_3   0.436743 0.073968 0.686205 -0.283305
C38   C     C_R   0.332164 0.340035 0.667202 0.015717
C39   C     C_R   0.851331 0.318337 0.828685 0.019270
C40   C     C_R   0.370233 0.352321 0.596076 0.545260
C41   C     C_R   0.906395 0.382257 0.786638 0.046622
C42   C     C_R   0.896435 0.385145 0.714101 0.007666
C43   C     C_R   0.782189 0.248460 0.720416 -0.161597
C44   C     C_R   0.796441 0.243087 0.794767 -0.183398
C45   C     C_R   0.484326 0.222707 0.201790 -0.032370
C46   C     C_3   0.885567 0.526261 0.791123 -0.256543
C47   C     C_3   0.881584 0.527136 0.710739 -0.278812
C48   C     C_R   0.823132 0.329145 0.680147 0.014187
C49   C     C_R   0.316522 0.810636 0.832977 0.014617
C50   C     C_R   0.213948 0.800929 0.792588 0.016325
C51   C     C_R   0.224990 0.787008 0.719761 0.020523
C52   C     C_R   0.763568 0.376110 0.609930 0.550162
C53   C     C_R   0.455218 0.759880 0.726055 -0.157262
C54   C     C_R   0.444944 0.773205 0.800279 -0.165054
C55   C     C_3   0.057767 0.897507 0.787660 -0.266336
C56   C     C_R   0.016320 0.663083 0.285728 -0.093112
C57   C     C_3   0.070631 0.881854 0.707543 -0.277163
C58   C     C_R   0.338867 0.780024 0.684554 0.013598
C59   C     C_R   0.921317 0.312146 0.113818 0.553780
C60   C     C_R   0.329218 0.292047 0.092732 0.548005
C61   C     C_R   0.310362 0.896096 0.105080 0.528881
C62   C     C_R   0.884914 0.308648 0.903980 0.544021
C63   C     C_R   0.296550 0.288492 0.886023 0.547806
C64   C     C_R   0.896452 0.894491 0.125595 -0.105488
C65   C     C_R   0.277784 0.889331 0.899595 0.538256
C66   C     C_R   0.881518 0.004531 0.168017 -0.084724
C67   C     C_R   0.898529 0.765629 0.322309 -0.109716
C68   C     C_R   0.747029 0.113947 0.188022 -0.111042
C69   C     C_R   0.645497 0.992608 0.129323 -0.071786
C70   C     C_R   0.778063 0.888113 0.106483 -0.139835
Cr1   Cr    Cr6+3 0.601740 0.606840 0.505840 0.983212
Cr2   Cr    Cr6+3 0.291500 0.601560 0.495070 1.009026
Cr3   Cr    Cr6+3 0.606780 0.291630 0.499130 1.003239
Cr4   Cr    Cr6+3 0.062440 0.063060 0.008240 1.015114
Cr5   Cr    Cr6+3 0.062950 0.375000 0.998920 0.997876
Cr6   Cr    Cr6+3 0.374550 0.061770 0.992470 0.996668
H1    H     H_    0.580118 0.163424 0.303432 0.145109
H2    H     H_    0.105014 0.204799 0.362567 0.123366
H3    H     H_    0.281442 0.625922 0.279883 0.142809
H4    H     H_    0.789314 0.798688 0.076755 0.108941
H5    H     H_    0.260835 0.695795 0.154718 0.126708
H6    H     H_    0.384198 0.054770 0.223650 0.146118
H7    H     H_    0.578804 0.931194 0.237871 0.140533
H8    H     H_    0.555522 0.890199 0.352470 0.145312
H9    H     H_    0.358457 0.002255 0.345512 0.147681
H10   H     H_    0.188237 0.563384 0.684546 0.141559
H11   H     H_    0.174740 0.543072 0.814199 0.117194
H12   H     H_    0.775825 0.815315 0.417523 0.096719
H13   H     H_    0.332712 0.060359 0.782177 0.156337
H14   H     H_    0.529993 0.979572 0.789882 0.137716
H15   H     H_    0.542443 0.999001 0.664309 0.138200
H16   H     H_    0.835980 0.870082 0.300534 0.113374
H17   H     H_    0.345798 0.079801 0.656396 0.135565
H18   H     H_    0.728463 0.199598 0.695503 0.151433
H19   H     H_    0.761324 0.184534 0.825331 0.129306
H20   H     H_    0.977514 0.527042 0.814701 0.155642
H21   H     H_    0.782812 0.603277 0.815127 0.129671
H22   H     H_    0.779773 0.610930 0.689083 0.152546
H23   H     H_    0.919746 0.577126 0.467711 0.126051
H24   H     H_    0.975200 0.522497 0.686732 0.135128
H25   H     H_    0.550044 0.742964 0.701108 0.128858
H26   H     H_    0.530336 0.771231 0.830587 0.118407
H27   H     H_    0.026765 0.004219 0.806585 0.170042
H28   H     H_    0.000222 0.811239 0.110079 0.112952
H29   H     H_    0.998532 0.851225 0.810941 0.130968
H30   H     H_    0.019477 0.825696 0.684455 0.132867
H31   H     H_    0.045499 0.980237 0.679932 0.145156
H32   H     H_    0.976262 0.000761 0.186161 0.145558
H33   H     H_    0.736420 0.197540 0.221969 0.123499
H34   H     H_    0.119065 0.392355 0.401252 0.087439
H35   H     H_    0.044180 0.692071 0.236584 0.093371
H36   H     H_    0.562351 0.970836 0.120292 0.175108
H37   H     H_    0.136637 0.481835 0.175961 0.145707
H38   H     H_    0.667012 0.572154 0.304570 0.151219
H39   H     H_    0.714215 0.546779 0.177033 0.134710
H40   H     H_    0.157971 0.204531 0.239435 0.142309
H41   H     H_    0.161026 0.033875 0.228302 0.153000
H42   H     H_    0.097298 0.041518 0.349066 0.162765
O1    O     O_R   0.748670 0.497520 0.427970 -0.542879
O2    O     O_R   0.417470 0.174910 0.067830 -0.530029
O3    O     O_R   0.375160 0.946380 0.070880 -0.520373
O4    O     O_R   0.476470 0.723930 0.429450 -0.504709
O5    O     O_R   0.160500 0.919670 0.926690 -0.518853
O6    O     O_R   0.933140 0.190380 0.936050 -0.502128
O7    O     O_R   0.909010 0.403210 0.925030 -0.523063
O8    O     O_R   0.179590 0.361290 0.918480 -0.510223
O9    O     O_R   0.391360 0.170840 0.907510 -0.518375
O10   O     O_R   0.350950 0.942600 0.922260 -0.512004
O11   O     O_3   0.166650 0.166610 0.999880 -0.250430
O12   O     O_R   0.300170 0.471020 0.567120 -0.516203
O13   O     O_R   0.264730 0.744140 0.416740 -0.511508
O14   O     O_R   0.309440 0.472410 0.418220 -0.510890
O15   O     O_R   0.501630 0.260530 0.414310 -0.531282
O16   O     O_R   0.727920 0.305730 0.428950 -0.500019
O17   O     O_R   0.738670 0.496020 0.588600 -0.532594
O18   O     O_R   0.467190 0.722540 0.578350 -0.506477
O19   O     O_R   0.254720 0.742640 0.577370 -0.516337
O20   O     O_R   0.491630 0.259030 0.574940 -0.516117
O21   O     O_R   0.718640 0.304340 0.577850 -0.507867
O22   O     O_3   0.500010 0.500010 0.500020 -0.270001
O23   O     O_R   0.186620 0.923750 0.087000 -0.532360
O24   O     O_R   0.957350 0.194160 0.084660 -0.493889
O25   O     O_R   0.935120 0.407280 0.085350 -0.528436
O26   O     O_R   0.203800 0.365060 0.067090 -0.514391

loop_
_geom_bond_atom_site_label_1
_geom_bond_atom_site_label_2
_ccdc_geom_bond_type
C36   H13   S    
C66   C68   A    
C12   C69   A    
C26   H7    S    
C23   C45   A    
C22   C29   A    
C41   C42   A    
Cr1   O4    S    
Cr4   O6    S    
C5    C67   A    
C16   O16   A    
C8    C56   A    
C62   O6    A    
C7    C8    A    
C4    O14   A    
C53   C54   A    
C12   C68   A    
C26   C27   S    
Cr6   O2    S    
C47   H22   S    
C49   C65   S    
C13   C18   S    
C55   H29   S    
Cr6   O3    S    
C36   C37   S    
C38   C40   S    
C10   C15   A    
C31   C36   S    
C34   H1    S    
Cr1   O17   S    
C30   C31   A    
C69   H36   S    
C20   C25   A    
C49   C54   A    
C55   H27   S    
C43   H18   S    
C61   O3    A    
C20   C61   S    
C27   H9    S    
C1    O4    A    
C33   C35   A    
C24   C29   A    
C5    H12   S    
C35   H11   S    
C59   O24   A    
C53   H25   S    
C40   O20   A    
C41   C46   S    
C60   O2    A    
C51   C57   S    
C64   C70   A    
C43   C48   A    
C18   H42   S    
C56   H35   S    
C17   H41   S    
C68   H33   S    
C57   H30   S    
Cr4   O24   S    
C59   O25   A    
C26   H6    S    
C21   C22   A    
C25   H5    S    
C21   C26   S    
C54   H26   S    
Cr2   O14   S    
C23   C60   S    
C37   H15   S    
C70   H4    S    
C65   O10   A    
C24   C25   A    
C39   C41   A    
C3    C8    S    
Cr5   O26   S    
C16   O1    A    
Cr1   O18   S    
C51   C58   A    
C13   C19   A    
Cr3   O21   S    
C50   C51   A    
C14   H38   S    
C47   H24   S    
Cr5   O7    S    
C64   C66   A    
C43   C44   A    
C3    C9    A    
Cr6   O11   S    
C24   H3    S    
C31   C32   A    
Cr2   O22   S    
C18   H2    S    
C1    C29   S    
C17   C18   S    
C37   H17   S    
C34   C45   A    
C42   C48   A    
C32   C37   S    
Cr3   O16   S    
C39   C44   A    
Cr5   O25   S    
C30   C35   A    
C61   O23   A    
Cr2   O19   S    
C57   H31   S    
Cr4   O23   S    
Cr3   O15   S    
C32   C38   A    
C22   C27   S    
C55   C57   S    
C9    C34   A    
Cr6   O10   S    
C15   H39   S    
C52   O17   A    
Cr2   O13   S    
C36   H14   S    
C64   H28   S    
C39   C62   S    
C40   O12   A    
C46   C47   S    
C11   C17   S    
Cr1   O22   S    
C28   O18   A    
C14   C19   A    
C46   H21   S    
C28   O19   A    
C50   C55   S    
C66   H32   S    
C12   C45   S    
C1    O13   A    
C62   O7    A    
C53   C58   A    
Cr2   O12   S    
C6    C7    A    
Cr3   O22   S    
C28   C58   S    
C56   C67   A    
C33   C38   A    
C7    H34   S    
Cr1   O1    S    
Cr5   O8    S    
C6    H23   S    
C2    C3    A    
C52   O21   A    
C44   H19   S    
C60   O26   A    
C27   H8    S    
C11   C13   A    
C5    C6    A    
C16   C19   S    
C67   H16   S    
C2    H37   S    
Cr4   O5    S    
C42   C47   S    
C65   O5    A    
C69   C70   A    
C63   O8    A    
C10   C11   A    
C48   C52   S    
C46   H20   S    
C20   C21   A    
C49   C50   A    
Cr3   O20   S    
Cr4   O11   S    
C2    C23   A    
Cr6   O9    S    
C14   C15   A    
C4    C9    S    
C30   C63   S    
C10   C59   S    
C33   H10   S    
C63   O9    A    
Cr5   O11   S    
C17   H40   S    
C4    O15   A    
