data_mof_unit_30020.cif
_audit_creation_date              2013-03-05T15:57:25-0500
_audit_creation_method            fapswitch 2.2
_symmetry_space_group_name_H-M    P1
_symmetry_Int_Tables_number       1
_space_group_crystal_system       triclinic
_cell_length_a                    13.058695
_cell_length_b                    13.175415
_cell_length_c                    15.247038
_cell_angle_alpha                 117.27247
_cell_angle_beta                  63.081977
_cell_angle_gamma                 97.001009
_cell_volume                      2066.91852609

loop_
_atom_site_label
_atom_site_type_symbol
_atom_site_description
_atom_site_fract_x
_atom_site_fract_y
_atom_site_fract_z
_atom_type_partial_charge
C1    C     C_R   0.996455 0.831542 0.062493 -0.250713
H1    H     H_    0.025640 0.890822 0.121655 0.151821
N1    N     N_R   0.037320 0.720000 0.995830 -0.072774
C2    C     C_R   0.678515 0.473753 0.221509 -0.077133
H2    H     H_    0.612248 0.440543 0.195635 0.175362
N2    N     N_R   0.790770 0.446140 0.151990 -0.058490
C3    C     C_R   0.758633 0.515312 0.889122 0.026903
H3    H     H_    0.783468 0.540022 0.824152 0.135089
N3    N     N_R   0.824900 0.517970 0.936430 -0.051760
C4    C     C_R   0.024687 0.695410 0.299159 -0.111751
H4    H     H_    0.010650 0.653582 0.349628 0.134447
N4    N     N_R   0.003190 0.648180 0.211390 -0.044492
C5    C     C_R   0.677949 0.421049 0.988513 -0.084864
H5    H     H_    0.631114 0.359557 0.016085 0.100962
N5    N     N_R   0.774330 0.457010 0.995830 -0.058210
C6    C     C_R   0.102143 0.795065 0.205638 -0.129524
H6    H     H_    0.156278 0.848586 0.170849 0.117941
N6    N     N_R   0.053760 0.709130 0.151980 -0.039071
C7    C     C_R   0.779226 0.556948 0.317627 -0.110943
H7    H     H_    0.808635 0.597366 0.379341 0.141491
N7    N     N_R   0.853840 0.498830 0.211390 -0.046415
C8    C     C_R   0.891826 0.748941 0.972194 0.693043
N8    N     N_R   0.974250 0.667320 0.936430 -0.117331
C9    C     C_R   0.902214 0.851961 0.051868 -0.039526
C10   C     C_R   0.666174 0.548960 0.327644 0.092159
C11   C     C_R   0.665558 0.457009 0.922069 0.081896
C12   C     C_R   0.090251 0.786484 0.296696 0.045520
C13   C     C_R   0.338726 0.512609 0.946244 -0.180432
H8    H     H_    0.397129 0.548237 0.892900 0.119286
N9    N     N_R   0.225670 0.542990 0.004170 -0.062359
C14   C     C_R   0.991422 0.182519 0.781572 -0.123166
H9    H     H_    0.984884 0.121925 0.811171 0.137395
N10   N     N_R   0.946240 0.290870 0.848020 -0.049153
C15   C     C_R   0.194394 0.506310 0.693853 -0.164892
H10   H     H_    0.154359 0.476153 0.640394 0.113848
N11   N     N_R   0.146160 0.501170 0.788610 -0.043705
C16   C     C_R   0.041583 0.259975 0.096959 -0.065669
H11   H     H_    0.072915 0.281582 0.156899 0.196013
N12   N     N_R   0.025750 0.332680 0.063570 -0.062398
C17   C     C_R   0.939682 0.178428 0.005713 -0.155054
H12   H     H_    0.878805 0.125777 0.980137 0.118042
N13   N     N_R   0.962680 0.280000 0.004170 -0.052068
C18   C     C_R   0.292806 0.598931 0.788547 -0.127979
H13   H     H_    0.345380 0.659319 0.821191 0.085352
N14   N     N_R   0.209230 0.553860 0.848010 -0.037500
C19   C     C_R   0.260055 0.418927 0.048298 0.331821
N15   N     N_R   0.175100 0.482030 0.063570 -0.087222
C20   C     C_R   0.059098 0.277034 0.681699 -0.113719
H14   H     H_    0.102787 0.299325 0.614654 0.094852
N16   N     N_R   0.996810 0.351820 0.788610 -0.048973
Ni1   Ni    Ni4+2 0.130310 0.630310 0.000000 0.201731
Ni2   Ni    Ni4+2 0.869690 0.369690 0.000000 0.211369
Ni3   Ni    Ni4+2 0.985660 0.509480 0.863750 0.219989
Ni4   Ni    Ni4+2 0.014340 0.490520 0.136250 0.270212
C21   C     C_R   0.363811 0.433127 0.971463 0.003444
C22   C     C_R   0.056384 0.167547 0.674278 0.052478
C23   C     C_R   0.283093 0.573486 0.692338 0.111150
C24   C     C_R   0.990013 0.161071 0.061106 0.083938
H15   H     H_    0.505129 0.924652 0.975874 0.143714
C25   C     C_R   0.441252 0.838641 0.078442 -0.055099
H16   H     H_    0.498790 0.760655 0.015605 0.144291
C26   C     C_R   0.362463 0.846434 0.181623 -0.164153
H17   H     H_    0.359952 0.773659 0.197328 0.150297
C27   C     C_R   0.286072 0.946941 0.263266 0.101302
C28   C     C_R   0.292161 0.039752 0.240403 -0.159308
H18   H     H_    0.233462 0.116590 0.301808 0.118559
C29   C     C_R   0.371173 0.031940 0.137329 -0.132076
H19   H     H_    0.374290 0.103611 0.120074 0.163879
C30   C     C_R   0.445109 0.931137 0.056127 -0.028006
C31   C     C_R   0.178543 0.052510 0.470180 -0.221483
H20   H     H_    0.220805 0.127755 0.467604 0.123477
C32   C     C_R   0.100496 0.055980 0.572595 0.062899
C33   C     C_R   0.060082 0.951674 0.573993 0.047614
C34   C     C_R   0.089923 0.852101 0.475319 -0.223130
H21   H     H_    0.058377 0.773656 0.477900 0.135290
C35   C     C_R   0.136045 0.859053 0.376679 0.059568
C36   C     C_R   0.198259 0.953167 0.370701 0.049313
C37   C     C_R   0.002330 0.895000 0.722740 -0.319162
H22   H     H_    0.091421 0.863903 0.689669 0.165035
C38   C     C_R   0.918210 0.887456 0.816290 -0.261296
H23   H     H_    0.944207 0.850483 0.853669 0.162436
C39   C     C_R   0.802816 0.928702 0.860801 0.839203
C40   C     C_R   0.772272 0.982239 0.814214 -0.301500
H24   H     H_    0.683565 0.016131 0.849658 0.151743
C41   C     C_R   0.856351 0.990963 0.720973 -0.236197
H25   H     H_    0.832219 0.032912 0.685304 0.157113
C42   C     C_R   0.971427 0.944473 0.673139 0.110291
H26   H     H_    0.911319 0.735157 0.603923 0.127909
C43   C     C_R   0.754708 0.657876 0.632903 -0.027887
H27   H     H_    0.770114 0.615361 0.672588 0.131407
C44   C     C_R   0.658367 0.638750 0.614033 -0.137875
H28   H     H_    0.601621 0.578138 0.635970 0.126091
C45   C     C_R   0.636810 0.695717 0.564624 0.137663
C46   C     C_R   0.706514 0.778022 0.541847 -0.174447
H29   H     H_    0.688397 0.824152 0.506248 0.136367
C47   C     C_R   0.807909 0.789443 0.552301 -0.149725
H30   H     H_    0.867047 0.844797 0.524349 0.137367
C48   C     C_R   0.832727 0.728111 0.596415 -0.099208
C49   C     C_R   0.434376 0.685068 0.627053 -0.240806
H31   H     H_    0.428232 0.733592 0.709173 0.136488
C50   C     C_R   0.348974 0.617136 0.610236 -0.018324
C51   C     C_R   0.349034 0.575516 0.506006 -0.167574
C52   C     C_R   0.449469 0.579050 0.418203 0.683475
C53   C     C_R   0.552847 0.602771 0.428476 -0.130576
C54   C     C_R   0.540846 0.666911 0.537477 -0.015234
C55   C     C_R   0.271331 0.411795 0.394514 -0.100189
H32   H     H_    0.357415 0.366324 0.341507 0.141499
C56   C     C_R   0.179551 0.358525 0.374955 -0.167710
H33   H     H_    0.197234 0.276035 0.304010 0.172882
C57   C     C_R   0.066165 0.412271 0.445067 0.444750
C58   C     C_R   0.047595 0.523334 0.531878 -0.283960
H34   H     H_    0.961561 0.565010 0.589615 0.155459
C59   C     C_R   0.140121 0.580016 0.547511 -0.209659
H35   H     H_    0.123463 0.664655 0.615965 0.139525
C60   C     C_R   0.252056 0.522358 0.482278 0.204671
C61   C     C_2   0.478687 0.395013 0.943950 -0.105794
H36   H     H_    0.484285 0.346704 0.983072 0.176562
C62   C     C_2   0.570725 0.439819 0.893976 -0.209440
H37   H     H_    0.568232 0.484790 0.850550 0.136997
C63   C     C_2   0.816214 0.954563 0.124125 -0.158179
H38   H     H_    0.741527 0.954837 0.110989 0.238124
C64   C     C_2   0.822340 0.045479 0.209767 -0.078491
H39   H     H_    0.892625 0.051635 0.230737 0.167442
N17   N     N_R   0.249432 0.383366 0.127125 0.217908
O1    O     O_R   0.308699 0.290826 0.096986 -0.471788
O2    O     O_R   0.179827 0.445412 0.230822 -0.432092
F1    F     F_    0.720526 0.918326 0.949745 -0.719073
F2    F     F_    0.445905 0.554497 0.322928 -0.710207
N18   N     N_R   0.971044 0.354248 0.428061 0.230573
O3    O     O_R   0.988835 0.250531 0.348564 -0.449186
O4    O     O_R   0.865475 0.403202 0.493512 -0.436296
F3    F     F_    0.806459 0.732286 0.941703 -0.714325

loop_
_geom_bond_atom_site_label_1
_geom_bond_atom_site_label_2
_geom_bond_distance
_ccdc_geom_bond_type
C37   C42   1.397099 A    
C4    C12   1.391432 A    
N9    Ni1   1.834754 S    
C50   C51   1.423581 A    
C27   C36   1.484578 S    
N1    N8    1.392936 A    
C7    H7    1.065179 S    
C2    C10   1.399937 A    
C3    H3    1.082311 S    
C41   H25   1.083339 S    
C56   H33   1.078077 S    
N10   Ni2   1.843291 S    
C26   H17   1.083239 S    
C3    C11   1.375837 A    
C34   C35   1.387694 A    
C13   H8    1.079130 S    
C7    N7    1.332538 A    
C15   H10   1.064868 S    
N7    Ni4   1.866619 S    
C37   C38   1.391303 A    
N12   Ni4   1.840933 S    
C21   C61   1.448915 S    
N14   Ni1   1.843493 S    
C61   H36   1.079367 S    
C57   N18   1.439827 S    
C25   C26   1.398665 A    
C1    H1    1.077962 S    
C33   C34   1.386146 A    
C57   C58   1.404585 A    
C33   C42   1.467842 S    
C26   C27   1.409000 A    
C51   C60   1.480413 S    
C45   C54   1.447598 S    
C62   H37   1.083643 S    
C58   H34   1.072657 S    
C61   C62   1.335559 D    
C6    H6    1.077083 S    
C22   C32   1.485076 S    
C47   C48   1.403463 A    
C19   C21   1.394669 A    
C15   C23   1.367533 A    
C14   N10   1.323302 A    
C31   H20   1.082418 S    
N11   Ni3   1.866618 S    
C14   C22   1.386827 A    
C43   C44   1.383142 A    
C16   C24   1.384554 A    
C8    F3    1.350238 S    
C6    C12   1.381590 A    
C17   N13   1.343930 A    
C5    H5    1.079697 S    
C31   C36   1.410393 A    
C19   N17   1.425677 S    
C46   H29   1.083336 S    
C53   C54   1.417773 A    
C13   C21   1.385096 A    
C63   C64   1.335706 D    
N6    Ni1   1.843289 S    
N8    Ni3   1.840933 S    
N12   N13   1.392935 A    
C41   C42   1.409959 A    
C49   C54   1.384908 A    
C9    C63   1.478977 S    
N16   Ni3   1.841298 S    
C17   C24   1.383427 A    
C34   H21   1.076233 S    
C29   H19   1.082205 S    
N9    N15   1.377403 A    
C35   C36   1.413113 A    
C2    N2    1.332099 A    
C44   H28   1.083904 S    
N1    Ni1   1.834020 S    
C37   H22   1.082295 S    
C38   H23   1.071111 S    
C28   C29   1.398041 A    
N10   N16   1.377403 A    
N2    N7    1.392952 A    
C59   C60   1.401737 A    
C25   H16   1.082798 S    
C1    N1    1.344910 A    
C18   H13   1.079557 S    
C16   H11   1.074921 S    
C44   C45   1.404219 A    
C40   H24   1.082342 S    
C47   H30   1.076791 S    
N11   N14   1.392953 A    
C58   C59   1.397183 A    
C45   C46   1.394039 A    
N5    Ni2   1.834754 S    
C46   C47   1.386298 A    
C52   F2    1.357910 S    
C18   N14   1.343594 A    
C4    N4    1.338379 A    
H15   C30   1.082134 S    
N15   Ni4   1.866795 S    
C38   C39   1.400820 A    
C20   H14   1.078399 S    
C40   C41   1.394809 A    
C28   H18   1.076935 S    
C5    N5    1.324520 A    
C8    C9    1.389139 A    
C5    C11   1.372579 A    
N3    Ni3   1.866796 S    
C12   C35   1.487062 S    
C43   H27   1.081044 S    
C63   H38   1.081549 S    
N17   O2    1.299882 A    
C59   H35   1.080348 S    
C20   C22   1.391604 A    
C19   N15   1.337819 A    
C17   H12   1.078709 S    
C49   C50   1.384137 A    
C14   H9    1.061615 S    
C11   C62   1.446166 S    
C32   C33   1.416853 A    
C10   C53   1.501055 S    
C23   C50   1.483917 S    
C55   C60   1.404976 A    
C49   H31   1.082063 S    
C43   C48   1.390179 A    
N2    Ni2   1.843491 S    
C27   C28   1.401768 A    
C13   N9    1.326408 A    
N18   O3    1.301913 A    
C16   N12   1.345361 A    
C55   C56   1.394535 A    
C25   C30   1.397497 A    
C20   N16   1.346310 A    
C56   C57   1.401891 A    
C15   N11   1.320597 A    
N3    N5    1.377405 A    
C51   C52   1.402509 A    
C7    C10   1.409465 A    
H26   C48   1.071653 S    
C39   F1    1.351721 S    
C4    H4    1.079692 S    
C18   C23   1.409848 A    
C3    N3    1.343502 A    
C2    H2    1.074495 S    
C1    C9    1.383591 A    
C6    N6    1.339846 A    
C39   C40   1.394814 A    
C55   H32   1.083349 S    
N4    N6    1.377402 A    
C52   C53   1.410116 A    
C8    N8    1.351172 A    
C31   C32   1.408609 A    
C29   C30   1.397249 A    
C64   H39   1.083978 S    
N4    Ni4   1.841298 S    
N13   Ni2   1.834020 S    
N17   O1    1.300481 A    
N18   O4    1.301398 A    
