data_mof_unit_28740.cif
_audit_creation_date              2012-12-10T20:30:07-0500
_audit_creation_method            fapswitch 2.2
_symmetry_space_group_name_H-M    P1
_symmetry_Int_Tables_number       1
_space_group_crystal_system       triclinic
_cell_length_a                    9.864928
_cell_length_b                    10.653526
_cell_length_c                    13.102134
_cell_angle_alpha                 89.961589
_cell_angle_beta                  69.878289
_cell_angle_gamma                 90.002075
_cell_volume                      1292.93929837

loop_
_atom_site_label
_atom_site_type_symbol
_atom_type_description
_atom_site_fract_x
_atom_site_fract_y
_atom_site_fract_z
_atom_type_partial_charge
C1    C     C_R   0.503830 0.739741 0.491678 0.911075
C2    C     C_R   0.430371 0.478393 0.985056 0.107033
C3    C     C_R   0.456673 0.440656 0.877225 0.091131
C4    C     C_R   0.540473 0.459108 0.029641 0.081821
C5    C     C_R   0.662101 0.383394 0.974491 0.173650
C6    C     C_R   0.674969 0.331036 0.874248 -0.256093
C7    C     C_R   0.573678 0.359476 0.825877 -0.223899
C8    C     C_R   0.533601 0.514529 0.127337 -0.243933
C9    C     C_R   0.748462 0.404139 0.125772 -0.152361
C10   C     C_R   0.366759 0.487492 0.822736 -0.135835
C11   C     C_R   0.383545 0.935874 0.487220 0.138216
C12   C     C_R   0.419714 0.494364 0.704332 0.863785
C13   C     C_R   0.512608 0.870944 0.467908 -0.198019
C14   C     C_R   0.645666 0.936964 0.428329 -0.060809
C15   C     C_R   0.641492 0.067374 0.437032 -0.268258
C16   C     C_R   0.508020 0.128628 0.478489 -0.128066
C17   C     C_R   0.381484 0.063385 0.491595 0.140806
C18   C     C_3   0.239382 0.067119 0.582235 -0.470544
C19   C     C_3   0.241290 0.924932 0.577549 -0.468317
C20   C     C_R   0.905159 0.592884 0.552095 0.247909
C21   C     C_R   0.955369 0.415437 0.440128 -0.125735
C22   C     C_R   0.099355 0.415403 0.440138 -0.132266
C23   C     C_R   0.501264 0.259868 0.497092 0.871678
C24   C     C_R   0.047575 0.592561 0.552370 0.202722
C25   C     C_3   0.999225 0.621375 0.670780 -0.506407
C26   C     C_3   0.845626 0.622976 0.670391 -0.484867
C27   C     C_R   0.580256 0.498947 0.295648 0.891732
C28   C     C_R   0.767166 0.358893 0.021967 -0.201681
C29   C     C_R   0.628958 0.479589 0.179132 -0.008765
C30   C     C_R   0.234448 0.543827 0.881461 -0.229041
C31   C     C_R   0.194416 0.561342 0.993648 -0.075905
C32   C     C_R   0.294909 0.533035 0.044184 -0.286062
H1    H     H_    0.822384 0.375104 0.166164 0.149944
H2    H     H_    0.741359 0.120405 0.413870 0.193540
H3    H     H_    0.247649 0.105234 0.658900 0.199067
H4    H     H_    0.153267 0.109617 0.556560 0.216657
H5    H     H_    0.250289 0.880155 0.651678 0.201361
H6    H     H_    0.156194 0.885438 0.549098 0.216399
H7    H     H_    0.922304 0.345677 0.393468 0.142529
H8    H     H_    0.174914 0.345524 0.393530 0.155568
H9    H     H_    0.020165 0.542735 0.719177 0.216235
H10   H     H_    0.036985 0.714767 0.687480 0.208494
H11   H     H_    0.778224 0.546337 0.719773 0.233934
H12   H     H_    0.764793 0.270097 0.832204 0.156535
H13   H     H_    0.795274 0.717626 0.685670 0.210713
H14   H     H_    0.859489 0.299979 0.981215 0.140830
H15   H     H_    0.450198 0.581211 0.168081 0.153252
H16   H     H_    0.163899 0.576606 0.839437 0.176706
H17   H     H_    0.264943 0.552939 0.129672 0.136168
H18   H     H_    0.587333 0.316560 0.748135 0.174918
N1    N     N_R   0.856940 0.500860 0.500710 -0.099428
N2    N     N_R   0.142580 0.500820 0.500710 -0.105653
O1    O     O_R   0.385310 0.683210 0.499990 -0.613120
O2    O     O_R   0.614650 0.683240 0.500000 -0.592409
O3    O     O_R   0.328390 0.499940 0.653610 -0.614425
O4    O     O_R   0.557730 0.499980 0.653620 -0.617676
O5    O     O_R   0.385350 0.316760 0.500000 -0.616694
O6    O     O_R   0.614690 0.316790 0.500010 -0.634128
O7    O     O_R   0.442270 0.500020 0.346380 -0.630731
O8    O     O_R   0.671610 0.500060 0.346390 -0.568304
Zn1   Zn    Zn3+2 0.346870 0.499980 0.499990 0.940870
Zn2   Zn    Zn3+2 0.653130 0.500020 0.500010 0.978343
C33   C     C_2   0.051737 0.617661 0.055966 0.952620
O9    O     O_2   0.991279 0.684860 0.009337 -0.577454
O10   O     O_R   0.983011 0.595250 0.167155 -0.732532
H19   H     H_    0.027944 0.525344 0.197036 0.285054
C34   C     C_2   0.788385 0.875336 0.379981 0.945240
O11   O     O_2   0.801618 0.783872 0.321029 -0.555238
O12   O     O_R   0.909124 0.925047 0.398446 -0.832695
H20   H     H_    0.000265 0.875215 0.360915 0.340816

loop_
_geom_bond_atom_site_label_1
_geom_bond_atom_site_label_2
_ccdc_geom_bond_type
C25   H10   S    
C24   N2    A    
C23   O6    A    
C2    C4    A    
C1    O2    A    
C33   O10   S    
O6    Zn2   S    
C6    C7    A    
C19   H6    S    
C31   C33   S    
C2    C3    A    
C27   C29   S    
C5    C28   A    
C19   H5    S    
C18   H3    S    
C10   C30   A    
C15   H2    S    
C31   C32   A    
C21   H7    S    
C9    C29   A    
C30   C31   A    
C4    C8    A    
C22   H8    S    
C16   C23   S    
C17   C18   S    
C8    H15   S    
C3    C10   A    
C27   O7    A    
C21   C22   A    
O8    Zn2   S    
O5    Zn1   S    
C11   C13   A    
C28   H14   S    
C5    C6    A    
N1    Zn2   S    
C20   C26   S    
C9    H1    S    
C34   O11   D    
C8    C29   A    
C10   C12   S    
C30   H16   S    
C12   O4    A    
C26   H11   S    
O10   H19   S    
C20   N1    A    
C3    C7    A    
N2    Zn1   S    
C27   O8    A    
O12   H20   S    
O4    Zn2   S    
C32   H17   S    
O7    Zn1   S    
C12   O3    A    
C1    C13   S    
C14   C34   S    
O1    Zn1   S    
C33   O9    D    
C16   C17   A    
O3    Zn1   S    
C21   N1    A    
C24   C25   S    
C9    C28   A    
C2    C32   A    
C18   C19   S    
C25   H9    S    
C23   O5    A    
C1    O1    A    
C14   C15   A    
C11   C19   S    
C6    H12   S    
O2    Zn2   S    
C26   H13   S    
C22   N2    A    
C25   C26   S    
C13   C14   A    
C18   H4    S    
C20   C24   A    
C11   C17   A    
C15   C16   A    
C7    H18   S    
C4    C5    A    
C34   O12   S    
