data_mof_unit_53727.cif
_audit_creation_date              2012-12-10T17:48:40-0500
_audit_creation_method            fapswitch 2.2
_symmetry_space_group_name_H-M    P1
_symmetry_Int_Tables_number       1
_space_group_crystal_system       triclinic
_cell_length_a                    15.759033
_cell_length_b                    10.653127
_cell_length_c                    9.946863
_cell_angle_alpha                 88.308686
_cell_angle_beta                  90.586659
_cell_angle_gamma                 92.543992
_cell_volume                      1667.46975071

loop_
_atom_site_label
_atom_site_type_symbol
_atom_type_description
_atom_site_fract_x
_atom_site_fract_y
_atom_site_fract_z
_atom_type_partial_charge
C1    C     C_R   0.508793 0.260880 0.503446 0.905651
C2    C     C_3   0.947694 0.394734 0.588749 0.789155
C3    C     C_3   0.917181 0.506370 0.495026 -0.068170
C4    C     C_3   0.955434 0.634524 0.550091 -0.376417
C5    C     C_3   0.054341 0.627358 0.566482 -0.419382
C6    C     C_1   0.825397 0.504207 0.499037 0.154105
C7    C     C_1   0.175068 0.503686 0.496863 0.105119
C8    C     C_1   0.250102 0.501188 0.498024 -0.096884
C9    C     C_R   0.510474 0.097535 0.765305 0.410392
C10   C     C_R   0.466384 0.030423 0.871482 -0.073848
C11   C     C_R   0.413691 0.925816 0.840020 -0.166181
C12   C     C_R   0.338620 0.499413 0.499473 0.887458
C13   C     C_R   0.415670 0.876143 0.712737 -0.153386
C14   C     C_R   0.467094 0.934603 0.612161 0.023945
C15   C     C_R   0.500279 0.055896 0.631274 0.078825
C16   C     C_R   0.522837 0.127932 0.513583 -0.075934
C17   C     C_R   0.542287 0.068756 0.395472 -0.215786
C18   C     C_R   0.529641 0.940759 0.388250 -0.163678
C19   C     C_R   0.490896 0.873651 0.495493 -0.093923
C20   C     C_R   0.380468 0.346118 0.141392 -0.174954
C21   C     C_R   0.317817 0.273845 0.073860 -0.080478
C22   C     C_R   0.318975 0.272860 0.932108 -0.099679
C23   C     C_R   0.494529 0.739624 0.498071 0.883827
C24   C     C_R   0.383077 0.342605 0.863292 -0.243537
C25   C     C_R   0.441796 0.423135 0.929260 0.057518
C26   C     C_R   0.441180 0.424096 0.073035 0.150227
C27   C     C_R   0.555842 0.572854 0.071481 -0.070592
C28   C     C_R   0.556156 0.574265 0.929317 0.475128
C29   C     C_R   0.661439 0.500568 0.500500 0.904648
C30   C     C_3   0.047056 0.389661 0.579163 0.113951
C31   C     C_3   0.048170 0.507310 0.347969 0.312422
C32   C     C_3   0.950034 0.482744 0.348685 -0.359933
C33   C     C_1   0.750179 0.502240 0.501147 -0.058939
C34   C     C_3   0.083579 0.506782 0.495802 -0.029227
H1    H     H_    0.074774 0.392064 0.683007 0.117872
H2    H     H_    0.566259 0.122050 0.308688 0.228089
H3    H     H_    0.376534 0.875270 0.916823 0.209520
H4    H     H_    0.378849 0.789937 0.694585 0.170529
H5    H     H_    0.549603 0.894795 0.298851 0.197752
H6    H     H_    0.601246 0.632508 0.125067 0.185818
H7    H     H_    0.381694 0.336360 0.248115 0.220194
H8    H     H_    0.385378 0.332532 0.757269 0.237024
H9    H     H_    0.062140 0.602410 0.302822 0.227281
H10   H     H_    0.935806 0.382095 0.327706 0.205777
H11   H     H_    0.068056 0.612596 0.675838 0.142569
H12   H     H_    0.929832 0.645102 0.652899 0.186771
N1    N     N_R   0.499210 0.498800 0.142780 -0.155792
N2    N     N_R   0.499180 0.498720 0.857170 -0.178691
O1    O     O_R   0.500000 0.316780 0.614690 -0.603811
O2    O     O_R   0.499990 0.316750 0.385360 -0.644156
O3    O     O_R   0.377150 0.500020 0.614720 -0.652280
O4    O     O_R   0.377140 0.499990 0.385380 -0.607842
O5    O     O_R   0.500010 0.683250 0.614640 -0.644533
O6    O     O_R   0.500000 0.683220 0.385310 -0.615195
O7    O     O_R   0.622860 0.500010 0.614620 -0.605734
O8    O     O_R   0.622850 0.499980 0.385280 -0.602233
Zn1   Zn    Zn3+2 0.500010 0.500020 0.653130 0.966677
Zn2   Zn    Zn3+2 0.499990 0.499980 0.346870 0.980102
O9    O     O_3   0.909090 0.280938 0.544584 -0.691281
H13   H     H_    0.920675 0.214746 0.613967 0.404796
O10   O     O_3   0.921485 0.410201 0.722937 -0.744348
H14   H     H_    0.961128 0.470424 0.768298 0.317506
C35   C     C_2   0.926332 0.749651 0.470675 1.054080
O11   O     O_2   0.869155 0.810185 0.514770 -0.579322
O12   O     O_R   0.965186 0.788387 0.349689 -0.786090
H15   H     H_    0.940086 0.866679 0.308256 0.373531
O13   O     O_3   0.572100 0.190141 0.790626 -0.693040
H16   H     H_    0.552718 0.241117 0.864688 0.361421
C36   C     C_2   0.475445 0.061311 0.015660 0.879500
O14   O     O_2   0.539575 0.115969 0.058028 -0.631351
O15   O     O_R   0.410836 0.022555 0.104893 -0.795058
H17   H     H_    0.420760 0.054644 0.198707 0.340278
O16   O     O_3   0.069850 0.276728 0.521722 -0.704146
H18   H     H_    0.128216 0.259317 0.553429 0.364978
C37   C     C_2   0.256611 0.194144 0.155839 0.997560
O17   O     O_2   0.234509 0.229312 0.265590 -0.619032
O18   O     O_R   0.226956 0.076797 0.111102 -0.729101
H19   H     H_    0.186875 0.031336 0.177181 0.362175
C38   C     C_2   0.253619 0.203807 0.850895 0.968061
O19   O     O_2   0.179080 0.199982 0.884368 -0.561564
O20   O     O_R   0.276971 0.147836 0.732114 -0.830937
H20   H     H_    0.227065 0.104223 0.684916 0.366760
O21   O     O_3   0.615876 0.654151 0.868234 -0.739184
H21   H     H_    0.606750 0.653068 0.770877 0.392100
O22   O     O_3   0.089250 0.423667 0.265517 -0.672452
H22   H     H_    0.068129 0.336689 0.287450 0.407786
C39   C     C_2   0.908458 0.550628 0.230094 0.988433
O23   O     O_2   0.846658 0.614196 0.244441 -0.606402
O24   O     O_R   0.940277 0.535453 0.101119 -0.736610
H23   H     H_    0.907764 0.583138 0.029079 0.361934
C40   C     C_2   0.103709 0.750135 0.530738 1.010229
O25   O     O_2   0.096557 0.840668 0.601963 -0.586033
O26   O     O_R   0.156566 0.761041 0.418458 -0.794828
H24   H     H_    0.185202 0.847791 0.407310 0.352496

loop_
_geom_bond_atom_site_label_1
_geom_bond_atom_site_label_2
_ccdc_geom_bond_type
C39   O23   D    
C35   O12   S    
O26   H24   S    
C31   O22   S    
C24   H8    S    
O16   H18   S    
C18   H5    S    
C3    C6    S    
C20   H7    S    
C7    C8    T    
C4    H12   S    
O18   H19   S    
C4    C35   S    
C31   H9    S    
C30   H1    S    
C22   C38   S    
O6    Zn2   S    
C15   C16   A    
C29   C33   S    
O1    Zn1   S    
C36   O15   S    
C18   C19   A    
C11   H3    S    
C31   C32   S    
C16   C17   A    
O3    Zn1   S    
C17   H2    S    
C9    C10   A    
C2    O10   S    
O9    H13   S    
C13   C14   A    
C28   O21   S    
O10   H14   S    
C12   O4    A    
C23   O5    A    
C30   C34   S    
O13   H16   S    
O2    Zn2   S    
N2    Zn1   S    
C24   C25   A    
C40   O25   D    
C38   O20   S    
C30   O16   S    
O5    Zn1   S    
C2    O9    S    
C29   O7    A    
C25   C26   A    
O22   H22   S    
C32   C39   S    
C5    H11   S    
O20   H20   S    
C38   O19   D    
C19   C23   S    
C37   O17   D    
C9    O13   S    
C40   O26   S    
O21   H21   S    
C27   H6    S    
C8    C12   S    
C5    C34   S    
C17   C18   A    
C32   H10   S    
C31   C34   S    
C3    C32   S    
C1    C16   S    
C37   O18   S    
C25   N2    A    
C13   H4    S    
C5    C40   S    
O4    Zn2   S    
C26   N1    A    
O7    Zn1   S    
C7    C34   S    
C22   C24   A    
C3    C4    S    
C12   O3    A    
C23   O6    A    
C1    O2    A    
C27   N1    A    
C28   N2    A    
C14   C19   A    
C4    C5    S    
C29   O8    A    
C21   C37   S    
C6    C33   T    
C2    C30   S    
C39   O24   S    
C2    C3    S    
C9    C15   A    
O15   H17   S    
N1    Zn2   S    
C11   C13   A    
C20   C26   A    
O8    Zn2   S    
C36   O14   D    
C10   C11   A    
C35   O11   D    
C10   C36   S    
C20   C21   A    
O12   H15   S    
C27   C28   A    
C14   C15   A    
O24   H23   S    
C21   C22   A    
C1    O1    A    
