data_mof_unit_43291.cif
_audit_creation_date              2012-12-11T17:39:33-0500
_audit_creation_method            fapswitch 2.2
_symmetry_space_group_name_H-M    P1
_symmetry_Int_Tables_number       1
_space_group_crystal_system       triclinic
_cell_length_a                    15.142021
_cell_length_b                    15.097819
_cell_length_c                    15.226857
_cell_angle_alpha                 108.611339
_cell_angle_beta                  109.973586
_cell_angle_gamma                 110.585106
_cell_volume                      2653.77765287

loop_
_atom_site_label
_atom_site_type_symbol
_atom_type_description
_atom_site_fract_x
_atom_site_fract_y
_atom_site_fract_z
_atom_type_partial_charge
C1    C     C_R   0.908323 0.909287 0.709340 -0.015786
C2    C     C_R   0.908971 0.705262 0.511713 0.439804
C3    C     C_R   0.712608 0.778138 0.191339 0.251370
C4    C     C_R   0.093416 0.314431 0.537727 -0.150535
C5    C     C_R   0.257139 0.943493 0.534026 -0.066407
C6    C     C_R   0.674340 0.675004 0.179746 0.074713
C7    C     C_R   0.284711 0.963299 0.460995 0.043362
C8    C     C_R   0.998987 0.707177 0.577574 -0.029175
C9    C     C_R   0.998357 0.981446 0.177118 0.028821
C10   C     C_R   0.514765 0.653892 0.512725 -0.102885
C11   C     C_R   0.460723 0.682537 0.441830 -0.157121
C12   C     C_R   0.002017 0.322796 0.502824 0.046763
C13   C     C_R   0.480589 0.789211 0.482269 0.058252
C14   C     C_R   0.547826 0.863783 0.592814 -0.231240
C15   C     C_R   0.609080 0.838897 0.660691 0.507555
C16   C     C_R   0.304885 0.205839 0.794255 0.377243
C17   C     C_R   0.591644 0.732970 0.621579 -0.237721
C18   C     C_R   0.349519 0.837053 0.404354 0.231920
C19   C     C_R   0.354999 0.937594 0.426834 0.007676
C20   C     C_R   0.437594 0.019931 0.427726 -0.034448
C21   C     C_R   0.511071 0.000185 0.405818 -0.154178
C22   C     C_R   0.522254 0.913013 0.407934 0.045464
C23   C     C_R   0.369447 0.298297 0.795760 -0.036899
C24   C     C_R   0.443255 0.832949 0.413823 0.010792
C25   C     C_R   0.463946 0.186149 0.411583 -0.293528
C26   C     C_R   0.507369 0.298952 0.459512 0.554275
C27   C     C_R   0.559109 0.362660 0.571364 -0.178350
C28   C     C_R   0.695220 0.989946 0.400505 0.413523
C29   C     C_R   0.566860 0.313635 0.635381 -0.165435
C30   C     C_R   0.520966 0.200746 0.587642 -0.117908
C31   C     C_R   0.469256 0.136283 0.475417 0.071705
C32   C     C_R   0.049573 0.329627 0.232010 -0.152823
C33   C     C_R   0.060755 0.378925 0.333219 -0.172235
C34   C     C_R   0.631093 0.929180 0.430125 -0.035760
C35   C     C_R   0.974471 0.388370 0.341053 0.123738
C36   C     C_R   0.876425 0.345962 0.246579 -0.165674
C37   C     C_R   0.865090 0.296400 0.145601 -0.121259
C38   C     C_R   0.952198 0.289269 0.137681 0.301030
C39   C     C_R   0.987622 0.547089 0.468157 -0.209291
C40   C     C_R   0.304533 0.297078 0.704644 0.267807
C41   C     C_R   0.997171 0.608935 0.564671 0.073071
C42   C     C_R   0.007600 0.577518 0.643267 0.016466
C43   C     C_R   0.011125 0.481827 0.623906 0.222717
C44   C     C_R   0.003208 0.421750 0.526029 0.018846
C45   C     C_R   0.723692 0.685888 0.279799 -0.147182
C46   C     C_R   0.989596 0.452816 0.447213 -0.008122
C47   C     C_R   0.105969 0.700750 0.841898 -0.146196
C48   C     C_R   0.103036 0.730399 0.937303 -0.203927
C49   C     C_R   0.002987 0.700203 0.933526 -0.149489
C50   C     C_R   0.905283 0.639795 0.834254 0.506018
C51   C     C_R   0.907473 0.608963 0.738364 -0.217014
C52   C     C_R   0.695349 0.901581 0.492475 -0.150879
C53   C     C_R   0.007897 0.637641 0.741649 0.090175
C54   C     C_2   0.541776 0.472916 0.889671 -0.115021
C55   C     C_2   0.486487 0.373797 0.875830 -0.120018
C56   C     C_R   0.250303 0.030232 0.438850 -0.121890
C57   C     C_2   0.624115 0.564648 0.997541 -0.087148
C58   C     C_2   0.605172 0.573475 0.078854 -0.186521
C59   C     C_R   0.400180 0.087679 0.076175 -0.137074
C60   C     C_R   0.290058 0.014833 0.033970 -0.292290
C61   C     C_R   0.214744 0.049879 0.023038 0.006659
C62   C     C_R   0.251933 0.161881 0.055426 0.231677
C63   C     C_R   0.364368 0.235892 0.096728 0.216045
C64   C     C_R   0.908995 0.221740 0.445029 -0.077461
C65   C     C_R   0.438138 0.197504 0.107982 0.566319
C66   C     C_R   0.091195 0.966735 0.076639 -0.234235
C67   C     C_R   0.089887 0.794806 0.599510 -0.223178
C68   C     C_R   0.993233 0.946481 0.074729 0.028745
C69   C     C_R   0.895363 0.897756 0.976237 0.077718
C70   C     C_R   0.901713 0.871765 0.883907 -0.133606
C71   C     C_R   0.003472 0.923100 0.891875 0.031700
C72   C     C_R   0.101521 0.971913 0.991662 0.093998
C73   C     C_R   0.689639 0.794232 0.891238 -0.258881
C74   C     C_R   0.590683 0.791552 0.871364 0.209769
C75   C     C_R   0.594021 0.887196 0.930481 0.561819
C76   C     C_R   0.090630 0.997249 0.797205 -0.092744
C77   C     C_R   0.695174 0.983793 0.006918 -0.178995
C78   C     C_R   0.910236 0.942374 0.189842 -0.205188
C79   C     C_R   0.792947 0.986496 0.023857 -0.158974
C80   C     C_R   0.791467 0.891682 0.966281 0.123256
C81   C     C_R   0.001212 0.942553 0.803465 0.028739
C82   C     C_3   0.182223 0.163571 0.302196 -1.009173
C83   C     C_3   0.647254 0.805994 0.118306 -0.908943
C84   C     C_3   0.254463 0.741204 0.388166 -0.991560
C85   C     C_3   0.942680 0.241188 0.029749 -0.932335
C86   C     C_3   0.020120 0.443817 0.706300 -0.949138
C87   C     C_3   0.173768 0.203740 0.047034 -0.977764
C88   C     C_3   0.403826 0.354316 0.127653 -0.814694
C89   C     C_R   0.090448 0.060405 0.278786 0.273927
C90   C     C_3   0.345148 0.351431 0.648456 -1.026648
C91   C     C_3   0.482954 0.687064 0.787858 -0.948816
Cl1   Cl    Cl    0.777475 0.631944 0.490782 -0.677077
Cl2   Cl    Cl    0.721073 0.949438 0.784952 -0.748621
Cl3   Cl    Cl    0.499343 0.361059 0.379941 -0.666221
Cl4   Cl    Cl    0.358604 0.142614 0.856615 -0.696514
Cl5   Cl    Cl    0.780010 0.594999 0.830537 -0.799829
Cl6   Cl    Cl    0.644132 0.003855 0.285976 -0.732389
Cl7   Cl    Cl    0.578935 0.282932 0.159461 -0.631718
Cl8   Cl    Cl    0.473054 0.888510 0.910837 -0.657844
H1    H     H_    0.823449 0.852484 0.678208 0.137742
H2    H     H_    0.563884 0.946642 0.623398 0.167304
H3    H     H_    0.575432 0.068016 0.412698 0.185892
H4    H     H_    0.427003 0.137494 0.325190 0.164913
H5    H     H_    0.593133 0.449985 0.608514 0.195034
H6    H     H_    0.607296 0.362897 0.722027 0.202055
H7    H     H_    0.528615 0.163874 0.638189 0.144677
H8    H     H_    0.117871 0.325677 0.227339 0.129106
H9    H     H_    0.137826 0.413094 0.405293 0.128287
H10   H     H_    0.809721 0.353742 0.251561 0.208085
H11   H     H_    0.789095 0.265485 0.073884 0.165708
H12   H     H_    0.260300 0.060395 0.386294 0.128413
H13   H     H_    0.979167 0.573376 0.408625 0.143746
H14   H     H_    0.183731 0.720257 0.845828 0.162816
H15   H     H_    0.178032 0.773923 0.014329 0.148547
H16   H     H_    0.001338 0.722202 0.007701 0.153032
H17   H     H_    0.830943 0.556381 0.661669 0.199730
H18   H     H_    0.514844 0.495256 0.829571 0.164904
H19   H     H_    0.521144 0.357601 0.940000 0.204741
H20   H     H_    0.690694 0.632982 0.006650 0.165345
H21   H     H_    0.537951 0.507140 0.070982 0.149400
H22   H     H_    0.456680 0.058332 0.084513 0.226939
H23   H     H_    0.174686 0.822608 0.652152 0.172753
H24   H     H_    0.264207 0.930935 0.011304 0.183163
H25   H     H_    0.164295 0.995777 0.150270 0.147337
H26   H     H_    0.826278 0.828282 0.808251 0.155767
H27   H     H_    0.687230 0.721082 0.846098 0.199302
H28   H     H_    0.698124 0.057410 0.052613 0.183810
H29   H     H_    0.870050 0.062628 0.081924 0.150821
H30   H     H_    0.670114 0.840416 0.514323 0.159203
H31   H     H_    0.825144 0.201766 0.404518 0.177698
H32   H     H_    0.172331 0.014713 0.842011 0.179239
H33   H     H_    0.708048 0.621322 0.299065 0.199191
H34   H     H_    0.829403 0.876250 0.129017 0.147725
H35   H     H_    0.253162 0.156014 0.305726 0.251193
H36   H     H_    0.152430 0.183163 0.237797 0.260462
H37   H     H_    0.209815 0.233027 0.379366 0.251937
H38   H     H_    0.628028 0.758065 0.035603 0.224028
H39   H     H_    0.568721 0.784592 0.117212 0.289158
H40   H     H_    0.692968 0.894216 0.145933 0.281372
H41   H     H_    0.275490 0.738470 0.464239 0.253817
H42   H     H_    0.178602 0.744990 0.360126 0.252212
H43   H     H_    0.235868 0.663949 0.324956 0.253910
H44   H     H_    0.948668 0.167285 0.013637 0.262771
H45   H     H_    0.274996 0.896911 0.570978 0.130906
H46   H     H_    0.862928 0.217437 0.963707 0.280273
H47   H     H_    0.009810 0.301784 0.028910 0.247005
H48   H     H_    0.951644 0.433872 0.721731 0.259434
H49   H     H_    0.016381 0.364609 0.681020 0.251082
H50   H     H_    0.099416 0.504940 0.782891 0.249861
H51   H     H_    0.169285 0.236674 0.991105 0.258148
H52   H     H_    0.089428 0.140073 0.016549 0.255800
H53   H     H_    0.202699 0.269091 0.127682 0.249989
H54   H     H_    0.493078 0.404487 0.161148 0.279969
H55   H     H_    0.361069 0.359267 0.055499 0.213747
H56   H     H_    0.639642 0.712510 0.673229 0.161404
H57   H     H_    0.386579 0.392264 0.190223 0.260865
H58   H     H_    0.357104 0.434299 0.680150 0.239611
H59   H     H_    0.422740 0.356418 0.659278 0.266286
H60   H     H_    0.285710 0.303019 0.560711 0.253227
H61   H     H_    0.433495 0.699951 0.725581 0.277035
H62   H     H_    0.495226 0.620958 0.746848 0.235702
H63   H     H_    0.436968 0.660229 0.826636 0.263825
H64   H     H_    0.501716 0.572404 0.482311 0.200806
H65   H     H_    0.407501 0.623894 0.356409 0.136172
H66   H     H_    0.177477 0.379776 0.581565 0.132933
N1    N     N_R   0.941940 0.944580 0.650780 -0.054029
N2    N     N_R   0.204460 0.150250 0.707090 -0.097470
N3    N     N_R   0.794270 0.003240 0.446420 -0.082358
N4    N     N_R   0.204920 0.207570 0.650770 -0.084340
N5    N     N_R   0.793810 0.945920 0.502740 -0.065662
N6    N     N_R   0.943620 0.152590 0.446420 -0.041643
N7    N     N_R   0.055110 0.000900 0.707100 -0.049745
N8    N     N_R   0.795080 0.792430 0.349230 -0.060577
N9    N     N_R   0.206190 0.054080 0.497260 -0.045812
N10   N     N_R   0.056380 0.847410 0.553580 -0.065694
N11   N     N_R   0.944890 0.999100 0.292900 -0.046571
N12   N     N_R   0.058060 0.055420 0.349220 -0.057249
N13   N     N_R   0.943200 0.791100 0.497260 -0.092418
N14   N     N_R   0.795540 0.849750 0.292910 -0.055989
N15   N     N_R   0.205730 0.996760 0.553580 -0.035729
N16   N     N_R   0.056800 0.208900 0.502740 -0.044957
Ni1   Ni    Ni4+2 0.869690 0.869690 0.500000 0.253296
Ni2   Ni    Ni4+2 0.130310 0.130310 0.500000 0.204015
Ni3   Ni    Ni4+2 0.129250 0.998840 0.629170 0.260367
Ni4   Ni    Ni4+2 0.870750 0.001160 0.370830 0.255695

loop_
_geom_bond_atom_site_label_1
_geom_bond_atom_site_label_2
_ccdc_geom_bond_type
C28   Cl6   S    
C26   Cl3   S    
C66   C68   A    
C79   H29   S    
C63   C65   A    
C25   C31   A    
C10   H64   S    
C6    C45   A    
C63   C88   S    
C27   C29   A    
C41   C42   A    
C6    C58   S    
C35   C36   A    
N1    Ni1   S    
C3    C6    A    
C86   H48   S    
C85   H44   S    
C83   H40   S    
N11   Ni4   S    
C39   C41   A    
N5    Ni1   S    
N1    N7    A    
C26   C27   A    
C29   C30   A    
C82   C89   S    
C18   C24   A    
C52   H30   S    
C88   H57   S    
C36   C37   A    
C85   H46   S    
C65   Cl7   S    
C76   C81   A    
C42   C53   S    
C30   C31   A    
C12   C64   A    
C76   H32   S    
N8    N14   A    
C16   N2    A    
C1    C81   A    
C23   C40   A    
C64   N6    A    
C27   H5    S    
C90   H60   S    
C4    H66   S    
C47   H14   S    
C18   C19   A    
C73   C74   A    
C82   H36   S    
C76   N7    A    
C3    N14   A    
N4    Ni2   S    
C66   C72   A    
N2    Ni3   S    
C67   N10   A    
C68   C69   A    
C87   H51   S    
C18   C84   S    
C91   H63   S    
C70   C71   A    
C89   N12   A    
C4    N16   A    
C4    C12   A    
C56   H12   S    
C77   H28   S    
C47   C53   A    
N16   Ni2   S    
C28   C34   A    
C59   C60   A    
C87   H52   S    
C13   C14   A    
C30   H7    S    
C78   N11   A    
C29   H6    S    
C61   C62   A    
C33   H9    S    
C7    C56   A    
C1    H1    S    
C75   Cl8   S    
C40   N4    A    
C44   C46   A    
N10   N13   A    
C77   C79   A    
C22   C34   S    
C74   C75   A    
N6    Ni4   S    
C38   C85   S    
C8    C41   S    
N2    N4    A    
C86   H50   S    
C9    C89   A    
C5    C7    A    
C25   H4    S    
C5    H45   S    
C25   C26   A    
N12   Ni2   S    
C32   H8    S    
C79   C80   A    
C13   C24   S    
C56   N9    A    
C60   C61   A    
C51   C53   A    
C88   H55   S    
C74   C91   S    
C82   H35   S    
C60   H24   S    
C43   C44   A    
C5    N15   A    
C37   C38   A    
C45   N8    A    
N7    Ni3   S    
C47   C48   A    
C84   H43   S    
C20   C21   A    
C62   C63   A    
C58   H21   S    
C50   C51   A    
C37   H11   S    
C85   H47   S    
C2    Cl1   S    
C75   C77   A    
C91   H61   S    
N13   Ni1   S    
C8    C67   A    
C39   C46   A    
C21   H3    S    
C70   H26   S    
N11   N12   A    
C49   H16   S    
C64   H31   S    
N8    Ni1   S    
C16   C23   A    
C32   C38   A    
C87   H53   S    
C3    C83   S    
C22   C24   A    
C42   C43   A    
C52   N5    A    
C10   C17   A    
C17   H56   S    
C67   H23   S    
N9    N15   A    
C83   H38   S    
C61   C72   S    
C48   H15   S    
C15   C17   A    
C54   C55   D    
C48   C49   A    
C16   Cl4   S    
N3    Ni4   S    
C43   C86   S    
C34   C52   A    
N6    N16   A    
C2    C8    A    
C55   H19   S    
C14   H2    S    
C86   H49   S    
N9    Ni2   S    
C15   Cl2   S    
C23   C55   S    
N14   Ni4   S    
C71   C81   S    
C62   C87   S    
C7    C19   S    
C51   H17   S    
C57   H20   S    
C88   H54   S    
C19   C20   A    
C73   H27   S    
C9    C68   S    
C71   C72   A    
C12   C44   S    
C32   C33   A    
C11   C13   A    
C50   Cl5   S    
C57   C58   D    
C84   H42   S    
C90   H58   S    
N3    N5    A    
C11   H65   S    
C33   C35   A    
C73   C80   A    
C66   H25   S    
C9    C78   A    
C82   H37   S    
C69   C70   A    
C78   H34   S    
C10   C11   A    
C28   N3    A    
C59   H22   S    
C90   H59   S    
C84   H41   S    
C45   H33   S    
C49   C50   A    
C54   H18   S    
C36   H10   S    
C14   C15   A    
C91   H62   S    
C69   C80   S    
C2    N13   A    
C40   C90   S    
C21   C22   A    
C35   C46   S    
C54   C57   S    
C83   H39   S    
C59   C65   A    
N15   Ni3   S    
C1    N1    A    
N10   Ni3   S    
C39   H13   S    
C20   C31   S    
