data_mof_unit_39998.cif
_audit_creation_date              2012-12-10T18:46:21-0500
_audit_creation_method            fapswitch 2.2
_symmetry_space_group_name_H-M    P1
_symmetry_Int_Tables_number       1
_space_group_crystal_system       triclinic
_cell_length_a                    9.836306
_cell_length_b                    10.713661
_cell_length_c                    13.130385
_cell_angle_alpha                 90.09977
_cell_angle_beta                  69.62547
_cell_angle_gamma                 90.009426
_cell_volume                      1297.14553785

loop_
_atom_site_label
_atom_site_type_symbol
_atom_type_description
_atom_site_fract_x
_atom_site_fract_y
_atom_site_fract_z
_atom_type_partial_charge
C1    C     C_R   0.499945 0.740144 0.500219 0.874565
C2    C     C_R   0.431560 0.475217 0.985175 0.088278
C3    C     C_R   0.460023 0.441238 0.876206 0.048660
C4    C     C_R   0.543685 0.461684 0.028499 0.090170
C5    C     C_R   0.672295 0.395543 0.970172 0.173616
C6    C     C_R   0.688926 0.345717 0.868550 -0.260017
C7    C     C_R   0.583905 0.367639 0.822242 -0.187478
C8    C     C_R   0.531592 0.513743 0.128262 -0.262820
C9    C     C_R   0.757979 0.419457 0.121316 -0.208528
C10   C     C_R   0.364532 0.482812 0.823855 -0.151068
C11   C     C_R   0.607739 0.936165 0.526043 -0.190691
C12   C     C_R   0.418960 0.493715 0.704779 0.878565
C13   C     C_R   0.607692 0.064073 0.526049 -0.202267
C14   C     C_R   0.499707 0.127458 0.500470 -0.010643
C15   C     C_R   0.391537 0.063870 0.475204 -0.191898
C16   C     C_R   0.391533 0.935993 0.475264 -0.197118
C17   C     C_R   0.499750 0.872580 0.500524 -0.015030
C18   C     C_R   0.960873 0.426262 0.429197 -0.090557
C19   C     C_R   0.104763 0.426225 0.429261 -0.075370
C20   C     C_R   0.039060 0.573624 0.570905 -0.090284
C21   C     C_R   0.895162 0.573620 0.570872 -0.061973
C22   C     C_R   0.499902 0.259864 0.500106 0.856027
C23   C     C_R   0.580704 0.499894 0.295443 0.874901
C24   C     C_R   0.780380 0.377568 0.016000 -0.214903
C25   C     C_R   0.630485 0.484242 0.178353 -0.060651
C26   C     C_R   0.224845 0.527937 0.886720 0.113246
C27   C     C_R   0.188737 0.541493 0.998864 -0.184650
C28   C     C_R   0.291542 0.519453 0.047114 -0.231401
H1    H     H_    0.835918 0.396125 0.159675 0.151572
H2    H     H_    0.691089 0.112973 0.546660 0.152979
H3    H     H_    0.308089 0.112577 0.454598 0.152983
H4    H     H_    0.308047 0.887147 0.454733 0.156302
H5    H     H_    0.932564 0.367410 0.372567 0.124069
H6    H     H_    0.185515 0.367188 0.372698 0.130086
H7    H     H_    0.067366 0.632522 0.627495 0.139604
H8    H     H_    0.814396 0.632608 0.627467 0.132877
H9    H     H_    0.783833 0.290954 0.824263 0.146693
H10   H     H_    0.878561 0.326391 0.972508 0.137964
H11   H     H_    0.441719 0.573693 0.171417 0.150470
H12   H     H_    0.256667 0.533383 0.133852 0.142301
H13   H     H_    0.081835 0.573570 0.048899 0.144892
H14   H     H_    0.599700 0.324384 0.744448 0.169235
H15   H     H_    0.691190 0.887424 0.546618 0.152640
N1    N     N_R   0.142790 0.500030 0.500030 -0.077301
N2    N     N_R   0.857180 0.499940 0.500010 -0.077244
O1    O     O_R   0.385370 0.683250 0.500010 -0.621189
O2    O     O_R   0.614700 0.683220 0.500010 -0.621872
O3    O     O_R   0.328400 0.499990 0.653620 -0.592088
O4    O     O_R   0.557730 0.499960 0.653620 -0.619669
O5    O     O_R   0.385300 0.316780 0.499990 -0.624509
O6    O     O_R   0.614630 0.316750 0.499990 -0.631769
O7    O     O_R   0.442270 0.500040 0.346380 -0.617058
O8    O     O_R   0.671600 0.500010 0.346380 -0.615220
Zn1   Zn    Zn3+2 0.346870 0.500020 0.500000 0.943550
Zn2   Zn    Zn3+2 0.653130 0.499980 0.500000 0.936086
N3    N     N_3   0.121012 0.561601 0.836883 -0.444093
H16   H     H_    0.032255 0.607723 0.892438 0.178150
H17   H     H_    0.080787 0.478653 0.816248 0.188878

loop_
_geom_bond_atom_site_label_1
_geom_bond_atom_site_label_2
_ccdc_geom_bond_type
C24   H10   S    
C9    C24   A    
C11   H15   S    
C6    C7    A    
C8    H11   S    
C2    C3    A    
C16   H4    S    
C27   H13   S    
C1    C17   S    
C12   O3    A    
C9    H1    S    
C4    C8    A    
O1    Zn1   S    
O8    Zn2   S    
C12   O4    A    
C23   O7    A    
C6    H9    S    
C9    C25   A    
C21   H8    S    
O4    Zn2   S    
C13   C14   A    
C19   N1    A    
O3    Zn1   S    
C8    C25   A    
C11   C13   A    
C14   C22   S    
C26   C27   A    
O5    Zn1   S    
C5    C24   A    
C10   C12   S    
C2    C4    A    
C1    O2    A    
C20   N1    A    
O7    Zn1   S    
C23   O8    A    
C3    C7    A    
C21   N2    A    
C23   C25   S    
C5    C6    A    
C18   H5    S    
C1    O1    A    
C22   O6    A    
C28   H12   S    
C15   C16   A    
C18   N2    A    
N1    Zn1   S    
C22   O5    A    
N3    H16   S    
N2    Zn2   S    
O2    Zn2   S    
C18   C19   A    
C7    H14   S    
C27   C28   A    
C3    C10   A    
C14   C15   A    
C4    C5    A    
C2    C28   A    
O6    Zn2   S    
C20   C21   A    
C13   H2    S    
C20   H7    S    
C15   H3    S    
C10   C26   A    
C11   C17   A    
N3    H17   S    
C16   C17   A    
C19   H6    S    
C26   N3    S    
