data_mof_unit_22037.cif
_audit_creation_date              2012-12-10T18:53:05-0500
_audit_creation_method            fapswitch 2.2
_symmetry_space_group_name_H-M    P1
_symmetry_Int_Tables_number       1
_space_group_crystal_system       triclinic
_cell_length_a                    9.892851
_cell_length_b                    10.681438
_cell_length_c                    16.830631
_cell_angle_alpha                 90.868732
_cell_angle_beta                  84.289374
_cell_angle_gamma                 89.211611
_cell_volume                      1769.25247255

loop_
_atom_site_label
_atom_site_type_symbol
_atom_type_description
_atom_site_fract_x
_atom_site_fract_y
_atom_site_fract_z
_atom_type_partial_charge
C1    C     C_R   0.499370 0.739904 0.500407 0.867986
C2    C     C_R   0.500647 0.260089 0.499519 0.872962
C3    C     C_R   0.606356 0.935188 0.530787 -0.157537
C4    C     C_R   0.393761 0.064773 0.468958 -0.158769
C5    C     C_R   0.607525 0.063470 0.529952 -0.141260
C6    C     C_R   0.392629 0.936477 0.469755 -0.144111
C7    C     C_R   0.501233 0.127570 0.499075 -0.048356
C8    C     C_R   0.498852 0.872398 0.500713 -0.045466
C9    C     C_R   0.937341 0.402182 0.466107 0.033359
C10   C     C_R   0.062616 0.598217 0.533453 0.030506
C11   C     C_R   0.080389 0.402609 0.467061 -0.120435
C12   C     C_R   0.919536 0.597389 0.532899 -0.121971
C13   C     C_R   0.480207 0.500899 0.653183 0.887351
C14   C     C_R   0.519639 0.506457 0.347296 0.887434
C15   C     C_R   0.466890 0.515444 0.739712 -0.073967
C16   C     C_R   0.532245 0.544591 0.264482 -0.068681
C17   C     C_R   0.583784 0.513020 0.779767 -0.193084
C18   C     C_R   0.423431 0.608790 0.235914 -0.192115
C19   C     C_R   0.575180 0.541079 0.860260 -0.145231
C20   C     C_R   0.434997 0.652302 0.158941 -0.151911
C21   C     C_R   0.449860 0.573899 0.902380 0.092645
C22   C     C_R   0.553750 0.628711 0.108104 0.090541
C23   C     C_R   0.329700 0.574298 0.863081 -0.025919
C24   C     C_R   0.668279 0.570540 0.137520 -0.010538
C25   C     C_R   0.340086 0.542863 0.781673 -0.208288
C26   C     C_R   0.655749 0.530238 0.216652 -0.221263
C27   C     C_2   0.445577 0.591167 0.988725 -0.146035
C28   C     C_2   0.545924 0.647105 0.022992 -0.181226
H1    H     H_    0.682641 0.490361 0.748870 0.177958
H2    H     H_    0.329085 0.626152 0.273172 0.173709
H3    H     H_    0.740684 0.483683 0.240396 0.222802
H4    H     H_    0.249820 0.544256 0.750262 0.234928
H5    H     H_    0.628719 0.691817 0.987434 0.185416
H6    H     H_    0.364552 0.545164 0.025190 0.176875
H7    H     H_    0.348083 0.699045 0.137402 0.178875
H8    H     H_    0.667200 0.534654 0.889764 0.200068
H9    H     H_    0.688320 0.885367 0.555451 0.166982
H10   H     H_    0.311787 0.114604 0.444313 0.166865
H11   H     H_    0.689679 0.112302 0.554424 0.186223
H12   H     H_    0.310532 0.887618 0.445241 0.184506
H13   H     H_    0.141948 0.325675 0.440079 0.156027
H14   H     H_    0.857914 0.674385 0.559752 0.155976
N1    N     N_R   0.142790 0.500030 0.500020 -0.123166
N2    N     N_R   0.857210 0.499970 0.499980 -0.122857
O1    O     O_R   0.385380 0.683250 0.500010 -0.614959
O2    O     O_R   0.614620 0.316750 0.499990 -0.613149
O3    O     O_R   0.614710 0.683220 0.500000 -0.627170
O4    O     O_R   0.385290 0.316780 0.500000 -0.625629
O5    O     O_R   0.371780 0.500040 0.615800 -0.567581
O6    O     O_R   0.628220 0.499960 0.384200 -0.562177
O7    O     O_R   0.601110 0.500010 0.615800 -0.630784
O8    O     O_R   0.398890 0.499990 0.384200 -0.630943
Zn1   Zn    Zn3+2 0.346870 0.500020 0.500000 0.986481
Zn2   Zn    Zn3+2 0.653130 0.499980 0.500000 0.989988
C29   C     C_2   0.193627 0.611537 0.903249 0.898437
O9    O     O_2   0.183307 0.674097 0.965066 -0.629074
O10   O     O_R   0.076282 0.578280 0.868435 -0.791193
H15   H     H_    0.990236 0.612113 0.899583 0.375632
C30   C     C_2   0.799313 0.544468 0.088036 0.914658
O11   O     O_2   0.803815 0.533641 0.015489 -0.665938
O12   O     O_R   0.918610 0.529121 0.125295 -0.789736
H16   H     H_    0.001149 0.511191 0.085831 0.363337
C31   C     C_2   0.879515 0.294276 0.426696 0.935865
O13   O     O_2   0.906439 0.188165 0.447121 -0.644953
O14   O     O_R   0.802084 0.312267 0.362835 -0.778234
H17   H     H_    0.769775 0.230648 0.340282 0.335280
C32   C     C_2   0.120288 0.707809 0.571199 0.935310
O15   O     O_2   0.090772 0.813067 0.550358 -0.645031
O16   O     O_R   0.200749 0.692486 0.633898 -0.782875
H18   H     H_    0.232435 0.775081 0.655405 0.336631

loop_
_geom_bond_atom_site_label_1
_geom_bond_atom_site_label_2
_ccdc_geom_bond_type
C6    C8    A    
C29   O9    D    
C31   O14   S    
C23   C29   S    
C19   C21   A    
C18   H2    S    
C14   C16   S    
C1    C8    S    
C17   H1    S    
C6    H12   S    
C2    C7    S    
C3    C5    A    
O7    Zn2   S    
O2    Zn2   S    
C25   H4    S    
C5    H11   S    
C21   C27   S    
C5    C7    A    
O1    Zn1   S    
C30   O11   D    
C12   N2    A    
C29   O10   S    
C22   C28   S    
C10   C32   S    
C2    O2    A    
C11   N1    A    
C9    C11   A    
C24   C26   A    
C1    O1    A    
O10   H15   S    
O6    Zn2   S    
C10   C12   A    
C24   C30   S    
O5    Zn1   S    
C22   C24   A    
O16   H18   S    
C17   C19   A    
C4    H10   S    
C28   H5    S    
C3    C8    A    
C18   C20   A    
C19   H8    S    
C13   C15   S    
C27   H6    S    
C16   C26   A    
O4    Zn1   S    
C13   O5    A    
C30   O12   S    
C15   C25   A    
O12   H16   S    
C14   O6    A    
C32   O15   D    
N2    Zn2   S    
C26   H3    S    
C23   C25   A    
O8    Zn1   S    
C3    H9    S    
C4    C6    A    
O14   H17   S    
C11   H13   S    
C27   C28   D    
C15   C17   A    
C4    C7    A    
C1    O3    A    
C9    N2    A    
C12   H14   S    
C2    O4    A    
C10   N1    A    
C13   O7    A    
C9    C31   S    
N1    Zn1   S    
C21   C23   A    
C20   H7    S    
C16   C18   A    
C14   O8    A    
C31   O13   D    
O3    Zn2   S    
C20   C22   A    
C32   O16   S    
