data_mof_unit_44247.cif
_audit_creation_date              2012-12-11T15:31:40-0500
_audit_creation_method            fapswitch 2.2
_symmetry_space_group_name_H-M    P1
_symmetry_Int_Tables_number       1
_space_group_crystal_system       triclinic
_cell_length_a                    6.943776
_cell_length_b                    14.768514
_cell_length_c                    21.331875
_cell_angle_alpha                 74.977794
_cell_angle_beta                  90.087711
_cell_angle_gamma                 90.511866
_cell_volume                      2112.72367713

loop_
_atom_site_label
_atom_site_type_symbol
_atom_type_description
_atom_site_fract_x
_atom_site_fract_y
_atom_site_fract_z
_atom_type_partial_charge
O1    O     O_R   0.648150 0.130050 0.214300 -0.537628
O2    O     O_R   0.351850 0.869950 0.785700 -0.537629
O3    O     O_R   0.320490 0.006660 0.340150 -0.528201
O4    O     O_R   0.679510 0.993340 0.659850 -0.528201
O5    O     O_R   0.146100 0.869940 0.285700 -0.540029
O6    O     O_R   0.853900 0.130060 0.714300 -0.540029
C1    C     C_R   0.488645 0.001313 0.367154 0.816541
C2    C     C_R   0.511355 0.998687 0.632846 0.816541
O7    O     O_R   0.318690 0.137980 0.218120 -0.534134
O8    O     O_R   0.681310 0.862020 0.781880 -0.534134
O9    O     O_R   0.144280 0.002190 0.162800 -0.552536
O10   O     O_R   0.855720 0.997810 0.837200 -0.552536
C3    C     C_R   0.487667 0.175689 0.205760 0.758578
C4    C     C_R   0.512333 0.824310 0.794240 0.758579
O11   O     O_R   0.649960 0.997790 0.337200 -0.515599
O12   O     O_R   0.350040 0.002210 0.662800 -0.515599
O13   O     O_3   0.479300 0.955290 0.231990 -0.394016
O14   O     O_3   0.520700 0.044710 0.768010 -0.394016
V1    V     V_3+5 0.206040 0.008290 0.253340 1.529285
V2    V     V_3+5 0.793960 0.991710 0.746660 1.529285
O15   O     O_R   0.814320 0.993320 0.159850 -0.553608
O16   O     O_R   0.185680 0.006680 0.840150 -0.553607
C5    C     C_R   0.983084 0.998389 0.132837 0.641548
C6    C     C_R   0.016915 0.001611 0.867163 0.641548
O17   O     O_R   0.816120 0.862000 0.281880 -0.538656
O18   O     O_R   0.183880 0.138000 0.718120 -0.538656
C7    C     C_R   0.984210 0.824442 0.293054 0.759848
C8    C     C_R   0.015790 0.175558 0.706946 0.759847
V3    V     V_3+5 0.705540 0.991700 0.246660 1.494977
V4    V     V_3+5 0.294460 0.008300 0.753340 1.494977
O19   O     O_3   0.982150 0.044700 0.268010 -0.343548
O20   O     O_3   0.017850 0.955300 0.731990 -0.343548
C9    C     C_R   0.987739 0.723715 0.322799 -0.077486
C10   C     C_R   0.012261 0.276285 0.677201 -0.077486
C11   C     C_R   0.917618 0.568402 0.311824 -0.128733
C12   C     C_R   0.082382 0.431597 0.688176 -0.128733
C13   C     C_R   0.953647 0.662783 0.283666 -0.237061
C14   C     C_R   0.046353 0.337217 0.716334 -0.237061
C15   C     C_R   0.997470 0.689571 0.390805 0.173426
C16   C     C_R   0.002530 0.310429 0.609195 0.173426
C17   C     C_R   0.989357 0.590933 0.419364 0.035187
C18   C     C_R   0.010643 0.409067 0.580636 0.035187
C19   C     C_R   0.928685 0.532781 0.379253 0.081064
C20   C     C_R   0.071315 0.467219 0.620747 0.081064
C21   C     C_R   0.027424 0.547765 0.486312 0.050179
C22   C     C_R   0.972576 0.452235 0.513688 0.050179
C23   C     C_R   0.873256 0.404864 0.473967 -0.089155
C24   C     C_R   0.126744 0.595136 0.526033 -0.089155
C25   C     C_R   0.865790 0.441396 0.407243 -0.116430
C26   C     C_R   0.134210 0.558604 0.592757 -0.116430
H1    H     H_    0.801141 0.399596 0.377694 0.187398
H2    H     H_    0.198859 0.600404 0.622306 0.187398
H3    H     H_    0.058882 0.310375 0.768500 0.111336
H4    H     H_    0.941118 0.689625 0.231500 0.111336
H5    H     H_    0.876327 0.523576 0.280971 0.139470
H6    H     H_    0.123673 0.476424 0.719029 0.139471
H7    H     H_    0.797731 0.339695 0.493784 0.194304
H8    H     H_    0.202269 0.660305 0.506216 0.194304
C27   C     C_3   0.820464 0.994884 0.977672 -0.118740
C28   C     C_3   0.179536 0.005116 0.022328 -0.118740
C29   C     C_3   0.914908 0.920222 0.033685 -0.145586
C30   C     C_3   0.085092 0.079778 0.966315 -0.145587
H9    H     H_    0.844671 0.854432 0.061834 0.099211
H10   H     H_    0.155329 0.145568 0.938166 0.099211
H11   H     H_    0.672041 0.990709 0.959104 0.105404
H12   H     H_    0.327959 0.009291 0.040896 0.105404
C31   C     C_3   0.992674 0.998962 0.062210 0.004117
C32   C     C_3   0.007326 0.001038 0.937790 0.004117
C33   C     C_3   0.898293 0.073640 0.006989 -0.137940
C34   C     C_3   0.101707 0.926360 0.993011 -0.137940
H13   H     H_    0.814141 0.134330 0.013163 0.095984
H14   H     H_    0.185859 0.865670 0.986837 0.095984
C35   C     C_3   0.623650 0.064056 0.467087 0.325277
C36   C     C_3   0.376350 0.935943 0.532913 0.325277
C37   C     C_3   0.451185 0.085096 0.506655 -0.163097
C38   C     C_3   0.548815 0.914904 0.493345 -0.163097
H15   H     H_    0.414278 0.155647 0.511951 0.203416
H16   H     H_    0.585722 0.844353 0.488049 0.203416
C39   C     C_3   0.504809 0.999343 0.562319 -0.152576
C40   C     C_3   0.495191 0.000657 0.437681 -0.152576
C41   C     C_3   0.678970 0.978986 0.523193 -0.131618
C42   C     C_3   0.321030 0.021014 0.476807 -0.131618
H17   H     H_    0.827031 0.962628 0.542100 0.206788
H18   H     H_    0.172969 0.037372 0.457900 0.206788
C43   C     C_R   0.494390 0.277653 0.178868 -0.093410
C44   C     C_R   0.505610 0.722347 0.821132 -0.093410
C45   C     C_R   0.447206 0.434466 0.190373 -0.197861
C46   C     C_R   0.552794 0.565534 0.809627 -0.197861
C47   C     C_R   0.458059 0.338303 0.218232 0.265274
C48   C     C_R   0.541941 0.661697 0.781767 0.265274
C49   C     C_R   0.516880 0.313741 0.111725 -0.272950
C50   C     C_R   0.483120 0.686259 0.888275 -0.272950
C51   C     C_R   0.499554 0.411051 0.081989 0.093505
C52   C     C_R   0.500446 0.588949 0.918011 0.093505
C53   C     C_R   0.465574 0.471055 0.123018 0.091300
C54   C     C_R   0.534426 0.528945 0.876982 0.091300
C55   C     C_R   0.511036 0.450482 0.013168 0.070764
C56   C     C_R   0.488964 0.549518 0.986832 0.070764
C57   C     C_R   0.457472 0.605795 0.030214 -0.189915
C58   C     C_R   0.542528 0.394205 0.969786 -0.189915
C59   C     C_R   0.446476 0.567183 0.096703 -0.188911
C60   C     C_R   0.553524 0.432817 0.903297 -0.188911
H19   H     H_    0.420840 0.613285 0.127919 0.121398
H20   H     H_    0.579160 0.386715 0.872080 0.121398
H21   H     H_    0.458723 0.736765 0.915805 0.102222
H22   H     H_    0.541277 0.263235 0.084195 0.102222
H23   H     H_    0.419693 0.480613 0.221402 0.147292
H24   H     H_    0.580306 0.519386 0.778598 0.147292
H25   H     H_    0.439705 0.680566 0.014571 0.115620
H26   H     H_    0.560295 0.319434 0.985429 0.115620
Br1   Br    Br    0.804624 0.156699 0.418968 -0.468093
Br2   Br    Br    0.195376 0.843301 0.581032 -0.468093
Br3   Br    Br    0.582413 0.707542 0.689956 -0.508078
Br4   Br    Br    0.417587 0.292458 0.310044 -0.508078
Br5   Br    Br    0.040452 0.218985 0.559390 -0.565117
Br6   Br    Br    0.959548 0.781014 0.440610 -0.565117

loop_
_geom_bond_atom_site_label_1
_geom_bond_atom_site_label_2
_ccdc_geom_bond_type
C29   C34   S    
C46   C54   A    
C58   H26   S    
C54   C60   A    
O13   V3    S    
O4    C2    A    
V1    O19   S    
C55   C56   A    
C43   C49   A    
C23   C25   A    
C21   C22   A    
C7    C9    S    
O9    V1    S    
C9    C15   A    
C36   C38   S    
C10   C16   A    
C11   C13   A    
C38   H16   S    
O3    C1    A    
C36   Br2   S    
C46   H24   S    
C16   Br5   S    
C23   H7    S    
C52   C56   A    
O12   V4    S    
C57   H25   S    
C28   C30   S    
C18   C22   A    
C48   Br3   S    
C5    C31   S    
C33   H13   S    
O7    C3    A    
C30   H10   S    
O5    C7    A    
O7    V1    S    
O6    C8    A    
C28   C31   S    
O8    V2    S    
C25   H1    S    
C45   C53   A    
C2    C39   S    
C26   H2    S    
O3    V1    S    
O14   V4    S    
C11   C19   A    
C2    O12   A    
C24   C26   A    
C28   H12   S    
C59   H19   S    
C17   C19   A    
C49   H22   S    
C18   C20   A    
C36   C42   S    
C35   C41   S    
C41   H17   S    
O11   V3    S    
O17   V3    S    
C27   C29   S    
C11   H5    S    
C35   Br1   S    
C4    C44   S    
C40   C42   S    
C44   C48   A    
C39   C41   S    
C43   C47   A    
C19   C25   A    
C1    O11   A    
O15   V3    S    
C9    C13   A    
C30   C33   S    
C31   C33   S    
C52   C54   A    
C12   H6    S    
C27   C32   S    
C49   C51   A    
C29   C31   S    
C28   C34   S    
O10   V2    S    
O1    V3    S    
C60   H20   S    
C37   H15   S    
C27   C33   S    
C13   H4    S    
C57   C59   A    
C46   C48   A    
C56   C57   A    
C42   H18   S    
C36   C39   S    
C45   C47   A    
O8    C4    A    
O16   C6    A    
C12   C20   A    
O1    C3    A    
C35   C37   S    
C12   C14   A    
C51   C55   A    
C55   C58   A    
C58   C60   A    
V2    O20   S    
C21   C24   A    
C20   C26   A    
C22   C23   A    
O16   V4    S    
C10   C14   A    
C29   H9    S    
C38   C40   S    
C16   C18   A    
C38   C41   S    
C37   C42   S    
C24   H8    S    
O5    V1    S    
O17   C7    A    
O6    V2    S    
O10   C6    A    
O18   C8    A    
C30   C32   S    
O2    V4    S    
O15   C5    A    
C47   Br4   S    
V3    O19   S    
C44   C50   A    
C27   H11   S    
V4    O20   S    
C50   C52   A    
C51   C53   A    
C14   H3    S    
O9    C5    A    
O13   V1    S    
C35   C40   S    
O14   V2    S    
O2    C4    A    
C6    C32   S    
C8    C10   S    
O4    V2    S    
C50   H21   S    
C45   H23   S    
C15   C17   A    
C32   C34   S    
C15   Br6   S    
C3    C43   S    
C17   C21   A    
C34   H14   S    
C37   C39   S    
C53   C59   A    
C1    C40   S    
O18   V4    S    
