data_mof_unit_19584.cif
_audit_creation_date              2012-12-10T17:13:34-0500
_audit_creation_method            fapswitch 2.2
_symmetry_space_group_name_H-M    P1
_symmetry_Int_Tables_number       1
_space_group_crystal_system       triclinic
_cell_length_a                    10.721276
_cell_length_b                    12.995553
_cell_length_c                    11.655422
_cell_angle_alpha                 99.961226
_cell_angle_beta                  93.828725
_cell_angle_gamma                 90.44423
_cell_volume                      1595.57874075

loop_
_atom_site_label
_atom_site_type_symbol
_atom_type_description
_atom_site_fract_x
_atom_site_fract_y
_atom_site_fract_z
_atom_type_partial_charge
C1    C     C_R   0.497118 0.299082 0.478505 0.804021
C2    C     C_3   0.878223 0.507241 0.501152 0.093110
C3    C     C_3   0.936390 0.560547 0.622874 -0.398219
C4    C     C_3   0.921418 0.570465 0.408834 -0.454067
C5    C     C_R   0.508806 0.814970 0.535409 -0.146626
C6    C     C_R   0.492210 0.185826 0.466241 -0.052485
C7    C     C_R   0.440103 0.015586 0.351314 -0.200878
C8    C     C_R   0.448316 0.123607 0.360342 -0.202146
C9    C     C_R   0.529083 0.139640 0.562501 -0.245894
C10   C     C_R   0.521915 0.031877 0.553882 0.107660
C11   C     C_R   0.476984 0.969276 0.447706 0.177720
C12   C     C_R   0.260031 0.504784 0.500753 0.792519
C13   C     C_R   0.470798 0.861417 0.439256 -0.335948
C14   C     C_R   0.552098 0.877850 0.642390 0.433385
C15   C     C_R   0.560032 0.986077 0.649846 -0.304398
C16   C     C_R   0.373608 0.409465 0.022296 -0.342472
C17   C     C_R   0.387442 0.416479 0.144316 0.062020
C18   C     C_R   0.555435 0.538296 0.156839 0.019431
C19   C     C_R   0.545989 0.532728 0.034061 0.070752
C20   C     C_R   0.453220 0.467935 0.966061 0.067510
C21   C     C_R   0.443348 0.462875 0.843331 0.005216
C22   C     C_R   0.614313 0.581707 0.855468 0.083073
C23   C     C_R   0.503707 0.701133 0.521766 0.841966
C24   C     C_R   0.627061 0.589703 0.977650 -0.356114
C25   C     C_R   0.740274 0.503901 0.500298 0.793581
C26   C     C_3   0.070471 0.395511 0.483173 -0.523940
C27   C     C_3   0.926459 0.394341 0.474048 -0.402366
C28   C     C_3   0.080540 0.568453 0.622184 -0.068586
C29   C     C_3   0.064267 0.561173 0.398772 0.350867
C30   C     C_3   0.122135 0.509658 0.501605 0.073413
Cu1   Cu    Cu3+1 0.509350 0.507730 0.615930 0.931484
Cu2   Cu    Cu3+1 0.490650 0.492270 0.384070 0.922484
H1    H     H_    0.104763 0.357114 0.557288 0.181987
H2    H     H_    0.895758 0.653800 0.433839 0.173332
H3    H     H_    0.894539 0.638764 0.647524 0.168311
H4    H     H_    0.437005 0.813715 0.357252 0.171569
H5    H     H_    0.404750 0.968467 0.269531 0.137200
H6    H     H_    0.597426 0.033945 0.730565 0.147841
H7    H     H_    0.418676 0.158475 0.285307 0.149784
H8    H     H_    0.563785 0.187488 0.644249 0.151869
H9    H     H_    0.372411 0.413094 0.790138 0.119163
H10   H     H_    0.104278 0.348799 0.402255 0.167448
H11   H     H_    0.677587 0.625572 0.812780 0.143135
H12   H     H_    0.301400 0.358579 0.972456 0.133181
H13   H     H_    0.700038 0.639734 0.027500 0.135031
H14   H     H_    0.325609 0.371168 0.186802 0.116042
H15   H     H_    0.625685 0.588776 0.210111 0.117279
H16   H     H_    0.891123 0.356770 0.384495 0.175476
H17   H     H_    0.891209 0.346712 0.536240 0.172128
H18   H     H_    0.120641 0.526234 0.691244 0.153264
H19   H     H_    0.912485 0.514127 0.690539 0.164696
H20   H     H_    0.080100 0.506853 0.315958 0.079970
H21   H     H_    0.873524 0.540848 0.321546 0.140700
N1    N     N_R   0.523430 0.519360 0.790130 -0.181037
N2    N     N_R   0.476570 0.480640 0.209880 -0.180835
O1    O     O_R   0.506640 0.354460 0.582000 -0.586574
O2    O     O_R   0.490840 0.341410 0.386200 -0.585930
O3    O     O_R   0.325590 0.506510 0.597900 -0.607564
O4    O     O_R   0.309790 0.493450 0.402100 -0.591615
O5    O     O_R   0.509160 0.658590 0.613800 -0.559294
O6    O     O_R   0.493360 0.645540 0.418000 -0.600781
O7    O     O_R   0.690210 0.506550 0.597900 -0.593062
O8    O     O_R   0.674410 0.493490 0.402100 -0.590280
C31   C     C_3   0.127678 0.683971 0.654211 -0.321124
C32   C     C_3   0.130198 0.723901 0.786316 -0.405533
C33   C     C_3   0.158195 0.841130 0.815195 -0.853162
H22   H     H_    0.245302 0.860380 0.776486 0.243019
H23   H     H_    0.079812 0.884669 0.780229 0.257287
H24   H     H_    0.169919 0.866200 0.911392 0.245791
H25   H     H_    0.038759 0.708046 0.820101 0.222606
H26   H     H_    0.203724 0.682423 0.831315 0.224867
H27   H     H_    0.223943 0.692136 0.626694 0.211811
H28   H     H_    0.066830 0.734567 0.607554 0.236530
O9    O     O_3   0.601008 0.833686 0.735130 -0.611287
C34   C     C_3   0.520369 0.850245 0.827744 0.057051
H29   H     H_    0.459342 0.779596 0.821219 0.181640
H30   H     H_    0.459003 0.919273 0.827629 0.115478
C35   C     C_3   0.598934 0.867001 0.944010 -0.322661
H31   H     H_    0.669830 0.805168 0.943221 0.218837
H32   H     H_    0.649243 0.943622 0.956034 0.210361
C36   C     C_3   0.517691 0.865182 0.046316 -0.947202
H33   H     H_    0.446410 0.926981 0.049174 0.251782
H34   H     H_    0.577174 0.879327 0.129422 0.258406
H35   H     H_    0.469987 0.787838 0.037912 0.266902
O10   O     O_3   0.121635 0.660317 0.399888 -0.631459
C37   C     C_3   0.105663 0.692149 0.289551 0.022145
H36   H     H_    0.109222 0.778946 0.305315 0.173977
H37   H     H_    0.012961 0.668105 0.243212 0.120475
C38   C     C_3   0.211330 0.651671 0.212319 -0.305592
H38   H     H_    0.302943 0.669463 0.262186 0.249802
H39   H     H_    0.201334 0.565752 0.185421 0.205696
C39   C     C_3   0.209245 0.701014 0.102611 -0.968828
H40   H     H_    0.117761 0.685111 0.051667 0.255498
H41   H     H_    0.284149 0.667102 0.047166 0.262121
H42   H     H_    0.225809 0.786798 0.126214 0.256261

loop_
_geom_bond_atom_site_label_1
_geom_bond_atom_site_label_2
_ccdc_geom_bond_type
C27   H16   S    
C33   H23   S    
C4    H21   S    
C19   C20   A    
C18   H15   S    
C6    C9    A    
C36   H33   S    
C7    C8    A    
C22   N1    A    
O10   C37   S    
C7    C11   A    
C26   C27   S    
C24   H13   S    
C14   O9    S    
Cu1   O3    S    
C3    C28   S    
C1    O1    A    
Cu2   O6    S    
C10   C15   A    
C21   N1    A    
C35   H32   S    
C33   H24   S    
C32   H25   S    
C18   C19   A    
C25   O8    A    
C12   O4    A    
C28   H18   S    
C22   H11   S    
C16   C17   A    
C31   H28   S    
C2    C27   S    
C8    H7    S    
Cu1   O1    S    
C38   H39   S    
C9    C10   A    
C17   N2    A    
Cu2   N2    S    
C29   O10   S    
C4    C29   S    
C12   O3    A    
C31   H27   S    
C33   H22   S    
Cu1   O7    S    
Cu2   O2    S    
C36   H34   S    
C23   O5    A    
C4    H2    S    
O9    C34   S    
C1    C6    S    
C17   H14   S    
C13   H4    S    
C3    H19   S    
C35   H31   S    
C6    C8    A    
C32   H26   S    
C9    H8    S    
Cu1   O5    S    
C2    C4    S    
C34   H29   S    
C15   H6    S    
C29   C30   S    
C1    O2    A    
C26   H1    S    
Cu1   Cu2   S    
C5    C23   S    
C3    H3    S    
C16   C20   A    
C39   H41   S    
C7    H5    S    
C38   C39   S    
C34   H30   S    
C5    C14   A    
C18   N2    A    
C21   H9    S    
C28   C31   S    
C26   C30   S    
C22   C24   A    
C36   H35   S    
C26   H10   S    
C16   H12   S    
C12   C30   S    
C37   H36   S    
C5    C13   A    
Cu2   O8    S    
C37   C38   S    
C31   C32   S    
C28   C30   S    
C2    C3    S    
C11   C13   A    
C35   C36   S    
C39   H40   S    
C19   C24   A    
C2    C25   S    
C37   H37   S    
C25   O7    A    
C39   H42   S    
Cu1   N1    S    
C34   C35   S    
C10   C11   A    
C23   O6    A    
C20   C21   A    
C32   C33   S    
C14   C15   A    
Cu2   O4    S    
C38   H38   S    
C27   H17   S    
C29   H20   S    
