data_mof_unit_56796.cif
_audit_creation_date              2012-12-10T19:07:00-0500
_audit_creation_method            fapswitch 2.2
_symmetry_space_group_name_H-M    P1
_symmetry_Int_Tables_number       1
_space_group_crystal_system       triclinic
_cell_length_a                    27.814951
_cell_length_b                    10.843413
_cell_length_c                    9.575712
_cell_angle_alpha                 89.379777
_cell_angle_beta                  89.395424
_cell_angle_gamma                 90.860799
_cell_volume                      2887.45999644

loop_
_atom_site_label
_atom_site_type_symbol
_atom_type_description
_atom_site_fract_x
_atom_site_fract_y
_atom_site_fract_z
_atom_type_partial_charge
C1    C     C_R   0.500097 0.262529 0.500464 0.803909
C2    C     C_R   0.277594 0.423142 0.584841 -0.204782
C3    C     C_R   0.253986 0.505805 0.497080 0.272763
C4    C     C_R   0.102162 0.506293 0.490913 -0.043436
C5    C     C_R   0.127625 0.404670 0.439887 -0.028767
C6    C     C_R   0.102341 0.303627 0.387106 -0.143807
C7    C     C_R   0.128001 0.608183 0.543129 -0.029332
C8    C     C_R   0.354827 0.502547 0.500529 -0.109771
C9    C     C_R   0.645501 0.499155 0.497455 -0.034091
C10   C     C_R   0.974420 0.398631 0.444278 0.042063
C11   C     C_R   0.974869 0.611430 0.534338 0.042122
C12   C     C_R   0.407650 0.500154 0.500444 0.912880
C13   C     C_R   0.949392 0.504618 0.489432 0.068383
C14   C     C_R   0.947148 0.293201 0.405932 -0.205461
C15   C     C_R   0.897227 0.293198 0.407870 -0.144394
C16   C     C_R   0.872342 0.397819 0.448729 -0.021480
C17   C     C_R   0.898229 0.503711 0.489895 -0.043487
C18   C     C_R   0.872804 0.608632 0.531724 -0.021329
C19   C     C_R   0.822314 0.605670 0.531887 0.535207
C20   C     C_R   0.821859 0.398644 0.450589 0.535348
C21   C     C_R   0.721297 0.498462 0.621162 -0.101567
C22   C     C_R   0.671161 0.497488 0.623161 -0.215505
C23   C     C_R   0.499732 0.737633 0.499588 0.822405
C24   C     C_R   0.670994 0.500277 0.369814 -0.209321
C25   C     C_R   0.721134 0.500801 0.368107 -0.100676
C26   C     C_R   0.746429 0.500304 0.493710 0.358288
C27   C     C_R   0.025555 0.400925 0.439993 0.041902
C28   C     C_R   0.051006 0.505934 0.489920 0.070443
C29   C     C_R   0.025959 0.610494 0.539076 0.041763
C30   C     C_R   0.052423 0.301642 0.386724 -0.204198
C31   C     C_R   0.103062 0.709172 0.594204 -0.143335
C32   C     C_R   0.948074 0.716078 0.572603 -0.205551
C33   C     C_R   0.898153 0.714305 0.571604 -0.144783
C34   C     C_R   0.592507 0.499692 0.499324 0.798392
C35   C     C_R   0.053158 0.710487 0.592590 -0.203800
C36   C     C_R   0.506699 0.062781 0.624648 0.127477
C37   C     C_R   0.502843 0.129504 0.500002 -0.087783
C38   C     C_R   0.503002 0.066015 0.372910 -0.208701
C39   C     C_R   0.501995 0.937868 0.372721 -0.157751
C40   C     C_R   0.501985 0.871227 0.499130 -0.098722
C41   C     C_R   0.506426 0.935446 0.624324 0.115103
C42   C     C_3   0.475481 0.927699 0.752950 -0.444924
C43   C     C_3   0.475917 0.067516 0.753068 -0.456809
C44   C     C_R   0.540593 0.531884 0.071253 0.126670
C45   C     C_R   0.178096 0.406724 0.442083 0.550894
C46   C     C_R   0.462125 0.453848 0.077267 -0.050935
C47   C     C_R   0.462459 0.450018 0.929486 0.446470
C48   C     C_R   0.540623 0.531407 0.924331 0.108207
C49   C     C_3   0.569428 0.647697 0.911340 -0.503733
C50   C     C_3   0.568705 0.651218 0.070461 0.225583
C51   C     C_R   0.178473 0.606222 0.544279 0.552180
C52   C     C_R   0.280629 0.586799 0.410882 -0.201405
C53   C     C_R   0.331125 0.585935 0.411625 0.304730
C54   C     C_R   0.328047 0.420294 0.586973 0.326231
Cu1   Cu    Cu3+1 0.500000 0.499980 0.640670 0.970350
Cu2   Cu    Cu3+1 0.500000 0.500020 0.359330 0.989642
H1    H     H_    0.261858 0.650077 0.343055 0.155600
H2    H     H_    0.122066 0.788167 0.636313 0.188362
H3    H     H_    0.964441 0.802276 0.602296 0.139390
H4    H     H_    0.652284 0.500731 0.271273 0.144595
H5    H     H_    0.879457 0.796810 0.602378 0.188767
H6    H     H_    0.740393 0.502123 0.269219 0.139825
H7    H     H_    0.037122 0.791140 0.636627 0.140133
H8    H     H_    0.501482 0.114702 0.273717 0.172354
H9    H     H_    0.498755 0.891997 0.273986 0.208201
H10   H     H_    0.439363 0.886525 0.733066 0.213064
H11   H     H_    0.256474 0.360426 0.650475 0.155093
H12   H     H_    0.494557 0.887517 0.843547 0.196860
H13   H     H_    0.440036 0.107644 0.733115 0.217335
H14   H     H_    0.495512 0.107448 0.842936 0.202198
H15   H     H_    0.431497 0.416239 0.134671 0.175994
H16   H     H_    0.605885 0.631819 0.867500 0.168780
H17   H     H_    0.549615 0.723161 0.859406 0.216397
H18   H     H_    0.604798 0.642964 0.117916 0.131645
H19   H     H_    0.121086 0.224966 0.345543 0.188309
H20   H     H_    0.652595 0.495105 0.723020 0.151668
H21   H     H_    0.740686 0.497342 0.718629 0.139936
H22   H     H_    0.878162 0.210049 0.377356 0.189040
H23   H     H_    0.963111 0.207606 0.375786 0.139461
H24   H     H_    0.036137 0.220942 0.341672 0.140133
N1    N     N_R   0.202408 0.506369 0.494274 -0.446133
N2    N     N_R   0.797987 0.501595 0.491889 -0.469145
N3    N     N_R   0.500300 0.500930 0.147930 -0.215481
N4    N     N_R   0.500310 0.500890 0.852020 -0.227580
O1    O     O_R   0.500000 0.319640 0.618810 -0.606848
O2    O     O_2   0.796794 0.297137 0.412470 -0.532303
O3    O     O_2   0.203439 0.702823 0.596041 -0.531589
O4    O     O_2   0.797692 0.706152 0.570939 -0.532760
O5    O     O_R   0.500010 0.319680 0.381230 -0.592048
O6    O     O_R   0.430260 0.500000 0.618780 -0.543103
O7    O     O_R   0.430270 0.500040 0.381190 -0.565577
O8    O     O_R   0.499990 0.680320 0.618770 -0.591337
O9    O     O_R   0.500000 0.680360 0.381190 -0.531873
O10   O     O_R   0.569730 0.499960 0.618810 -0.581285
O11   O     O_R   0.569740 0.500000 0.381220 -0.582966
O12   O     O_2   0.202723 0.310238 0.391711 -0.532137
O13   O     O_3   0.351771 0.335355 0.668420 -0.706514
H25   H     H_    0.327808 0.284602 0.721740 0.340088
O14   O     O_3   0.424497 0.390781 0.868064 -0.689122
H26   H     H_    0.438012 0.342727 0.790563 0.372165
O15   O     O_3   0.542858 0.751155 0.122950 -0.704280
H27   H     H_    0.510575 0.751296 0.079397 0.326734
O16   O     O_3   0.357954 0.666618 0.328403 -0.714212
H28   H     H_    0.335897 0.718500 0.273159 0.334394

loop_
_geom_bond_atom_site_label_1
_geom_bond_atom_site_label_2
_ccdc_geom_bond_type
C10   C27   A    
Cu2   O11   S    
C44   C48   A    
C21   C26   A    
C40   C41   A    
O15   H27   S    
C20   N2    A    
C41   C42   S    
C12   O7    A    
C22   H20   S    
Cu1   Cu2   S    
C44   N3    A    
O13   H25   S    
C6    H19   S    
Cu1   O8    S    
C31   H2    S    
C12   O6    A    
C16   C20   A    
Cu1   O6    S    
Cu1   O10   S    
C5    C6    A    
C9    C22   A    
C15   H22   S    
C23   C40   S    
C47   O14   S    
C18   C19   A    
Cu2   O7    S    
C16   C17   A    
C49   H16   S    
C20   O2    S    
C3    N1    S    
C54   O13   S    
C19   N2    A    
C51   N1    A    
C1    C37   S    
C30   H24   S    
C26   N2    S    
C21   C22   A    
C27   C30   A    
C42   H12   S    
C39   H9    S    
C36   C41   A    
C4    C7    A    
C4    C28   A    
C38   H8    S    
C1    O1    A    
Cu2   O9    S    
C7    C31   A    
C34   O11   A    
C19   O4    S    
C2    C54   A    
C8    C54   A    
C39   C40   A    
C25   C26   A    
C47   N4    A    
C5    C45   A    
C23   O9    A    
Cu1   O1    S    
C37   C38   A    
O14   H26   S    
C8    C12   S    
C17   C18   A    
C14   H23   S    
C24   C25   A    
C46   H15   S    
C33   H5    S    
Cu2   O5    S    
C6    C30   A    
C11   C32   A    
C2    H11   S    
C43   H14   S    
C10   C14   A    
C9    C34   S    
C31   C35   A    
C42   C43   S    
C51   O3    S    
O16   H28   S    
C52   C53   A    
Cu2   N3    S    
C44   C50   S    
C46   C47   A    
C28   C29   A    
C1    O5    A    
C14   C15   A    
C45   N1    A    
C34   O10   A    
C4    C5    A    
C10   C13   A    
C8    C53   A    
C3    C52   A    
C9    C24   A    
C29   C35   A    
C13   C17   A    
C32   C33   A    
C50   H18   S    
C2    C3    A    
C7    C51   A    
C11   C13   A    
C38   C39   A    
C53   O16   S    
C48   C49   S    
C49   H17   S    
C25   H6    S    
C18   C33   A    
C52   H1    S    
C46   N3    A    
C48   N4    A    
C11   C29   A    
C50   O15   S    
C36   C37   A    
C49   C50   S    
C21   H21   S    
C27   C28   A    
C42   H10   S    
C23   O8    A    
C36   C43   S    
C35   H7    S    
C24   H4    S    
C32   H3    S    
Cu1   N4    S    
C43   H13   S    
C45   O12   S    
C15   C16   A    
