data_mof_unit_37650.cif
_audit_creation_date              2012-12-10T20:32:48-0500
_audit_creation_method            fapswitch 2.2
_symmetry_space_group_name_H-M    P1
_symmetry_Int_Tables_number       1
_space_group_crystal_system       triclinic
_cell_length_a                    11.518938
_cell_length_b                    10.761208
_cell_length_c                    9.951766
_cell_angle_alpha                 89.763007
_cell_angle_beta                  90.415112
_cell_angle_gamma                 91.287614
_cell_volume                      1233.2442979

loop_
_atom_site_label
_atom_site_type_symbol
_atom_type_description
_atom_site_fract_x
_atom_site_fract_y
_atom_site_fract_z
_atom_type_partial_charge
C1    C     C_R   0.498981 0.260445 0.499986 0.858160
C2    C     C_R   0.498067 0.128362 0.498151 -0.097075
C3    C     C_R   0.462310 0.065863 0.381551 -0.223624
C4    C     C_R   0.448649 0.937346 0.382138 -0.071686
C5    C     C_R   0.482090 0.871238 0.499181 -0.118693
C6    C     C_R   0.519773 0.935281 0.614056 -0.008309
C7    C     C_3   0.473182 0.933030 0.756371 -0.130194
C8    C     C_3   0.481296 0.075491 0.751567 -0.314215
C9    C     C_R   0.400974 0.473248 0.070080 0.244988
C10   C     C_R   0.593375 0.545437 0.073145 0.012656
C11   C     C_R   0.595101 0.541119 0.928879 -0.022023
C12   C     C_R   0.282177 0.499913 0.499602 0.926628
C13   C     C_R   0.400138 0.475722 0.928627 0.274115
C14   C     C_3   0.323305 0.361830 0.921904 -0.347856
C15   C     C_3   0.326623 0.357874 0.076382 -0.343926
C16   C     C_R   0.492499 0.739127 0.499607 0.938447
C17   C     C_R   0.717832 0.500299 0.500390 0.887241
C18   C     C_1   0.161664 0.500250 0.498946 -0.080712
C19   C     C_1   0.059392 0.500477 0.499427 0.072937
C20   C     C_1   0.940667 0.500587 0.500508 0.065673
C21   C     C_1   0.838379 0.500516 0.501009 -0.106920
C22   C     C_R   0.528017 0.062651 0.612823 -0.002461
H1    H     H_    0.435661 0.117780 0.293415 0.194511
H2    H     H_    0.367981 0.283746 0.875252 0.157797
H3    H     H_    0.374940 0.277708 0.117378 0.180858
H4    H     H_    0.395514 0.120613 0.749160 0.147028
N1    N     N_R   0.499240 0.499140 0.142800 -0.173714
N2    N     N_R   0.499240 0.499180 0.857150 -0.180719
O1    O     O_R   0.500010 0.316790 0.614690 -0.649475
O2    O     O_R   0.500000 0.316760 0.385350 -0.618189
O3    O     O_R   0.334450 0.500030 0.614670 -0.585098
O4    O     O_R   0.334440 0.500000 0.385330 -0.586664
O5    O     O_R   0.500000 0.683240 0.614650 -0.630337
O6    O     O_R   0.499990 0.683210 0.385310 -0.632239
O7    O     O_R   0.665560 0.500000 0.614670 -0.634673
O8    O     O_R   0.665550 0.499970 0.385330 -0.613273
Zn1   Zn    Zn3+2 0.500010 0.500020 0.653130 0.974387
Zn2   Zn    Zn3+2 0.499990 0.499980 0.346870 0.992600
C23   C     C_2   0.211956 0.375480 0.145809 0.493985
H5    H     H_    0.164149 0.294631 0.183042 0.048366
O9    O     O_2   0.170605 0.478403 0.157766 -0.502378
C24   C     C_2   0.387583 0.878874 0.265630 0.959594
O10   O     O_2   0.401476 0.921924 0.152914 -0.536023
O11   O     O_R   0.309011 0.779568 0.285336 -0.759558
H6    H     H_    0.272723 0.748695 0.198191 0.376467
C25   C     C_2   0.347732 0.887879 0.772709 0.952121
O12   O     O_2   0.298995 0.824461 0.686668 -0.605697
O13   O     O_R   0.287801 0.920009 0.888685 -0.734957
H7    H     H_    0.205410 0.884868 0.889799 0.358717
C26   C     C_2   0.556344 0.872751 0.854620 0.941729
O14   O     O_2   0.519251 0.804638 0.943788 -0.629313
O15   O     O_R   0.675844 0.897493 0.845063 -0.819026
H8    H     H_    0.721788 0.856919 0.919931 0.342209
C27   C     C_2   0.566986 0.138874 0.845640 0.543580
H9    H     H_    0.647330 0.179909 0.807739 0.097605
O16   O     O_2   0.546126 0.145038 0.965457 -0.555115
C28   C     C_2   0.685677 0.613969 0.147410 0.516390
H10   H     H_    0.662623 0.687486 0.215564 0.077564
O17   O     O_2   0.787498 0.586834 0.137075 -0.505332
C29   C     C_2   0.696287 0.592214 0.856117 0.518746
H11   H     H_    0.684497 0.663888 0.780996 0.090857
O18   O     O_2   0.792941 0.550895 0.874547 -0.499661
C30   C     C_2   0.205593 0.383684 0.859104 0.517643
H12   H     H_    0.148744 0.304521 0.837224 0.046674
O19   O     O_2   0.172258 0.488484 0.834970 -0.491141

loop_
_geom_bond_atom_site_label_1
_geom_bond_atom_site_label_2
_ccdc_geom_bond_type
C10   N1    A    
C2    C22   A    
C8    C22   S    
C17   C21   S    
C30   O19   D    
C13   N2    A    
C6    C7    S    
C30   H12   S    
C17   O8    A    
O4    Zn2   S    
C16   O5    A    
C8    H4    S    
C26   O15   S    
C19   C20   S    
C14   C15   S    
C4    C24   S    
O8    Zn2   S    
C26   O14   D    
C9    C15   S    
C7    C8    S    
C23   O9    D    
O6    Zn2   S    
C13   C14   S    
C12   O4    A    
C15   C23   S    
C28   H10   S    
C24   O11   S    
N2    Zn1   S    
C14   C30   S    
C11   N2    A    
C1    O1    A    
O13   H7    S    
O7    Zn1   S    
C18   C19   T    
C25   O13   S    
C12   O3    A    
C5    C6    A    
O1    Zn1   S    
C27   O16   D    
C15   H3    S    
C28   O17   D    
C10   C11   A    
N1    Zn2   S    
C14   H2    S    
C11   C29   S    
C6    C22   A    
C7    C25   S    
O3    Zn1   S    
C4    C5    A    
C10   C28   S    
C20   C21   T    
C9    N1    A    
C29   O18   D    
C1    C2    S    
C24   O10   D    
C8    C27   S    
C23   H5    S    
C9    C13   A    
C27   H9    S    
C1    O2    A    
C5    C16   S    
C2    C3    A    
C17   O7    A    
O2    Zn2   S    
C16   O6    A    
C25   O12   D    
C3    H1    S    
O5    Zn1   S    
O11   H6    S    
C3    C4    A    
C7    C26   S    
O15   H8    S    
C29   H11   S    
C12   C18   S    
