data_mof_unit_44884.cif
_audit_creation_date              2012-12-11T17:45:26-0500
_audit_creation_method            fapswitch 2.2
_symmetry_space_group_name_H-M    P1
_symmetry_Int_Tables_number       1
_space_group_crystal_system       triclinic
_cell_length_a                    14.94538
_cell_length_b                    14.928538
_cell_length_c                    15.14329
_cell_angle_alpha                 110.333172
_cell_angle_beta                  109.000877
_cell_angle_gamma                 109.00733
_cell_volume                      2602.85962683

loop_
_atom_site_label
_atom_site_type_symbol
_atom_type_description
_atom_site_fract_x
_atom_site_fract_y
_atom_site_fract_z
_atom_type_partial_charge
C1    C     C_R   0.974423 0.248912 0.061895 -0.126192
C2    C     C_R   0.704604 0.194491 0.794122 -0.137679
C3    C     C_R   0.777657 0.592717 0.025185 -0.131638
C4    C     C_R   0.314965 0.757156 0.224832 -0.130813
C5    C     C_R   0.944004 0.409649 0.685851 -0.137481
C6    C     C_R   0.675760 0.501071 0.948973 -0.019728
C7    C     C_R   0.963221 0.504294 0.679364 0.044409
C8    C     C_R   0.702922 0.129633 0.701394 0.067156
C9    C     C_R   0.062663 0.869414 0.071295 0.067240
C10   C     C_R   0.605039 0.263845 0.102558 -0.110490
C11   C     C_R   0.690491 0.352489 0.203952 -0.154922
C12   C     C_R   0.323546 0.784310 0.326747 0.048584
C13   C     C_R   0.743104 0.333943 0.285878 0.116515
C14   C     C_R   0.703687 0.225430 0.266047 -0.158864
C15   C     C_R   0.615115 0.137555 0.165745 -0.118479
C16   C     C_R   0.209525 0.409221 0.903677 -0.152422
C17   C     C_R   0.566416 0.156813 0.083795 -0.091068
C18   C     C_R   0.852592 0.431990 0.486708 -0.251333
C19   C     C_R   0.948470 0.512834 0.584731 0.076140
C20   C     C_R   0.034306 0.593964 0.588812 0.011817
C21   C     C_R   0.022716 0.589409 0.493874 -0.255184
C22   C     C_R   0.930361 0.505844 0.395087 0.069632
C23   C     C_R   0.300899 0.500992 0.932566 0.010393
C24   C     C_R   0.842302 0.426140 0.389750 0.025490
C25   C     C_R   0.167490 0.781830 0.753083 -0.205493
C26   C     C_R   0.273163 0.860892 0.838361 -0.104545
C27   C     C_R   0.357010 0.835441 0.853776 -0.103110
C28   C     C_R   0.995541 0.591245 0.298292 -0.170508
C29   C     C_R   0.335198 0.731059 0.784257 -0.128652
C30   C     C_R   0.228948 0.650538 0.701088 -0.138370
C31   C     C_R   0.144038 0.675180 0.685270 0.128849
C32   C     C_R   0.218059 0.001121 0.507762 -0.138158
C33   C     C_R   0.304372 0.987063 0.502707 -0.143020
C34   C     C_R   0.940602 0.500262 0.302409 0.058460
C35   C     C_R   0.331834 0.918123 0.535215 0.105063
C36   C     C_R   0.273520 0.865387 0.575112 -0.179931
C37   C     C_R   0.183984 0.876247 0.575045 -0.122755
C38   C     C_R   0.156208 0.943856 0.541311 -0.123178
C39   C     C_R   0.522377 0.977388 0.624753 -0.234375
C40   C     C_R   0.299997 0.591903 0.996432 -0.138638
C41   C     C_R   0.618976 0.013610 0.620885 0.054713
C42   C     C_R   0.620946 0.948825 0.528261 0.028924
C43   C     C_R   0.522358 0.864628 0.435259 -0.245962
C44   C     C_R   0.423509 0.849325 0.432333 0.070413
C45   C     C_R   0.686427 0.408447 0.933099 -0.145169
C46   C     C_R   0.424229 0.905414 0.530126 0.019631
C47   C     C_R   0.738251 0.009407 0.452540 -0.200377
C48   C     C_R   0.842385 0.058221 0.465608 -0.123308
C49   C     C_R   0.930050 0.066857 0.545859 -0.119304
C50   C     C_R   0.913409 0.025671 0.612404 -0.136397
C51   C     C_R   0.810123 0.979059 0.601537 -0.146504
C52   C     C_R   0.910992 0.408370 0.210651 -0.135433
C53   C     C_R   0.722535 0.973523 0.523462 0.122916
C54   C     C_3   0.471217 0.397351 0.828547 0.014996
C55   C     C_3   0.367159 0.396299 0.828087 -0.466374
C56   C     C_R   0.025935 0.593471 0.782083 -0.109203
C57   C     C_3   0.566908 0.503016 0.035386 -0.435476
C58   C     C_3   0.574520 0.606251 0.935597 -0.417067
C59   C     C_3   0.573729 0.501649 0.934801 0.336897
C60   C     C_3   0.397815 0.501772 0.928294 0.384411
C61   C     C_3   0.466786 0.508254 0.033895 -0.399163
C62   C     C_3   0.466307 0.601706 0.923087 -0.410580
C63   C     C_R   0.162387 0.040099 0.797286 -0.133911
C64   C     C_R   0.219308 0.746599 0.311750 -0.119384
C65   C     C_R   0.126590 0.043955 0.872049 -0.185103
C66   C     C_R   0.193362 0.129702 0.980544 0.113444
C67   C     C_R   0.792253 0.196519 0.700641 -0.144281
C68   C     C_R   0.296385 0.211316 0.013345 -0.151597
C69   C     C_R   0.331049 0.207180 0.937394 -0.151484
C70   C     C_R   0.264540 0.121795 0.829688 -0.102295
C71   C     C_R   0.169774 0.041036 0.082690 -0.225649
C72   C     C_R   0.098286 0.987258 0.111040 0.053633
C73   C     C_R   0.050057 0.042621 0.157804 0.020311
C74   C     C_R   0.065153 0.140566 0.160915 -0.233138
C75   C     C_R   0.100379 0.167588 0.094011 0.058585
C76   C     C_R   0.067897 0.251764 0.972387 -0.139848
C77   C     C_R   0.160903 0.121403 0.060333 0.025599
C78   C     C_R   0.001180 0.802771 0.096924 -0.144858
C79   C     C_R   0.857106 0.949434 0.114596 -0.142292
C80   C     C_R   0.779194 0.901693 0.139899 -0.156314
C81   C     C_R   0.811531 0.895132 0.233979 -0.107526
C82   C     C_R   0.922338 0.942873 0.306284 -0.118722
C83   C     C_R   0.000571 0.997498 0.284717 -0.190912
C84   C     C_R   0.968214 0.995049 0.185947 0.120745
C85   C     C_R   0.052685 0.223357 0.046601 0.057110
C86   C     C_3   0.473425 0.390843 0.724704 -0.408870
C87   C     C_3   0.393081 0.275705 0.625261 -0.278447
C88   C     C_3   0.394344 0.271186 0.523425 -0.915644
C89   C     C_R   0.093012 0.805868 0.007726 -0.149487
H1    H     H_    0.940111 0.236390 0.111786 0.093635
H2    H     H_    0.570235 0.277680 0.037602 0.091985
H3    H     H_    0.718475 0.434993 0.216941 0.115043
H4    H     H_    0.380117 0.773561 0.205868 0.090161
H5    H     H_    0.743033 0.208346 0.327105 0.106052
H6    H     H_    0.585701 0.054356 0.150859 0.101422
H7    H     H_    0.787465 0.371376 0.485854 0.130039
H8    H     H_    0.092343 0.646161 0.496668 0.135014
H9    H     H_    0.103499 0.803104 0.740208 0.110654
H10   H     H_    0.290273 0.942201 0.891491 0.126772
H11   H     H_    0.439235 0.896743 0.918625 0.092677
H12   H     H_    0.049144 0.677821 0.806918 0.110419
H13   H     H_    0.401265 0.713576 0.793748 0.101490
H14   H     H_    0.213300 0.570163 0.647161 0.108356
H15   H     H_    0.179948 0.324413 0.847144 0.102711
H16   H     H_    0.199996 0.057441 0.487081 0.106337
H17   H     H_    0.350519 0.030370 0.474369 0.123694
H18   H     H_    0.294718 0.813115 0.601992 0.132298
H19   H     H_    0.135334 0.832238 0.600504 0.122369
H20   H     H_    0.518998 0.020376 0.696438 0.124157
H21   H     H_    0.523269 0.817777 0.362899 0.122903
H22   H     H_    0.672042 0.007409 0.393037 0.115034
H23   H     H_    0.823504 0.175495 0.646992 0.134514
H24   H     H_    0.855504 0.091385 0.414931 0.128821
H25   H     H_    0.010918 0.105780 0.556721 0.101324
H26   H     H_    0.981169 0.033685 0.675162 0.119959
H27   H     H_    0.018665 0.675279 0.350882 0.114322
H28   H     H_    0.799668 0.953055 0.657651 0.111708
H29   H     H_    0.468749 0.322561 0.829641 0.097990
H30   H     H_    0.312711 0.390315 0.753163 0.158739
H31   H     H_    0.320594 0.321843 0.828580 0.148139
H32   H     H_    0.564624 0.429129 0.037913 0.148160
H33   H     H_    0.418486 0.440537 0.042409 0.163407
H34   H     H_    0.978885 0.825240 0.157950 0.126410
H35   H     H_    0.641344 0.680171 0.013977 0.165642
H36   H     H_    0.588866 0.615727 0.871041 0.153355
H37   H     H_    0.419448 0.592662 0.843775 0.155469
H38   H     H_    0.354696 0.677184 0.027501 0.088103
H39   H     H_    0.485421 0.680862 0.987833 0.145827
H40   H     H_    0.640422 0.575303 0.111761 0.169880
H41   H     H_    0.493022 0.586782 0.105374 0.160184
H42   H     H_    0.292527 0.118929 0.771746 0.119389
H43   H     H_    0.110825 0.972900 0.714640 0.106239
H44   H     H_    0.350096 0.276289 0.097294 0.118405
H45   H     H_    0.152234 0.833871 0.983715 0.097622
H46   H     H_    0.409660 0.269556 0.961601 0.106296
H47   H     H_    0.216972 0.007543 0.057262 0.125288
H48   H     H_    0.030344 0.182826 0.199591 0.126949
H49   H     H_    0.859345 0.323488 0.183643 0.111597
H50   H     H_    0.831130 0.950529 0.039510 0.112057
H51   H     H_    0.693741 0.868058 0.085583 0.108373
H52   H     H_    0.750896 0.854268 0.251453 0.115103
H53   H     H_    0.947578 0.937332 0.378733 0.120888
H54   H     H_    0.085932 0.035474 0.340377 0.112590
H55   H     H_    0.192886 0.743049 0.368691 0.124349
H56   H     H_    0.658004 0.167755 0.830342 0.087486
H57   H     H_    0.122483 0.246649 0.941865 0.125044
H58   H     H_    0.623606 0.323196 0.884192 0.090696
H59   H     H_    0.087734 0.953141 0.542592 0.098530
H60   H     H_    0.372272 0.330537 0.507889 0.262837
H61   H     H_    0.476378 0.290897 0.532671 0.264358
H62   H     H_    0.334164 0.187376 0.452443 0.245100
H63   H     H_    0.415892 0.216207 0.639403 0.204204
H64   H     H_    0.309289 0.251637 0.612186 0.197429
H65   H     H_    0.453693 0.451311 0.708943 0.198707
H66   H     H_    0.556266 0.411655 0.735850 0.194065
H67   H     H_    0.798547 0.677982 0.061761 0.110994
H68   H     H_    0.048023 0.978544 0.846240 0.117243
H69   H     H_    0.899488 0.325496 0.619948 0.103170
H70   H     H_    0.499459 0.089027 0.005330 0.099388
N1    N     N_R   0.947080 0.293830 0.002870 -0.041530
N2    N     N_R   0.153670 0.443180 0.946090 -0.037097
N3    N     N_R   0.002360 0.556820 0.208890 -0.039469
N4    N     N_R   0.210070 0.556820 0.002870 -0.034760
N5    N     N_R   0.945960 0.443180 0.152110 -0.039277
N6    N     N_R   0.151710 0.706170 0.208890 -0.043212
N7    N     N_R   0.004320 0.293830 0.946090 -0.041358
N8    N     N_R   0.789930 0.443180 0.997130 -0.034118
N9    N     N_R   0.054040 0.556820 0.847890 -0.040119
N10   N     N_R   0.848290 0.293830 0.791110 -0.042099
N11   N     N_R   0.995680 0.706170 0.053910 -0.041622
N12   N     N_R   0.052920 0.706170 0.997130 -0.040969
N13   N     N_R   0.791050 0.293830 0.847890 -0.038384
N14   N     N_R   0.846330 0.556820 0.053910 -0.037462
N15   N     N_R   0.997640 0.443180 0.791110 -0.039832
N16   N     N_R   0.208950 0.706170 0.152110 -0.040202
Ni1   Ni    Ni4+2 0.869690 0.369690 0.000000 0.211036
Ni2   Ni    Ni4+2 0.130310 0.630310 0.000000 0.216861
Ni3   Ni    Ni4+2 0.000970 0.369690 0.869780 0.215986
Ni4   Ni    Ni4+2 0.999030 0.630310 0.130220 0.213082

loop_
_geom_bond_atom_site_label_1
_geom_bond_atom_site_label_2
_ccdc_geom_bond_type
C25   C31   A    
C66   C68   A    
C87   C88   S    
C63   C65   A    
C58   C62   S    
C1    H1    S    
C6    C45   A    
C27   C29   A    
C18   H7    S    
C5    N15   A    
C79   H50   S    
C35   C36   A    
C9    C72   S    
C82   H53   S    
C3    C6    A    
N1    N7    A    
C81   C82   A    
C28   N3    A    
N16   Ni2   S    
C55   H30   S    
C67   N10   A    
C2    H56   S    
N9    N15   A    
C26   C27   A    
C37   C38   A    
C18   C24   A    
C57   H40   S    
C68   H44   S    
C56   H12   S    
C18   C19   A    
C42   C53   S    
C15   H6    S    
C30   C31   A    
C12   C64   A    
C57   C59   S    
N11   N12   A    
N14   Ni4   S    
C10   C17   A    
C23   C40   A    
C78   N11   A    
C60   C62   S    
C50   H26   S    
C41   C42   A    
C55   H31   S    
C75   C77   A    
C70   H42   S    
C34   C52   A    
C28   H27   S    
C13   C14   A    
C33   C35   A    
C11   H3    S    
C3    N14   A    
C83   C84   A    
C44   C46   A    
C68   C69   A    
C4    N16   A    
C30   H14   S    
N4    Ni2   S    
C52   H49   S    
C87   H64   S    
C76   N7    A    
N7    Ni3   S    
C43   H21   S    
C32   C38   A    
C4    C12   A    
C29   C30   A    
N15   Ni3   S    
C73   C84   S    
C26   H10   S    
C47   C53   A    
C81   H52   S    
C49   H25   S    
C76   H57   S    
C69   H46   S    
C55   C60   S    
C36   H18   S    
N1    Ni1   S    
C54   C86   S    
C7    C56   A    
N2    N4    A    
C16   H15   S    
N3    N5    A    
C54   C59   S    
C73   C74   A    
C1    C85   A    
C23   C60   S    
C22   C34   S    
C74   H48   S    
C27   H11   S    
C74   C75   A    
C8    C41   S    
C89   N12   A    
C40   N4    A    
C39   C41   A    
C9    C89   A    
C71   H47   S    
C62   H37   S    
C86   C87   S    
C72   C73   A    
C64   H55   S    
C25   C26   A    
C80   H51   S    
C40   H38   S    
C57   H32   S    
C82   C83   A    
C88   H60   S    
C4    H4    S    
C13   C24   S    
C60   C61   S    
C51   C53   A    
C86   H66   S    
C64   N6    A    
C21   H8    S    
C25   H9    S    
C47   C48   A    
C63   C70   A    
C56   N9    A    
C50   C51   A    
C63   H43   S    
N12   Ni2   S    
C78   H34   S    
C45   N8    A    
C38   H59   S    
N3    Ni4   S    
C61   H41   S    
C37   H19   S    
C39   C46   A    
C65   H68   S    
C48   C49   A    
C52   N5    A    
C10   H2    S    
C5    H69   S    
C16   C23   A    
C7    C19   S    
C32   H16   S    
C54   H29   S    
C43   C44   A    
C58   H36   S    
N6    Ni4   S    
C88   H62   S    
C22   C24   A    
C42   C43   A    
N10   Ni3   S    
C71   C77   A    
C75   C85   S    
C15   C17   A    
C66   C77   S    
C54   C55   S    
C36   C37   A    
C89   H45   S    
C45   H58   S    
C88   H61   S    
C6    C59   S    
C1    N1    A    
C2    C8    A    
C33   H17   S    
C80   C81   A    
C57   C61   S    
C16   N2    A    
N6    N16   A    
C58   H35   S    
N8    N14   A    
N11   Ni4   S    
C87   H63   S    
C32   C33   A    
C19   C20   A    
C58   C59   S    
C5    C7    A    
C71   C72   A    
C12   C44   S    
C62   H39   S    
C11   C13   A    
C79   C84   A    
N9    Ni2   S    
C47   H22   S    
C3    H67   S    
C51   H28   S    
C29   H13   S    
N5    Ni1   S    
C9    C78   A    
C65   C66   A    
C86   H65   S    
C69   C70   A    
C17   H70   S    
C48   H24   S    
C10   C11   A    
C28   C34   A    
C79   C80   A    
C67   H23   S    
C39   H20   S    
C20   C21   A    
C8    C67   A    
C49   C50   A    
C14   C15   A    
C61   H33   S    
C83   H54   S    
N10   N13   A    
N2    Ni3   S    
C21   C22   A    
C35   C46   S    
C76   C85   A    
C14   H5    S    
N13   Ni1   S    
C2    N13   A    
N8    Ni1   S    
C20   C31   S    
