data_mof_unit_35776.cif
_audit_creation_date              2012-12-11T15:47:00-0500
_audit_creation_method            fapswitch 2.2
_symmetry_space_group_name_H-M    P1
_symmetry_Int_Tables_number       1
_space_group_crystal_system       triclinic
_cell_length_a                    11.551878
_cell_length_b                    11.552549
_cell_length_c                    19.575552
_cell_angle_alpha                 90.424157
_cell_angle_beta                  89.859401
_cell_angle_gamma                 60.064249
_cell_volume                      2263.77383286

loop_
_atom_site_label
_atom_site_type_symbol
_atom_type_description
_atom_site_fract_x
_atom_site_fract_y
_atom_site_fract_z
_atom_type_partial_charge
C1    C     C_R   0.640193 0.117113 0.599344 0.546447
C2    C     C_1   0.652640 0.149529 0.668710 0.002600
C3    C     C_R   0.661359 0.658605 0.194502 0.012257
C4    C     C_R   0.612115 0.746366 0.598717 0.542926
C5    C     C_R   0.591640 0.617031 0.236768 0.007957
C6    C     C_R   0.590856 0.629740 0.305905 0.010783
C7    C     C_R   0.724051 0.736294 0.294033 -0.153500
C8    C     C_R   0.725348 0.722440 0.223161 -0.178434
C9    C     C_3   0.601408 0.483900 0.241475 -0.235722
C10   C     C_3   0.602493 0.497445 0.318263 -0.288514
C11   C     C_R   0.659261 0.685583 0.335769 0.021015
C12   C     C_1   0.640660 0.704260 0.668052 0.004372
C13   C     C_R   0.141913 0.202635 0.191659 -0.011021
C14   C     C_R   0.119308 0.306131 0.236467 0.012530
C15   C     C_R   0.144555 0.283477 0.304717 -0.007889
C16   C     C_R   0.241091 0.145170 0.598215 0.542750
C17   C     C_R   0.234294 0.047065 0.285465 0.100123
C18   C     C_R   0.204690 0.071761 0.215671 -0.163527
C19   C     C_3   0.994033 0.435487 0.249632 -0.242577
C20   C     C_3   0.022161 0.410058 0.325159 -0.280354
C21   C     C_R   0.195607 0.156334 0.331583 0.032055
C22   C     C_R   0.671852 0.171403 0.189762 0.010715
C23   C     C_1   0.126584 0.199113 0.859251 0.003958
C24   C     C_R   0.774373 0.064445 0.225369 0.030146
C25   C     C_R   0.762254 0.046494 0.293169 0.014531
C26   C     C_R   0.535530 0.227774 0.291911 -0.153593
C27   C     C_R   0.546668 0.244629 0.221614 -0.173840
C28   C     C_R   0.641004 0.108804 0.400458 0.543520
C29   C     C_3   0.919509 0.021658 0.233195 -0.251975
C30   C     C_3   0.904488 0.000878 0.308175 -0.288807
C31   C     C_R   0.649147 0.135355 0.329133 0.015415
C32   C     C_R   0.081620 0.231359 0.928554 0.547056
C33   C     C_R   0.684238 0.604104 0.929430 0.545939
C34   C     C_1   0.171520 0.170257 0.727731 -0.030777
C35   C     C_R   0.708808 0.206822 0.930034 0.546712
C36   C     C_R   0.082642 0.236795 0.124969 0.540787
C37   C     C_R   0.682386 0.611565 0.125358 0.539693
C38   C     C_R   0.707170 0.208783 0.125627 0.531774
C39   C     C_R   0.619032 0.737743 0.403329 0.553362
C40   C     C_R   0.246619 0.138523 0.400679 0.557705
C41   C     C_1   0.670986 0.646045 0.860051 0.004381
C42   C     C_1   0.654472 0.683813 0.728425 -0.030998
C43   C     C_1   0.663730 0.666423 0.799650 -0.030818
C44   C     C_3   0.236768 0.850603 0.328044 -0.272799
C45   C     C_1   0.150086 0.182497 0.798927 -0.030707
C46   C     C_1   0.195359 0.160735 0.667420 0.004018
C47   C     C_1   0.679199 0.191208 0.860707 0.003947
C48   C     C_1   0.658505 0.167054 0.729054 -0.030729
C49   C     C_1   0.666095 0.180754 0.800329 -0.030270
Cr1   Cr    Cr6+3 0.404720 0.198220 0.499960 1.022817
Cr2   Cr    Cr6+3 0.698290 0.897110 0.500380 1.020675
Cr3   Cr    Cr6+3 0.396970 0.904720 0.499610 1.030618
Cr4   Cr    Cr6+3 0.926290 0.152010 0.028150 1.021295
Cr5   Cr    Cr6+3 0.921440 0.451830 0.027490 1.026160
Cr6   Cr    Cr6+3 0.626370 0.446880 0.028730 1.023343
H1    H     H_    0.771087 0.788817 0.315854 0.149486
H2    H     H_    0.917143 0.070972 0.342445 0.132070
H3    H     H_    0.779776 0.756062 0.191598 0.126677
H4    H     H_    0.697145 0.402016 0.220478 0.140244
H5    H     H_    0.508632 0.489867 0.221931 0.149144
H6    H     H_    0.512056 0.506486 0.343555 0.137511
H7    H     H_    0.699236 0.424680 0.341749 0.125570
H8    H     H_    0.227629 0.989467 0.180925 0.124740
H9    H     H_    0.903618 0.432363 0.233279 0.144924
H10   H     H_    0.384243 0.855538 0.271381 0.253062
H11   H     H_    0.186320 0.836306 0.283278 0.113118
H12   H     H_    0.001950 0.521950 0.231031 0.146647
H13   H     H_    0.162401 0.911840 0.368011 0.156753
H14   H     H_    0.305228 0.751037 0.349791 0.153225
H15   H     H_    0.046166 0.482048 0.350298 0.145505
H16   H     H_    0.947789 0.392793 0.352623 0.125122
H17   H     H_    0.440238 0.289525 0.317124 0.144583
H18   H     H_    0.461948 0.321017 0.194209 0.122124
H19   H     H_    0.940464 0.104405 0.224247 0.155428
H20   H     H_    0.985589 0.927199 0.205005 0.136947
H21   H     H_    0.959167 0.894238 0.323395 0.131179
N1    N     N_2   0.312502 0.912946 0.307051 -0.467653
O1    O     O_R   0.267750 0.231960 0.575440 -0.506095
O2    O     O_R   0.596230 0.579400 0.952760 -0.504219
O3    O     O_R   0.639160 0.321170 0.958690 -0.492753
O4    O     O_R   0.527290 0.186640 0.570530 -0.493546
O5    O     O_R   0.821370 0.124220 0.104400 -0.518367
O6    O     O_R   0.037020 0.167050 0.097880 -0.511921
O7    O     O_R   0.056310 0.349620 0.102920 -0.511261
O8    O     O_R   0.797790 0.564880 0.097980 -0.508443
O9    O     O_R   0.596000 0.584270 0.104310 -0.517055
O10   O     O_R   0.638950 0.325690 0.099180 -0.509704
O11   O     O_3   0.824700 0.350240 0.028120 -0.257018
O12   O     O_R   0.685950 0.784660 0.430010 -0.517172
O13   O     O_R   0.728110 0.003450 0.576380 -0.504913
O14   O     O_R   0.682980 0.789190 0.570500 -0.495309
O15   O     O_R   0.499300 0.771880 0.575540 -0.508477
O16   O     O_R   0.285350 0.030870 0.569740 -0.498132
O17   O     O_R   0.270960 0.227070 0.423890 -0.525898
O18   O     O_R   0.530270 0.182120 0.430040 -0.510519
O19   O     O_R   0.731320 0.998570 0.424830 -0.519686
O20   O     O_R   0.502510 0.767000 0.423980 -0.497294
O21   O     O_R   0.288320 0.026340 0.429250 -0.474983
O22   O     O_3   0.499990 0.000020 0.499980 -0.255825
O23   O     O_R   0.821590 0.119350 0.952850 -0.504210
O24   O     O_R   0.037230 0.162540 0.957390 -0.493359
O25   O     O_R   0.056530 0.344750 0.951370 -0.504103
O26   O     O_R   0.798000 0.560370 0.957490 -0.493670

loop_
_geom_bond_atom_site_label_1
_geom_bond_atom_site_label_2
_ccdc_geom_bond_type
C25   C31   A    
C1    O13   A    
C23   C45   T    
C26   H17   S    
C35   O3    A    
C44   H11   S    
C19   C20   S    
C32   O24   A    
C35   C47   S    
Cr5   O7    S    
C7    C8    A    
C47   C49   T    
C7    C11   A    
Cr1   O22   S    
C13   C18   A    
C28   O18   A    
C37   O8    A    
C44   N1    S    
Cr2   O13   S    
C40   O21   A    
C5    C6    A    
C18   H8    S    
C39   O20   A    
C36   O6    A    
C1    O4    A    
C22   C38   S    
C30   H2    S    
Cr3   O20   S    
Cr6   O2    S    
C1    C2    S    
Cr6   O11   S    
C24   C29   S    
C12   C42   T    
C8    H3    S    
Cr4   O24   S    
C20   H16   S    
C19   H12   S    
C34   C46   T    
C4    C12   S    
C9    C10   S    
C16   O1    A    
Cr2   O19   S    
C4    O14   A    
Cr2   O14   S    
C26   C31   A    
C13   C14   A    
C38   O5    A    
C41   C43   T    
C20   H15   S    
C10   H7    S    
C7    H1    S    
Cr1   O1    S    
Cr4   O23   S    
Cr2   O22   S    
C15   C20   S    
H10   N1    S    
Cr5   O26   S    
C44   H14   S    
C24   C25   A    
C13   C36   S    
C3    C8    A    
C16   C46   S    
C6    C11   A    
Cr1   O17   S    
C29   H19   S    
C2    C48   T    
C17   C21   A    
Cr4   O5    S    
C9    H4    S    
C5    C9    S    
C29   C30   S    
C30   H21   S    
C37   O9    A    
C19   H9    S    
C17   N1    S    
C17   C18   A    
C16   O16   A    
Cr3   O16   S    
C34   C45   S    
C11   C39   S    
C48   C49   S    
C22   C27   A    
C26   C27   A    
C32   O25   A    
C44   H13   S    
C10   H6    S    
C42   C43   S    
C35   O23   A    
C25   C30   S    
C33   O26   A    
C14   C19   S    
Cr5   O25   S    
C28   C31   S    
C33   O2    A    
C40   O17   A    
C3    C5    A    
C6    C10   S    
Cr5   O8    S    
C29   H20   S    
Cr3   O22   S    
Cr4   O6    S    
C38   O10   A    
C28   O19   A    
C9    H5    S    
C33   C41   S    
C23   C32   S    
Cr6   O9    S    
Cr2   O12   S    
Cr5   O11   S    
Cr6   O3    S    
C21   C40   S    
C36   O7    A    
Cr3   O21   S    
Cr4   O11   S    
C22   C24   A    
Cr6   O10   S    
Cr1   O18   S    
Cr3   O15   S    
C15   C21   A    
C3    C37   S    
C14   C15   A    
C27   H18   S    
C39   O12   A    
Cr1   O4    S    
C4    O15   A    
