data_mof_unit_49211.cif
_audit_creation_date              2012-12-10T21:29:41-0500
_audit_creation_method            fapswitch 2.2
_symmetry_space_group_name_H-M    P1
_symmetry_Int_Tables_number       1
_space_group_crystal_system       triclinic
_cell_length_a                    10.638078
_cell_length_b                    16.028831
_cell_length_c                    16.85644
_cell_angle_alpha                 87.809913
_cell_angle_beta                  90.054375
_cell_angle_gamma                 93.444467
_cell_volume                      2867.00117844

loop_
_atom_site_label
_atom_site_type_symbol
_atom_type_description
_atom_site_fract_x
_atom_site_fract_y
_atom_site_fract_z
_atom_type_partial_charge
C1    C     C_R   0.502952 0.488974 0.653029 0.871751
C2    C     C_R   0.502698 0.510999 0.346881 0.868991
C3    C     C_R   0.524774 0.482541 0.737924 -0.030078
C4    C     C_R   0.519606 0.517061 0.261435 -0.028996
C5    C     C_R   0.562795 0.554815 0.777866 -0.223976
C6    C     C_R   0.526437 0.443371 0.220021 -0.244448
C7    C     C_R   0.589066 0.549642 0.858032 -0.161491
C8    C     C_R   0.550682 0.447404 0.139599 -0.169611
C9    C     C_R   0.575510 0.471812 0.899785 0.326153
C10   C     C_R   0.567356 0.525742 0.098899 0.331128
C11   C     C_R   0.542588 0.399355 0.859294 -0.191358
C12   C     C_R   0.561024 0.599193 0.140302 -0.192143
C13   C     C_R   0.517016 0.404458 0.778526 -0.221498
C14   C     C_R   0.537433 0.595139 0.221448 -0.224042
C15   C     C_R   0.459247 0.763308 0.452034 -0.001235
C16   C     C_R   0.568574 0.238531 0.532566 -0.020623
C17   C     C_R   0.460853 0.850523 0.455540 -0.345670
C18   C     C_R   0.564965 0.151226 0.529914 -0.313906
C19   C     C_R   0.521047 0.891069 0.519445 0.247110
C20   C     C_R   0.474438 0.108828 0.482389 0.227832
C21   C     C_R   0.579435 0.841870 0.577969 0.396035
C22   C     C_R   0.391300 0.156368 0.437173 0.384038
C23   C     C_R   0.739602 0.501890 0.487472 0.894448
C24   C     C_R   0.259594 0.498373 0.511165 0.894604
C25   C     C_R   0.573018 0.753951 0.572314 -0.130912
C26   C     C_R   0.396176 0.244152 0.444117 -0.169632
C27   C     C_R   0.874294 0.357899 0.434208 -0.256490
C28   C     C_R   0.125777 0.646249 0.555409 -0.187475
C29   C     C_R   0.922975 0.278555 0.443681 0.529224
C30   C     C_R   0.083302 0.725920 0.539300 0.546782
C31   C     C_R   0.028840 0.270035 0.491383 -0.243440
C32   C     C_R   0.973113 0.732226 0.493392 -0.317660
C33   C     C_R   0.093322 0.340579 0.521046 -0.231670
C34   C     C_R   0.904954 0.660102 0.470215 -0.195906
C35   C     C_R   0.051346 0.421728 0.504771 0.094328
C36   C     C_R   0.947083 0.579669 0.489160 0.092835
C37   C     C_R   0.933127 0.428452 0.470080 0.027781
C38   C     C_R   0.065719 0.573711 0.523375 -0.001860
C39   C     C_R   0.123215 0.496258 0.521840 -0.213240
C40   C     C_R   0.875130 0.505001 0.473804 -0.212224
H1    H     H_    0.938431 0.791860 0.474853 0.142643
H2    H     H_    0.063321 0.208712 0.503908 0.172317
H3    H     H_    0.633047 0.117603 0.564215 0.192587
H4    H     H_    0.415491 0.885511 0.408593 0.176179
H5    H     H_    0.613824 0.715006 0.618009 0.145454
H6    H     H_    0.329805 0.281565 0.412479 0.158972
H7    H     H_    0.790388 0.364430 0.398924 0.156863
H8    H     H_    0.208534 0.641959 0.592426 0.175264
H9    H     H_    0.174006 0.330574 0.558537 0.181924
H10   H     H_    0.822273 0.668140 0.433930 0.175338
H11   H     H_    0.513674 0.382288 0.249686 0.169796
H12   H     H_    0.572565 0.615519 0.747290 0.154966
H13   H     H_    0.553938 0.389105 0.109468 0.151538
H14   H     H_    0.616636 0.606773 0.887463 0.148286
H15   H     H_    0.532195 0.339323 0.891100 0.139855
H16   H     H_    0.572464 0.659589 0.109241 0.138145
H17   H     H_    0.489938 0.347772 0.748215 0.161765
H18   H     H_    0.533456 0.652722 0.252711 0.155762
H19   H     H_    0.638499 0.270907 0.568684 0.159614
H20   H     H_    0.412266 0.732459 0.403293 0.145413
N1    N     N_2   0.581098 0.464856 0.983176 -0.209167
N2    N     N_2   0.578758 0.533198 0.015655 -0.207318
N3    N     N_R   0.515300 0.716920 0.509720 -0.110367
N4    N     N_R   0.484700 0.283080 0.490280 -0.116861
N5    N     N_2   0.528332 0.980198 0.526312 -0.144718
N6    N     N_2   0.466382 0.019708 0.475910 -0.161388
O1    O     O_R   0.494530 0.422540 0.612660 -0.622560
O2    O     O_R   0.505470 0.577460 0.387340 -0.632185
O3    O     O_R   0.504350 0.561840 0.618900 -0.627592
O4    O     O_R   0.495650 0.438160 0.381100 -0.628458
O5    O     O_R   0.678310 0.430340 0.496890 -0.616687
O6    O     O_R   0.321690 0.569660 0.503110 -0.608346
O7    O     O_R   0.688140 0.569650 0.503130 -0.619178
O8    O     O_R   0.311860 0.430350 0.496870 -0.618569
Zn1   Zn    Zn3+2 0.493440 0.406980 0.495830 0.931041
Zn2   Zn    Zn3+2 0.506560 0.593020 0.504170 0.941035
O9    O     O_3   0.633110 0.880538 0.643177 -0.633910
C41   C     C_3   0.758419 0.857795 0.655837 0.058237
H21   H     H_    0.820260 0.916214 0.654979 0.160758
H22   H     H_    0.795094 0.818061 0.609173 0.111636
C42   C     C_3   0.769019 0.813441 0.737332 -0.333616
H23   H     H_    0.745110 0.856730 0.784261 0.231764
H24   H     H_    0.701282 0.757987 0.741592 0.210966
C43   C     C_3   0.901817 0.785018 0.751658 -0.957090
H25   H     H_    0.926396 0.740057 0.706391 0.269358
H26   H     H_    0.906745 0.753581 0.811330 0.268569
H27   H     H_    0.971324 0.839618 0.748881 0.260563
O10   O     O_3   0.299788 0.114762 0.392229 -0.650553
C44   C     C_3   0.296704 0.147978 0.313182 0.071374
H28   H     H_    0.310828 0.096080 0.272878 0.165717
H29   H     H_    0.372322 0.197324 0.298270 0.118759
C45   C     C_3   0.167517 0.181578 0.296339 -0.348738
H30   H     H_    0.094105 0.129753 0.304898 0.225344
H31   H     H_    0.148812 0.230836 0.338597 0.222978
C46   C     C_3   0.159535 0.218314 0.211780 -0.974980
H32   H     H_    0.230497 0.271547 0.202606 0.269610
H33   H     H_    0.064359 0.241395 0.201325 0.260689
H34   H     H_    0.176186 0.169828 0.168264 0.266944
O11   O     O_3   0.861020 0.207080 0.415223 -0.651020
C47   C     C_3   0.836155 0.215536 0.332735 0.063802
H35   H     H_    0.874183 0.161197 0.303967 0.164635
H36   H     H_    0.883115 0.272439 0.302720 0.123878
C48   C     C_3   0.693894 0.212737 0.318056 -0.328225
H37   H     H_    0.650462 0.151919 0.341373 0.230988
H38   H     H_    0.650902 0.263425 0.349663 0.222656
C49   C     C_3   0.665054 0.222694 0.229596 -1.001134
H39   H     H_    0.705800 0.283858 0.205395 0.269904
H40   H     H_    0.561689 0.220274 0.220285 0.254267
H41   H     H_    0.704684 0.171489 0.196796 0.271965
O12   O     O_3   0.162078 0.793542 0.562480 -0.645610
C50   C     C_3   0.101643 0.869034 0.570174 0.066590
H42   H     H_    0.144887 0.901205 0.621607 0.172015
H43   H     H_    0.000345 0.859323 0.584978 0.110458
C51   C     C_3   0.124142 0.926594 0.496172 -0.337354
H44   H     H_    0.226252 0.944549 0.490745 0.259064
H45   H     H_    0.094786 0.893581 0.441885 0.214488
C52   C     C_3   0.051732 0.005625 0.501080 -0.897793
H46   H     H_    0.949021 0.989185 0.506176 0.254110
H47   H     H_    0.068777 0.045715 0.446543 0.295785
H48   H     H_    0.083490 0.041563 0.553244 0.257331

loop_
_geom_bond_atom_site_label_1
_geom_bond_atom_site_label_2
_ccdc_geom_bond_type
O5    Zn1   S    
C31   H2    S    
C27   C29   A    
C15   H20   S    
C2    C4    S    
C50   H42   S    
C43   H27   S    
O6    Zn2   S    
C51   H44   S    
C18   H3    S    
C46   H34   S    
O9    C41   S    
C30   O12   S    
C9    N1    S    
C20   N6    S    
C35   C37   A    
C43   H26   S    
C37   C40   A    
C2    O2    A    
C52   H47   S    
C38   C39   A    
C44   H29   S    
C41   H22   S    
C13   H17   S    
C49   H39   S    
C33   H9    S    
C23   C40   S    
C24   C39   S    
O3    Zn2   S    
C7    C9    A    
C25   N3    A    
C26   N4    A    
O12   C50   S    
C47   H35   S    
C33   C35   A    
C48   H38   S    
C46   H32   S    
C32   H1    S    
C31   C33   A    
C5    H12   S    
C22   O10   S    
C6    H11   S    
C48   C49   S    
C18   C20   A    
C3    C13   A    
C10   N2    S    
C23   O7    A    
C47   H36   S    
C42   H24   S    
C42   H23   S    
C14   H18   S    
C34   H10   S    
O8    Zn1   S    
C29   O11   S    
C23   O5    A    
C36   C40   A    
C43   H25   S    
C4    C6    A    
C52   H48   S    
C5    C7    A    
C41   H21   S    
C6    C8    A    
C47   C48   S    
C1    O3    A    
C1    C3    S    
C16   H19   S    
C32   C34   A    
C35   C39   A    
O11   C47   S    
C28   C38   A    
C45   H31   S    
C50   H43   S    
C44   C45   S    
C9    C11   A    
C12   H16   S    
C10   C12   A    
C16   C18   A    
C12   C14   A    
O7    Zn2   S    
O1    Zn1   S    
C25   H5    S    
O4    Zn1   S    
C42   C43   S    
C11   H15   S    
C24   O6    A    
C27   H7    S    
C15   C17   A    
C21   C25   A    
C28   H8    S    
C19   C21   A    
C20   C22   A    
C3    C5    A    
C8    H13   S    
C51   H45   S    
C46   H33   S    
C1    O1    A    
O2    Zn2   S    
C28   C30   A    
C17   H4    S    
C29   C31   A    
C52   H46   S    
C30   C32   A    
C11   C13   A    
C41   C42   S    
C24   O8    A    
C49   H40   S    
C27   C37   A    
C36   C38   A    
C45   H30   S    
C17   C19   A    
N4    Zn1   S    
C19   N5    S    
C50   C51   S    
C34   C36   A    
C45   C46   S    
C4    C14   A    
N1    N2    D    
C51   C52   S    
C26   H6    S    
O10   C44   S    
C8    C10   A    
N5    N6    D    
C22   C26   A    
C21   O9    S    
C48   H37   S    
C15   N3    A    
N3    Zn2   S    
C16   N4    A    
C7    H14   S    
C44   H28   S    
C2    O4    A    
C49   H41   S    
