data_mof_unit_25560.cif
_audit_creation_date              2012-12-10T20:26:32-0500
_audit_creation_method            fapswitch 2.2
_symmetry_space_group_name_H-M    P1
_symmetry_Int_Tables_number       1
_space_group_crystal_system       triclinic
_cell_length_a                    10.708049
_cell_length_b                    10.692066
_cell_length_c                    9.868431
_cell_angle_alpha                 89.470715
_cell_angle_beta                  89.612143
_cell_angle_gamma                 90.1143
_cell_volume                      1129.77169219

loop_
_atom_site_label
_atom_site_type_symbol
_atom_type_description
_atom_site_fract_x
_atom_site_fract_y
_atom_site_fract_z
_atom_type_partial_charge
C1    C     C_R   0.503917 0.259797 0.500301 0.879495
C2    C     C_R   0.524850 0.128318 0.499641 -0.103975
C3    C     C_R   0.539806 0.065784 0.375979 -0.235586
C4    C     C_R   0.540508 0.936445 0.375302 -0.233837
C5    C     C_R   0.526272 0.871132 0.498276 -0.100459
C6    C     C_R   0.536418 0.934375 0.620317 0.136026
C7    C     C_3   0.458770 0.924201 0.746230 -0.470779
C8    C     C_3   0.457469 0.065721 0.746989 -0.515305
C9    C     C_R   0.394583 0.468506 0.072512 0.204284
C10   C     C_R   0.600496 0.541765 0.070757 -0.158315
C11   C     C_R   0.600609 0.541515 0.926879 -0.133256
C12   C     C_R   0.262710 0.506594 0.500435 0.946932
C13   C     C_R   0.393930 0.470512 0.929883 0.158195
C14   C     C_3   0.324200 0.350265 0.924405 -0.604271
C15   C     C_3   0.328856 0.345433 0.078519 0.278022
C16   C     C_R   0.504643 0.739985 0.499360 0.869740
C17   C     C_R   0.737528 0.499716 0.499445 0.929148
C18   C     C_2   0.932763 0.544692 0.392108 -0.172227
C19   C     C_2   0.869718 0.496876 0.497823 -0.330062
C20   C     C_2   0.067568 0.540550 0.388567 -0.138936
C21   C     C_2   0.131883 0.528449 0.503145 -0.360679
C22   C     C_R   0.535683 0.062114 0.621129 0.142002
H1    H     H_    0.884980 0.582925 0.304211 0.162224
H2    H     H_    0.682380 0.573719 0.123876 0.150634
H3    H     H_    0.682640 0.573188 0.872009 0.152762
H4    H     H_    0.228832 0.362954 0.882609 0.219511
H5    H     H_    0.379747 0.275874 0.876244 0.183003
H6    H     H_    0.389525 0.270448 0.121727 0.073385
H7    H     H_    0.913628 0.453003 0.584613 0.143226
H8    H     H_    0.113343 0.543396 0.290064 0.218160
H9    H     H_    0.089255 0.537576 0.602539 0.152650
H10   H     H_    0.541617 0.115470 0.279798 0.165801
H11   H     H_    0.542547 0.888813 0.278884 0.171948
H12   H     H_    0.365247 0.882243 0.728249 0.205589
H13   H     H_    0.511520 0.882563 0.832138 0.204453
H14   H     H_    0.363039 0.105400 0.728862 0.202599
N1    N     N_R   0.499170 0.499140 0.142800 -0.138803
N2    N     N_R   0.499170 0.499180 0.857150 -0.101026
O1    O     O_R   0.500020 0.316790 0.614690 -0.613060
O2    O     O_R   0.500000 0.316760 0.385350 -0.628015
O3    O     O_R   0.319080 0.500020 0.614640 -0.621662
O4    O     O_R   0.319070 0.499980 0.385300 -0.584989
O5    O     O_R   0.500000 0.683240 0.614650 -0.618003
O6    O     O_R   0.499980 0.683210 0.385310 -0.626721
O7    O     O_R   0.680930 0.500020 0.614700 -0.628313
O8    O     O_R   0.680920 0.499980 0.385360 -0.621963
Zn1   Zn    Zn3+2 0.500010 0.500020 0.653130 0.941655
Zn2   Zn    Zn3+2 0.499990 0.499980 0.346870 0.950897
H15   H     H_    0.509513 0.105278 0.833807 0.200183
O9    O     O_3   0.209893 0.356916 0.139646 -0.589767
C23   C     C_3   0.156156 0.236812 0.154728 0.109114
H16   H     H_    0.214374 0.176269 0.221577 0.136767
H17   H     H_    0.145277 0.191404 0.054326 0.139605
C24   C     C_3   0.027477 0.248378 0.219621 -0.822626
H18   H     H_    0.968837 0.314117 0.159962 0.258423
H19   H     H_    0.981175 0.155384 0.223038 0.203442
H20   H     H_    0.036239 0.283083 0.324774 0.262761

loop_
_geom_bond_atom_site_label_1
_geom_bond_atom_site_label_2
_ccdc_geom_bond_type
C2    C22   A    
C11   N2    A    
C8    C22   S    
C12   O3    A    
C14   H5    S    
C16   O6    A    
C1    O2    A    
C23   C24   S    
C20   C21   D    
C9    N1    A    
O9    C23   S    
N2    Zn1   S    
C7    C8    S    
C20   H8    S    
C13   C14   S    
C14   H4    S    
N1    Zn2   S    
C21   H9    S    
C16   O5    A    
C15   H6    S    
C6    C7    S    
C7    H13   S    
C10   N1    A    
C12   C21   S    
C17   C19   S    
C17   O7    A    
C2    C3    A    
O4    Zn2   S    
C18   C20   S    
O7    Zn1   S    
O3    Zn1   S    
C5    C6    A    
C7    H12   S    
C24   H19   S    
C10   C11   A    
C1    O1    A    
C18   H1    S    
C6    C22   A    
O8    Zn2   S    
O6    Zn2   S    
C9    C13   A    
C17   O8    A    
C3    C4    A    
O1    Zn1   S    
C1    C2    S    
C8    H14   S    
C15   O9    S    
C24   H18   S    
O2    Zn2   S    
C11   H3    S    
C4    H11   S    
C18   C19   D    
C5    C16   S    
C12   O4    A    
C3    H10   S    
C10   H2    S    
C14   C15   S    
O5    Zn1   S    
C8    H15   S    
C13   N2    A    
C23   H16   S    
C9    C15   S    
C4    C5    A    
C23   H17   S    
C24   H20   S    
C19   H7    S    
