data_mof_unit_19293.cif
_audit_creation_date              2012-12-10T17:53:22-0500
_audit_creation_method            fapswitch 2.2
_symmetry_space_group_name_H-M    P1
_symmetry_Int_Tables_number       1
_space_group_crystal_system       triclinic
_cell_length_a                    23.328228
_cell_length_b                    10.452969
_cell_length_c                    9.969441
_cell_angle_alpha                 86.784015
_cell_angle_beta                  88.687058
_cell_angle_gamma                 92.308002
_cell_volume                      2424.47095286

loop_
_atom_site_label
_atom_site_type_symbol
_atom_type_description
_atom_site_fract_x
_atom_site_fract_y
_atom_site_fract_z
_atom_type_partial_charge
C1    C     C_R   0.511205 0.263754 0.503720 0.965899
C2    C     C_R   0.123521 0.654184 0.514989 0.556265
C3    C     C_R   0.248356 0.633107 0.421083 -0.007582
C4    C     C_R   0.389655 0.499608 0.501161 0.961486
C5    C     C_R   0.307062 0.619802 0.430831 -0.246139
C6    C     C_R   0.328136 0.512368 0.500815 -0.112540
C7    C     C_R   0.290139 0.417334 0.561295 0.381260
C8    C     C_R   0.231398 0.433156 0.554506 -0.096188
C9    C     C_R   0.210349 0.539834 0.482978 0.208226
C10   C     C_R   0.764542 0.506483 0.598219 -0.099426
C11   C     C_R   0.705159 0.491085 0.606132 -0.091058
C12   C     C_R   0.968206 0.351951 0.362509 -0.084030
C13   C     C_R   0.673008 0.516888 0.491683 -0.088548
C14   C     C_R   0.700615 0.560670 0.370138 -0.224846
C15   C     C_R   0.760048 0.578409 0.361880 0.399959
C16   C     C_R   0.496721 0.741189 0.496556 0.867089
C17   C     C_R   0.792028 0.549123 0.476688 0.146063
C18   C     C_R   0.518761 0.084448 0.764812 0.327028
C19   C     C_R   0.493713 0.004266 0.870458 0.350483
C20   C     C_R   0.452296 0.909212 0.842618 0.341900
C21   C     C_R   0.444642 0.878390 0.710018 -0.220063
C22   C     C_R   0.479879 0.939671 0.606952 -0.035517
C23   C     C_R   0.027660 0.351775 0.359658 -0.105454
C24   C     C_R   0.507275 0.056356 0.630191 -0.111629
C25   C     C_R   0.527732 0.131779 0.516635 -0.176943
C26   C     C_R   0.547516 0.072754 0.402868 0.409490
C27   C     C_R   0.531806 0.944642 0.390574 -0.203947
C28   C     C_R   0.610605 0.503028 0.498149 0.927565
C29   C     C_R   0.496779 0.878918 0.490542 -0.105362
C30   C     C_R   0.404205 0.385989 0.146538 0.381840
C31   C     C_R   0.352794 0.400115 0.078452 0.329267
C32   C     C_R   0.354450 0.381775 0.941157 -0.192192
C33   C     C_R   0.407569 0.384684 0.873316 -0.153218
C34   C     C_R   0.059713 0.454433 0.408815 -0.024046
C35   C     C_R   0.455522 0.438946 0.933727 0.067176
C36   C     C_R   0.454754 0.439340 0.077594 0.019766
C37   C     C_R   0.542164 0.560977 0.066237 -0.044281
C38   C     C_R   0.541708 0.563401 0.923779 0.472392
C39   C     C_R   0.882220 0.659381 0.515266 0.598821
C40   C     C_R   0.880223 0.454362 0.419708 0.613615
C41   C     C_R   0.939782 0.455566 0.412932 -0.011442
C42   C     C_R   0.971345 0.561944 0.458946 -0.048621
C43   C     C_R   0.942853 0.668374 0.507722 -0.144937
C44   C     C_R   0.031645 0.560009 0.457905 -0.006914
C45   C     C_R   0.063874 0.662171 0.508051 -0.086330
C46   C     C_R   0.036206 0.769460 0.550817 -0.186513
C47   C     C_R   0.976453 0.776406 0.547891 0.364947
C48   C     C_R   0.119446 0.453019 0.412422 0.546407
Cl1   Cl    Cl    0.574054 0.197388 0.801269 -0.449589
Cl2   Cl    Cl    0.520537 0.007547 0.033047 -0.373491
Cl3   Cl    Cl    0.416312 0.813781 0.971930 -0.524706
Cl4   Cl    Cl    0.286338 0.386588 0.166360 -0.453928
Cl5   Cl    Cl    0.594627 0.660351 0.835570 -0.512394
Cl6   Cl    Cl    0.313646 0.271852 0.633284 -0.582329
H1    H     H_    0.944613 0.270061 0.326061 0.207173
H2    H     H_    0.061560 0.849445 0.585615 0.239241
H3    H     H_    0.232383 0.714781 0.363988 0.185897
H4    H     H_    0.336190 0.692371 0.382098 0.185788
H5    H     H_    0.201823 0.360285 0.600890 0.192296
H6    H     H_    0.789486 0.483767 0.686054 0.193625
H7    H     H_    0.825565 0.816149 0.277621 0.381788
H8    H     H_    0.658899 0.989393 0.289020 0.358074
H9    H     H_    0.394106 0.140056 0.423907 0.383936
H10   H     H_    0.925270 0.979437 0.385282 0.350966
H11   H     H_    0.684531 0.457540 0.700784 0.221344
H12   H     H_    0.675795 0.582390 0.281869 0.203643
H13   H     H_    0.416391 0.797186 0.689997 0.194814
H14   H     H_    0.549802 0.894210 0.308565 0.213634
H15   H     H_    0.576183 0.612162 0.115565 0.169520
H16   H     H_    0.048310 0.269822 0.321320 0.206592
H17   H     H_    0.315310 0.358731 0.890243 0.238487
H18   H     H_    0.410691 0.346581 0.776215 0.246135
N1    N     N_R   0.853113 0.555209 0.469325 -0.352371
N2    N     N_R   0.149869 0.550056 0.468711 -0.353249
N3    N     N_R   0.499460 0.498800 0.142780 -0.127519
N4    N     N_R   0.499440 0.498720 0.857170 -0.127604
O1    O     O_R   0.500000 0.316780 0.614690 -0.609890
O2    O     O_R   0.583850 0.500050 0.614640 -0.561369
O3    O     O_R   0.583840 0.500030 0.385310 -0.621329
O4    O     O_2   0.851927 0.751170 0.569745 -0.431784
O5    O     O_2   0.819580 0.525875 0.141192 -0.192287
O6    O     O_2   0.750083 0.693770 0.115171 -0.238353
O7    O     O_3   0.845371 0.746938 0.233761 -0.515926
O8    O     O_2   0.577883 0.238865 0.193323 -0.158585
O9    O     O_2   0.643406 0.222885 0.380063 -0.304752
O10   O     O_3   0.638780 0.037634 0.217179 -0.443218
O11   O     O_2   0.361606 0.141642 0.161489 -0.212377
O12   O     O_2   0.849244 0.352470 0.378658 -0.473719
O13   O     O_2   0.462924 0.174721 0.202897 -0.240452
O14   O     O_3   0.389140 0.229302 0.388534 -0.513475
O15   O     O_2   0.916136 0.907878 0.722240 -0.144314
O16   O     O_2   0.994743 0.026708 0.599082 -0.295573
O17   O     O_3   0.902334 0.975047 0.470394 -0.455108
O18   O     O_2   0.147043 0.355192 0.360652 -0.479369
O19   O     O_2   0.154833 0.748352 0.569834 -0.518668
O20   O     O_R   0.500000 0.316750 0.385360 -0.522661
O21   O     O_R   0.416160 0.499970 0.614690 -0.647950
O22   O     O_R   0.416150 0.499950 0.385360 -0.600133
O23   O     O_R   0.500000 0.683250 0.614640 -0.582813
O24   O     O_R   0.500000 0.683220 0.385310 -0.619810
S1    S     S_3+6 0.793329 0.635840 0.207491 0.093975
S2    S     S_3+6 0.602518 0.148122 0.296767 0.124593
S3    S     S_3+6 0.405250 0.228543 0.223761 0.106017
S4    S     S_3+6 0.947805 0.925039 0.589048 0.111911
Zn1   Zn    Zn3+2 0.500000 0.500020 0.653130 1.040010
Zn2   Zn    Zn3+2 0.500000 0.499980 0.346870 1.062457

loop_
_geom_bond_atom_site_label_1
_geom_bond_atom_site_label_2
_ccdc_geom_bond_type
C17   N1    S    
N4    Zn1   S    
C22   C29   A    
C37   H15   S    
C27   C29   A    
O8    S2    D    
C41   C42   A    
C35   C36   A    
C31   Cl4   S    
C7    C8    A    
C38   N4    A    
C45   C46   A    
H8    O10   S    
C12   C23   A    
C26   C27   A    
C12   C41   A    
C48   O18   S    
C5    H4    S    
O2    Zn1   S    
C18   C24   A    
C21   C22   A    
C2    O19   S    
H10   O17   S    
C20   Cl3   S    
C4    O22   A    
C8    H5    S    
C30   C31   A    
C10   C17   A    
C1    O1    A    
C40   N1    A    
C18   C19   A    
C28   O3    A    
C27   H14   S    
C33   H18   S    
C19   C20   A    
C8    C9    A    
C30   S3    S    
C13   C28   S    
C28   O2    A    
O15   S4    D    
C2    N2    A    
O21   Zn1   S    
C37   N3    A    
C4    O21   A    
O13   S3    D    
C1    C25   S    
C23   H16   S    
C42   C44   A    
O17   S4    S    
C32   H17   S    
C2    C45   A    
O23   Zn1   S    
C35   N4    A    
C48   N2    A    
C39   O4    S    
C34   C44   A    
C24   C25   A    
C4    C6    S    
H7    O7    S    
C16   O24   A    
O5    S1    D    
C16   C29   S    
O3    Zn2   S    
C10   H6    S    
C37   C38   A    
C3    C9    A    
C36   N3    A    
C31   C32   A    
C23   C34   A    
C14   H12   S    
C15   S1    S    
O11   S3    D    
C3    H3    S    
C40   C41   A    
C22   C24   A    
C34   C48   A    
C9    N2    S    
O10   S2    S    
C44   C45   A    
C15   C17   A    
O20   Zn2   S    
C46   C47   A    
C47   S4    S    
O7    S1    S    
C3    C5    A    
C39   C43   A    
C16   O23   A    
C6    C7    A    
O24   Zn2   S    
O22   Zn2   S    
C30   C36   A    
C32   C33   A    
C40   O12   S    
O1    Zn1   S    
C25   C26   A    
C26   S2    S    
C11   C13   A    
C19   Cl2   S    
C5    C6    A    
C38   Cl5   S    
C1    O20   A    
H9    O14   S    
C33   C35   A    
O6    S1    D    
C39   N1    A    
O14   S3    S    
C12   H1    S    
C10   C11   A    
O16   S4    D    
C20   C21   A    
N3    Zn2   S    
C42   C43   A    
C46   H2    S    
C14   C15   A    
C7    Cl6   S    
C13   C14   A    
C43   C47   A    
C21   H13   S    
O9    S2    D    
C11   H11   S    
C18   Cl1   S    
