data_mof_unit_22140.cif
_audit_creation_date              2013-03-05T15:52:13-0500
_audit_creation_method            fapswitch 2.2
_symmetry_space_group_name_H-M    P1
_symmetry_Int_Tables_number       1
_space_group_crystal_system       triclinic
_cell_length_a                    23.516984
_cell_length_b                    10.89428
_cell_length_c                    9.60046
_cell_angle_alpha                 90.985505
_cell_angle_beta                  90.513477
_cell_angle_gamma                 92.98585
_cell_volume                      2455.82152393

loop_
_atom_site_label
_atom_site_type_symbol
_atom_site_description
_atom_site_fract_x
_atom_site_fract_y
_atom_site_fract_z
_atom_type_partial_charge
O1    O     O_R   0.500000 0.319640 0.618810 -0.586353
O2    O     O_R   0.500000 0.319660 0.381240 -0.589403
C1    C     C_R   0.504632 0.263311 0.499796 0.789284
O3    O     O_R   0.417880 0.499950 0.618810 -0.575914
O4    O     O_R   0.417880 0.499980 0.381240 -0.574853
C2    C     C_R   0.391310 0.503303 0.499885 0.815699
Cu1   Cu    Cu3+1 0.500000 0.499990 0.640660 0.926224
Cu2   Cu    Cu3+1 0.500000 0.500010 0.359340 0.929338
O5    O     O_R   0.500000 0.680340 0.618760 -0.610633
O6    O     O_R   0.500000 0.680360 0.381190 -0.598566
O7    O     O_R   0.582120 0.500020 0.618760 -0.601506
O8    O     O_R   0.582120 0.500050 0.381190 -0.595192
C3    C     C_R   0.497650 0.737790 0.502091 0.796095
C4    C     C_R   0.608931 0.496835 0.500276 0.805751
C5    C     C_R   0.881602 0.611305 0.501974 0.534939
N1    N     N_R   0.852238 0.502679 0.525011 -0.466290
C6    C     C_R   0.878850 0.398447 0.556763 0.538502
C7    C     C_R   0.939079 0.398706 0.562443 -0.049935
C8    C     C_R   0.970470 0.510883 0.536597 -0.057484
C9    C     C_R   0.941718 0.620376 0.513868 -0.109791
C10   C     C_R   0.968831 0.290477 0.587577 0.155004
C11   C     C_R   0.027930 0.290858 0.562238 0.166279
C12   C     C_R   0.059617 0.403793 0.546932 -0.051829
C13   C     C_R   0.030692 0.513523 0.532418 -0.088830
C14   C     C_R   0.062207 0.625625 0.511077 -0.029900
C15   C     C_R   0.033934 0.737101 0.512728 0.150584
C16   C     C_R   0.973850 0.734260 0.504111 -0.002343
C17   C     C_R   0.119846 0.411466 0.548634 0.547028
N2    N     N_R   0.148978 0.517456 0.512392 -0.460928
C18   C     C_R   0.121359 0.622025 0.487905 0.540386
O9    O     O_2   0.852131 0.708591 0.464456 -0.531528
O10   O     O_2   0.846464 0.294590 0.576595 -0.541228
O11   O     O_2   0.149412 0.315758 0.590898 -0.539779
O12   O     O_2   0.150914 0.720387 0.436612 -0.536004
C19   C     C_R   0.243429 0.597968 0.592728 -0.097545
H1    H     H_    0.222604 0.659205 0.663750 0.142658
C20   C     C_R   0.302971 0.596099 0.591851 0.133367
C21   C     C_R   0.329237 0.512786 0.500728 -0.043003
C22   C     C_R   0.295525 0.436439 0.410434 -0.272235
H2    H     H_    0.314827 0.371302 0.341519 0.153717
C23   C     C_R   0.236421 0.439884 0.411992 -0.093272
H3    H     H_    0.210949 0.378992 0.343108 0.152063
C24   C     C_R   0.210068 0.519531 0.504242 0.307751
C25   C     C_R   0.762946 0.454170 0.391291 0.031928
C26   C     C_R   0.702426 0.443998 0.387865 0.115416
C27   C     C_R   0.671689 0.492550 0.501666 -0.081406
C28   C     C_R   0.701333 0.538091 0.620629 -0.212959
H4    H     H_    0.678894 0.573765 0.709278 0.183255
C29   C     C_R   0.760209 0.538397 0.627726 -0.086499
H5    H     H_    0.782184 0.572814 0.721224 0.161928
C30   C     C_R   0.791174 0.497591 0.514361 0.243132
H6    H     H_    0.493794 0.106567 0.280107 0.160917
C31   C     C_R   0.543630 0.127953 0.749014 -0.124589
H7    H     H_    0.565922 0.217088 0.744661 0.161217
C32   C     C_R   0.540359 0.072268 0.878348 -0.145689
H8    H     H_    0.557476 0.120228 0.970427 0.135971
C33   C     C_R   0.513003 0.956992 0.889584 -0.146579
H9    H     H_    0.507270 0.916427 0.991021 0.136632
C34   C     C_R   0.494359 0.892150 0.769822 -0.154934
H10   H     H_    0.471073 0.805991 0.786510 0.166610
C35   C     C_R   0.503197 0.941931 0.635475 0.120552
C36   C     C_R   0.519582 0.068067 0.628368 0.107958
C37   C     C_R   0.510471 0.129884 0.501645 -0.122639
C38   C     C_R   0.499348 0.061726 0.378802 -0.211312
H11   H     H_    0.489058 0.884898 0.283120 0.164923
C39   C     C_R   0.494935 0.934656 0.381312 -0.198039
C40   C     C_R   0.496393 0.872737 0.508130 -0.110513
C41   C     C_R   0.576759 0.662388 0.147961 -0.151106
H12   H     H_    0.579091 0.669107 0.257853 0.219465
C42   C     C_R   0.614229 0.744094 0.079197 0.069399
C43   C     C_R   0.614111 0.744289 0.933380 -0.017078
C44   C     C_R   0.576294 0.662332 0.860822 -0.196282
H13   H     H_    0.577714 0.668250 0.751169 0.245186
C45   C     C_R   0.537887 0.579281 0.927848 0.138604
C46   C     C_R   0.538102 0.579004 0.076868 0.124402
N3    N     N_R   0.500540 0.501210 0.147910 -0.190511
C47   C     C_R   0.462379 0.426453 0.069165 0.257698
H14   H     H_    0.433756 0.367076 0.861416 0.152694
C48   C     C_R   0.463710 0.425771 0.921606 -0.055146
N4    N     N_R   0.500560 0.501290 0.852040 -0.215139
C49   C     C_3   0.939211 0.175696 0.646407 -0.722415
H15   H     H_    0.913272 0.125889 0.564181 0.271623
H16   H     H_    0.969540 0.111437 0.689977 0.200567
H17   H     H_    0.912294 0.200704 0.735886 0.256497
C50   C     C_3   0.671294 0.372231 0.271080 -0.720585
H18   H     H_    0.634435 0.316633 0.312088 0.208465
H19   H     H_    0.656579 0.436100 0.191042 0.253615
H20   H     H_    0.698341 0.303828 0.221464 0.241628
C51   C     C_3   0.414012 0.351758 0.132823 -0.801886
H21   H     H_    0.394040 0.284445 0.056506 0.184001
H22   H     H_    0.427417 0.296988 0.221006 0.258137
H23   H     H_    0.380345 0.413819 0.163562 0.236032
C52   C     C_3   0.054905 0.170108 0.532543 -0.765298
H24   H     H_    0.086735 0.179613 0.448188 0.252747
H25   H     H_    0.074880 0.136135 0.628708 0.253819
H26   H     H_    0.022944 0.100562 0.490986 0.251292
C53   C     C_3   0.653335 0.831431 0.163936 -0.838135
H27   H     H_    0.647784 0.819635 0.277805 0.249232
H28   H     H_    0.698377 0.814871 0.139449 0.249431
H29   H     H_    0.644262 0.927833 0.139725 0.224010
C54   C     C_2   0.652490 0.831028 0.854949 0.369835
H30   H     H_    0.682828 0.893547 0.909119 0.100981
O13   O     O_2   0.650590 0.834334 0.727873 -0.554466
C55   C     C_3   0.066567 0.858356 0.544065 -0.724761
H31   H     H_    0.105721 0.845709 0.606376 0.242254
H32   H     H_    0.077319 0.905930 0.445691 0.274273
H33   H     H_    0.041224 0.917736 0.611771 0.186591
C56   C     C_2   0.945621 0.852285 0.490718 0.432961
H34   H     H_    0.913638 0.877737 0.565127 0.099884
O14   O     O_2   0.957728 0.921022 0.395153 -0.539037
C57   C     C_3   0.337248 0.684845 0.686022 -0.834033
H35   H     H_    0.369520 0.737896 0.624438 0.221249
H36   H     H_    0.309886 0.751669 0.737871 0.227641
H37   H     H_    0.358787 0.634148 0.768867 0.248131
C58   C     C_2   0.797769 0.424566 0.267539 0.401212
H38   H     H_    0.840905 0.395783 0.280661 0.085550
O15   O     O_2   0.779839 0.438001 0.149318 -0.538834

loop_
_geom_bond_atom_site_label_1
_geom_bond_atom_site_label_2
_geom_bond_distance
_ccdc_geom_bond_type
C32   H8    1.082730 S    
C52   H24   1.110225 S    
C7    C10   1.425032 A    
C23   H3    1.082904 S    
C8    C9    1.420574 A    
N1    C30   1.436881 S    
C53   H29   1.110583 S    
C55   H32   1.109944 S    
C53   H27   1.110979 S    
Cu1   Cu2   2.700804 S    
C4    C27   1.478981 S    
C31   H7    1.080864 S    
C41   C46   1.413876 A    
Cu1   O7    1.944482 S    
C47   C51   1.504204 S    
C15   C16   1.413359 A    
N2    C18   1.363259 A    
C17   N2    1.363590 A    
C19   C20   1.401562 A    
C21   C22   1.402129 A    
O7    C4    1.306305 A    
C33   C34   1.394269 A    
C58   H38   1.084185 S    
Cu2   N3    2.030242 S    
C56   H34   1.085105 S    
C7    C8    1.421182 A    
O5    C3    1.294584 A    
C15   C55   1.516925 S    
C57   H35   1.110706 S    
C25   C58   1.489287 S    
C41   H12   1.057033 S    
C29   C30   1.394181 A    
C12   C13   1.414191 A    
C2    C21   1.468866 S    
C42   C43   1.399922 A    
C51   H22   1.097415 S    
C19   C24   1.400222 A    
C42   C53   1.510530 S    
C47   C48   1.417164 A    
C39   C40   1.403014 A    
C43   C54   1.490751 S    
C34   H10   1.076943 S    
C52   H25   1.109995 S    
C45   N4    1.382650 A    
C10   C11   1.412903 A    
N2    C24   1.438519 S    
C23   C24   1.400271 A    
O3    Cu1   1.940681 S    
C55   H31   1.109429 S    
C49   H16   1.109277 S    
C49   H15   1.109885 S    
C31   C32   1.392278 A    
C5    C9    1.415519 A    
C34   C35   1.420564 A    
C45   C46   1.430685 A    
C18   O12   1.349277 S    
C50   H19   1.110438 S    
C54   H30   1.083476 S    
C13   C14   1.414147 A    
C44   C45   1.412032 A    
H6    C38   1.083441 S    
C22   H2    1.081733 S    
H14   C48   1.082632 S    
N1    C6    1.362562 A    
C58   O15   1.221049 D    
C14   C15   1.414516 A    
C50   H18   1.110355 S    
C48   N4    1.352371 A    
O1    C1    1.295777 A    
C19   H1    1.083610 S    
C38   C39   1.383459 A    
C26   C50   1.516535 S    
C46   N3    1.384350 A    
C20   C21   1.418248 A    
C31   C36   1.418054 A    
C35   C40   1.428547 A    
C28   H4    1.082520 S    
Cu2   O8    1.940681 S    
C36   C37   1.420608 A    
C6    C7    1.416812 A    
C57   H36   1.110806 S    
C12   C17   1.414437 A    
N3    C47   1.389489 A    
C51   H23   1.106423 S    
C25   C30   1.412252 A    
O3    C2    1.298599 A    
C10   C49   1.519359 S    
C17   O11   1.349164 S    
H11   C39   1.083474 S    
C52   H26   1.105914 S    
C32   C33   1.387226 A    
C6    O10   1.347860 S    
C11   C52   1.513765 S    
C49   H17   1.110203 S    
C25   C26   1.421835 A    
C3    C40   1.472147 S    
C50   H20   1.108775 S    
C14   C18   1.413185 A    
Cu1   O5    1.979594 S    
C27   C28   1.402410 A    
C53   H28   1.110292 S    
O1    Cu1   1.972358 S    
O2    Cu2   1.979592 S    
O8    C4    1.302548 A    
C44   H13   1.056519 S    
O6    C3    1.312064 A    
O4    Cu2   1.944484 S    
C5    O9    1.348538 S    
C9    C16   1.423613 A    
C1    C37   1.467560 S    
C28   C29   1.385470 A    
C54   O13   1.221618 D    
C8    C13   1.415963 A    
C43   C44   1.399337 A    
C33   H9    1.082958 S    
O4    C2    1.304940 A    
C16   C56   1.484458 S    
C56   O14   1.220531 D    
O2    C1    1.308806 A    
C57   H37   1.109602 S    
C35   C36   1.410662 A    
C20   C57   1.509158 S    
C37   C38   1.398120 A    
C26   C27   1.424798 A    
C22   C23   1.392598 A    
Cu2   O6    1.972359 S    
C29   H5    1.083191 S    
C41   C42   1.397682 A    
C11   C12   1.415387 A    
C51   H21   1.111151 S    
C55   H33   1.108537 S    
C5    N1    1.361176 A    
Cu1   N4    2.029071 S    
