data_mof_unit_5439.cif
_audit_creation_date              2012-10-26T21:06:58-0400
_audit_creation_method            fapswitch 2.2
_symmetry_space_group_name_H-M    P1
_symmetry_Int_Tables_number       1
_space_group_crystal_system       triclinic
_cell_length_a                    10.710619
_cell_length_b                    8.706983
_cell_length_c                    7.444673
_cell_angle_alpha                 102.724905
_cell_angle_beta                  94.870041
_cell_angle_gamma                 92.61187
_cell_volume                      673.295363891

loop_
_atom_site_label
_atom_site_type_symbol
_atom_type_description
_atom_site_fract_x
_atom_site_fract_y
_atom_site_fract_z
_atom_type_partial_charge
C1    C     C_R   0.488447 0.199978 0.453507 0.548113
C2    C     C_3   0.084284 0.518930 0.701163 -0.263434
C3    C     C_3   0.941287 0.515452 0.699885 -0.245774
C4    C     C_3   0.071920 0.645710 0.426477 -0.010500
C5    C     C_3   0.059402 0.344927 0.381481 -0.234655
C6    C     C_3   0.122079 0.503013 0.501468 0.083213
C7    C     C_3   0.878055 0.501685 0.499927 0.040399
C8    C     C_3   0.927121 0.644532 0.427787 -0.223566
C9    C     C_3   0.915342 0.347271 0.374395 -0.237405
C10   C     C_2   0.466981 0.032322 0.427774 0.049471
C11   C     C_2   0.505067 0.967422 0.568302 -0.123707
C12   C     C_R   0.260000 0.501522 0.501314 0.557731
C13   C     C_R   0.501540 0.799963 0.545967 0.557988
C14   C     C_R   0.740093 0.500239 0.499272 0.543684
Cu1   Cu    Cu3+1 0.514070 0.517380 0.684380 0.937399
Cu2   Cu    Cu3+1 0.485930 0.482620 0.315620 0.962452
H1    H     H_    0.126532 0.631571 0.792194 0.131666
H2    H     H_    0.114061 0.756526 0.521866 0.121248
H3    H     H_    0.901876 0.756111 0.518606 0.086453
H4    H     H_    0.088211 0.322598 0.238497 0.128266
H5    H     H_    0.090560 0.244990 0.441419 0.092939
H6    H     H_    0.876446 0.243176 0.420458 0.110190
H7    H     H_    0.085217 0.752355 0.207772 0.205382
H8    H     H_    0.058284 0.555401 0.142561 0.229110
H9    H     H_    0.383926 0.008635 0.160113 0.234729
H10   H     H_    0.314416 0.900532 0.287363 0.230658
H11   H     H_    0.875500 0.337698 0.228997 0.127292
H12   H     H_    0.880544 0.640010 0.287031 0.123364
H13   H     H_    0.546002 0.038711 0.700860 0.102532
H14   H     H_    0.400953 0.378398 0.948107 0.232451
H15   H     H_    0.598972 0.621688 0.051923 0.241719
H16   H     H_    0.119697 0.420776 0.760964 0.124644
H17   H     H_    0.908153 0.413526 0.755246 0.129237
H18   H     H_    0.915428 0.625046 0.793998 0.124153
N1    N     N_2   0.464720 0.456420 0.038520 -0.250851
N2    N     N_2   0.535280 0.543580 0.961480 -0.246454
N3    N     N_3   0.108988 0.646042 0.240972 -0.618627
N4    N     N_3   0.402144 0.940080 0.256957 -0.586405
O1    O     O_R   0.509140 0.286130 0.619770 -0.523450
O2    O     O_R   0.485380 0.256770 0.308360 -0.506888
O3    O     O_R   0.329570 0.514650 0.655700 -0.522552
O4    O     O_R   0.305810 0.485300 0.344290 -0.474548
O5    O     O_R   0.514620 0.743230 0.691640 -0.504565
O6    O     O_R   0.490860 0.713870 0.380230 -0.455072
O7    O     O_R   0.694190 0.514700 0.655710 -0.512422
O8    O     O_R   0.670430 0.485350 0.344300 -0.515608

loop_
_geom_bond_atom_site_label_1
_geom_bond_atom_site_label_2
_ccdc_geom_bond_type
C5    C9    S    
C12   O3    A    
H9    N4    S    
Cu2   O6    S    
N1    N2    D    
C1    O2    A    
C9    H11   S    
C4    C8    S    
C10   N4    S    
C4    H2    S    
C2    C3    S    
Cu1   O5    S    
C7    C8    S    
C14   O8    A    
C5    H4    S    
C2    H1    S    
C11   C13   S    
Cu1   O1    S    
C2    C6    S    
H14   N1    S    
Cu2   O2    S    
C2    H16   S    
H8    N3    S    
C14   O7    A    
C3    C7    S    
C7    C14   S    
Cu2   N1    S    
C6    C12   S    
C5    C6    S    
C8    H12   S    
C9    H6    S    
C8    H3    S    
C10   C11   D    
C1    O1    A    
Cu1   O3    S    
Cu1   Cu2   S    
Cu2   O4    S    
Cu1   N2    S    
C13   O5    A    
C5    H5    S    
C4    N3    S    
C11   H13   S    
C4    C6    S    
Cu2   O8    S    
C7    C9    S    
C3    H17   S    
H15   N2    S    
H10   N4    S    
C12   O4    A    
C3    H18   S    
H7    N3    S    
C13   O6    A    
C1    C10   S    
Cu1   O7    S    
