data_mof_unit_14428.cif
_audit_creation_date              2013-03-05T15:40:55-0500
_audit_creation_method            fapswitch 2.2
_symmetry_space_group_name_H-M    P1
_symmetry_Int_Tables_number       1
_space_group_crystal_system       triclinic
_cell_length_a                    11.803407
_cell_length_b                    11.950638
_cell_length_c                    19.259486
_cell_angle_alpha                 89.883939
_cell_angle_beta                  89.959425
_cell_angle_gamma                 120.049678
_cell_volume                      2351.55113202

loop_
_atom_site_label
_atom_site_type_symbol
_atom_site_description
_atom_site_fract_x
_atom_site_fract_y
_atom_site_fract_z
_atom_type_partial_charge
O1    O     O_R   0.434830 0.101190 0.575190 -0.492700
O2    O     O_R   0.898810 0.333640 0.575190 -0.495150
O3    O     O_R   0.666360 0.565170 0.575190 -0.490791
O4    O     O_R   0.480130 0.360720 0.570290 -0.502705
O5    O     O_R   0.639280 0.119410 0.570290 -0.500881
O6    O     O_R   0.880590 0.519870 0.570290 -0.499388
C1    C     C_R   0.550883 0.476835 0.596649 0.535330
C2    C     C_R   0.522358 0.073767 0.596607 0.538941
C3    C     C_R   0.923292 0.446972 0.597146 0.535680
O7    O     O_R   0.439410 0.104260 0.424150 -0.429658
O8    O     O_R   0.895740 0.335150 0.424150 -0.428862
O9    O     O_R   0.664850 0.560590 0.424150 -0.429068
O10   O     O_R   0.484380 0.363570 0.430280 -0.477075
O11   O     O_R   0.636430 0.120810 0.430280 -0.476753
O12   O     O_R   0.879190 0.515620 0.430280 -0.476745
C4    C     C_R   0.546779 0.480077 0.407486 0.603149
C5    C     C_R   0.519545 0.066989 0.407288 0.607928
C6    C     C_R   0.931257 0.451965 0.406476 0.607175
Cr1   Cr    Cr6+3 0.468420 0.238090 0.499960 1.145641
Cr2   Cr    Cr6+3 0.761910 0.230330 0.499960 1.143764
Cr3   Cr    Cr6+3 0.769670 0.531580 0.499960 1.147486
O13   O     O_3   0.666667 0.333333 0.499980 -0.321831
C7    C     C_1   0.034026 0.514919 0.859113 0.012270
C8    C     C_1   0.452816 0.565580 0.847849 -0.002599
C9    C     C_1   0.434412 0.887249 0.847761 -0.006652
C10   C     C_1   0.995023 0.495460 0.726404 -0.022435
C11   C     C_1   0.483596 0.522235 0.718649 -0.015577
C12   C     C_1   0.476273 0.961014 0.718472 -0.015464
C13   C     C_1   0.013667 0.507011 0.798075 -0.028016
C14   C     C_1   0.464115 0.545396 0.787886 -0.021552
C15   C     C_1   0.454085 0.918547 0.787737 -0.022888
C16   C     C_1   0.971348 0.478691 0.665790 0.025995
C17   C     C_1   0.508665 0.501989 0.661212 0.025343
C18   C     C_1   0.496179 0.006305 0.661063 0.026261
C19   C     C_2   0.020438 0.511784 0.348728 -0.040257
C20   C     C_2   0.483019 0.515730 0.354241 -0.035048
C21   C     C_2   0.484415 0.969526 0.353471 -0.035458
C22   C     C_2   0.028736 0.506546 0.194236 0.181859
C23   C     C_2   0.461689 0.555724 0.203991 0.164888
C24   C     C_2   0.441632 0.908148 0.203727 0.163196
C25   C     C_2   0.102823 0.484411 0.240166 -0.149528
C26   C     C_2   0.500331 0.646777 0.253655 -0.168221
C27   C     C_2   0.352050 0.849547 0.254555 -0.169607
C28   C     C_2   0.071263 0.451554 0.313239 0.180260
C29   C     C_2   0.539790 0.633135 0.324074 0.195600
C30   C     C_2   0.364919 0.904105 0.324476 0.199283
H1    H     H_    0.190688 0.485287 0.222381 0.111243
H2    H     H_    0.512953 0.740348 0.240443 0.093683
H3    H     H_    0.261822 0.760496 0.243202 0.086846
H4    H     H_    0.023259 0.596823 0.326353 0.147685
H5    H     H_    0.393328 0.437135 0.332800 0.156008
H6    H     H_    0.565134 0.962777 0.330800 0.148663
O14   O     O_R   0.548200 0.655360 0.951320 -0.471927
O15   O     O_R   0.344640 0.892840 0.951320 -0.455587
O16   O     O_R   0.107160 0.451800 0.951320 -0.501969
O17   O     O_R   0.505020 0.871000 0.955840 -0.479152
O18   O     O_R   0.129000 0.634020 0.955840 -0.517418
O19   O     O_R   0.365980 0.494980 0.955840 -0.455584
C31   C     C_R   0.408303 0.851014 0.919119 0.528702
C32   C     C_R   0.075201 0.527332 0.929043 0.557798
C33   C     C_R   0.442056 0.591211 0.919183 0.524968
O20   O     O_R   0.543640 0.655270 0.102360 -0.442634
O21   O     O_R   0.344730 0.888370 0.102360 -0.426732
O22   O     O_R   0.111630 0.456360 0.102360 -0.505419
O23   O     O_R   0.500790 0.870920 0.095850 -0.441297
O24   O     O_R   0.129080 0.629870 0.095850 -0.512954
O25   O     O_R   0.370130 0.499210 0.095850 -0.418253
C34   C     C_R   0.408452 0.850041 0.135398 0.498564
C35   C     C_R   0.072203 0.524579 0.122722 0.591417
C36   C     C_R   0.440126 0.590463 0.135095 0.496697
Cr4   Cr    Cr6+3 0.515700 0.760130 0.026360 1.107155
Cr5   Cr    Cr6+3 0.239870 0.755570 0.026360 1.083771
Cr6   Cr    Cr6+3 0.244430 0.484300 0.026360 1.100043
O26   O     O_3   0.333333 0.666667 0.026340 -0.365468
N1    N     N_R   0.099471 0.358786 0.344805 0.102656
O27   O     O_R   0.105514 0.272327 0.306516 -0.238323
O28   O     O_R   0.141030 0.374244 0.408590 -0.325341
N2    N     N_R   0.637881 0.747380 0.358865 0.102494
O29   O     O_R   0.624870 0.764653 0.424460 -0.320951
O30   O     O_R   0.726689 0.843603 0.322755 -0.247627
N3    N     N_R   0.248728 0.884575 0.359714 0.104290
O31   O     O_R   0.233968 0.858933 0.425915 -0.319107
O32   O     O_R   0.148828 0.869947 0.323856 -0.255682
N4    N     N_R   0.903605 0.493289 0.210450 0.070433
O33   O     O_R   0.865287 0.563131 0.177012 -0.241352
O34   O     O_R   0.817919 0.394271 0.246176 -0.238594
N5    N     N_R   0.466695 0.438493 0.212608 0.088945
O35   O     O_R   0.368984 0.328523 0.192467 -0.230843
O36   O     O_R   0.575777 0.444290 0.230554 -0.210420
N6    N     N_R   0.551751 0.037160 0.210460 0.091532
O37   O     O_R   0.665747 0.064308 0.186368 -0.239716
O38   O     O_R   0.533382 0.131185 0.229828 -0.216384

loop_
_geom_bond_atom_site_label_1
_geom_bond_atom_site_label_2
_geom_bond_distance
_ccdc_geom_bond_type
C9    C15   1.200475 T    
O12   C6    1.278982 A    
N5    O35   1.300959 A    
O8    C6    1.285384 A    
C10   C16   1.194311 T    
C8    C33   1.427522 S    
O1    C2    1.297708 A    
Cr6   O26   1.886934 S    
C23   N5    1.440760 S    
O6    C3    1.311033 A    
N3    O31   1.301736 A    
O5    Cr2   1.937870 S    
C11   C17   1.200879 T    
C7    C13   1.194456 T    
N4    O34   1.301425 A    
O3    C1    1.303626 A    
N2    O30   1.301269 A    
O24   C35   1.205277 A    
O7    C5    1.273033 A    
O20   C36   1.240717 A    
C3    C16   1.414583 S    
C2    C18   1.425626 S    
O4    Cr1   1.951149 S    
O14   C33   1.257605 A    
C24   C27   1.349416 D    
O24   Cr5   1.944180 S    
O9    C4    1.276697 A    
O22   Cr6   2.044896 S    
C29   N2    1.440567 S    
O25   Cr6   1.939910 S    
C6    C19   1.448302 S    
O23   C34   1.247400 A    
O19   C33   1.260514 A    
C22   C35   1.446976 S    
C12   C18   1.200214 T    
Cr3   O13   2.050947 S    
C11   C14   1.404444 S    
C1    C17   1.426708 S    
O11   C5    1.275342 A    
O4    C1    1.312852 A    
N3    O32   1.301202 A    
C23   C26   1.347117 D    
O15   C31   1.255337 A    
C7    C32   1.414798 S    
O8    Cr2   2.050323 S    
O1    Cr1   2.067140 S    
O10   Cr1   1.947750 S    
O2    Cr2   2.060879 S    
O11   Cr2   1.943237 S    
Cr1   O13   2.025752 S    
N4    O33   1.300872 A    
C22   C25   1.359786 D    
Cr5   O26   1.876078 S    
C21   H6    1.086935 S    
N2    O29   1.301820 A    
C27   H3    1.086635 S    
O18   C32   1.219618 A    
C26   H2    1.081358 S    
O23   Cr4   1.953291 S    
O6    Cr3   1.937431 S    
O9    Cr3   2.052512 S    
C26   C29   1.469326 S    
C28   N1    1.441088 S    
N1    O27   1.301267 A    
O5    C2    1.304998 A    
C30   N3    1.439935 S    
N6    O38   1.301664 A    
O7    Cr1   2.066074 S    
O17   Cr4   1.943274 S    
C19   H4    1.088091 S    
C25   H1    1.087035 S    
C20   C29   1.345260 D    
C5    C21   1.457619 S    
O22   C35   1.189972 A    
C19   C28   1.333793 D    
N1    O28   1.301890 A    
C20   H5    1.086204 S    
Cr2   O13   2.040829 S    
N5    O36   1.301308 A    
C25   C28   1.457425 S    
O3    Cr3   2.058512 S    
O14   Cr4   2.071497 S    
O21   C34   1.234881 A    
C22   N4    1.438356 S    
C12   C15   1.403343 S    
Cr4   O26   1.863636 S    
O17   C31   1.260632 A    
O25   C36   1.242987 A    
C4    C20   1.456015 S    
N6    O37   1.300905 A    
C23   C36   1.449793 S    
O20   Cr4   2.056393 S    
O18   Cr5   1.942671 S    
C27   C30   1.471829 S    
C8    C14   1.201164 T    
O16   Cr6   2.059154 S    
O12   Cr3   1.937514 S    
O15   Cr5   2.065248 S    
O21   Cr5   2.058601 S    
C10   C13   1.394134 S    
C24   C34   1.448945 S    
O10   C4    1.282114 A    
C9    C31   1.426383 S    
C24   N6    1.441316 S    
C21   C30   1.345721 D    
O16   C32   1.216895 A    
O2    C3    1.306604 A    
O19   Cr6   1.931960 S    
