data_mof_unit_49109.cif
_audit_creation_date              2013-03-05T16:04:41-0500
_audit_creation_method            fapswitch 2.2
_symmetry_space_group_name_H-M    P1
_symmetry_Int_Tables_number       1
_space_group_crystal_system       triclinic
_cell_length_a                    6.934923
_cell_length_b                    23.165741
_cell_length_c                    23.585526
_cell_angle_alpha                 112.518593
_cell_angle_beta                  89.678881
_cell_angle_gamma                 90.47099
_cell_volume                      3500.04912515

loop_
_atom_site_label
_atom_site_type_symbol
_atom_site_description
_atom_site_fract_x
_atom_site_fract_y
_atom_site_fract_z
_atom_type_partial_charge
O1    O     O_R   0.505740 0.453370 0.547760 -0.591186
O2    O     O_R   0.169520 0.427650 0.423350 -0.566906
O3    O     O_R   0.005620 0.546630 0.452240 -0.581658
C1    C     C_R   0.339205 0.409390 0.399418 1.044990
O4    O     O_R   0.175610 0.445960 0.545510 -0.574316
O5    O     O_R   0.011740 0.565080 0.575280 -0.595012
C2    C     C_R   0.343537 0.434414 0.562733 0.985372
O6    O     O_R   0.499610 0.434920 0.424720 -0.600874
O7    O     O_3   0.341310 0.539060 0.509620 -0.291851
V1    V     V_3+5 0.063960 0.492750 0.498220 1.177932
O8    O     O_R   0.682400 0.572350 0.576650 -0.606203
C3    C     C_R   0.851097 0.591472 0.600255 0.950898
O9    O     O_R   0.676320 0.554040 0.454490 -0.606414
C4    C     C_R   0.845710 0.565751 0.437337 0.949629
V2    V     V_3+5 0.564740 0.507250 0.501780 1.135398
O10   O     O_3   0.837250 0.460940 0.490380 -0.257910
C5    C     C_R   0.774398 0.890351 0.128564 -0.180333
H1    H     H_    0.645563 0.912645 0.121322 0.136974
C6    C     C_R   0.761891 0.855743 0.165781 -0.103410
H2    H     H_    0.624609 0.852035 0.186323 0.111383
C7    C     C_R   0.924361 0.825177 0.175559 0.232571
C8    C     C_R   0.100541 0.830445 0.148301 -0.122319
H3    H     H_    0.227596 0.807245 0.155509 0.102263
C9    C     C_R   0.114204 0.866092 0.111937 -0.177494
H4    H     H_    0.252366 0.869639 0.091845 0.132041
C10   C     C_R   0.950887 0.896313 0.101357 -0.124383
C11   C     C_R   0.909502 0.721505 0.186836 0.128846
C12   C     C_R   0.894506 0.686482 0.223940 -0.270372
H5    H     H_    0.893152 0.635914 0.202511 0.132789
C13   C     C_R   0.877438 0.715978 0.287976 0.080141
C14   C     C_R   0.880796 0.781543 0.314823 -0.357490
H6    H     H_    0.874567 0.804685 0.364271 0.143828
C15   C     C_R   0.894118 0.817564 0.278352 0.518558
C16   C     C_R   0.908847 0.787448 0.214056 -0.086780
C17   C     C_R   0.720083 0.688296 0.372702 0.206774
C18   C     C_R   0.720483 0.651931 0.408832 -0.248779
H7    H     H_    0.609662 0.659329 0.443352 0.150150
C19   C     C_R   0.856885 0.604713 0.399721 -0.220559
C20   C     C_R   0.997124 0.593949 0.353247 0.183245
C21   C     C_R   0.999243 0.630511 0.317546 -0.245465
H8    H     H_    0.109054 0.621836 0.282414 0.131989
C22   C     C_R   0.863661 0.678011 0.326744 0.042305
C23   C     C_R   0.856640 0.647118 0.659206 -0.211630
C24   C     C_R   0.955518 0.856270 0.838867 -0.129871
C25   C     C_R   0.104606 0.802139 0.738819 -0.198093
C26   C     C_R   0.095286 0.853430 0.794652 -0.145679
C27   C     C_R   0.823435 0.806623 0.826127 -0.263553
C28   C     C_R   0.835744 0.753653 0.770657 0.180954
C29   C     C_R   0.978543 0.750756 0.726358 0.153966
C30   C     C_R   0.990139 0.697217 0.670459 0.060666
C31   C     C_R   0.717864 0.651197 0.704182 -0.162419
C32   C     C_R   0.707491 0.703516 0.759040 -0.218201
H9    H     H_    0.615010 0.613575 0.696601 0.148110
H10   H     H_    0.212431 0.803032 0.705835 0.151443
H11   H     H_    0.597504 0.704895 0.792347 0.137875
H12   H     H_    0.197733 0.891405 0.803288 0.131423
H13   H     H_    0.715515 0.808323 0.860164 0.131151
C33   C     C_R   0.355955 0.356613 0.338960 -0.246441
C34   C     C_R   0.451711 0.143622 0.161667 -0.382613
C35   C     C_R   0.311621 0.181135 0.265570 0.469901
C36   C     C_R   0.355207 0.131646 0.208941 0.008690
C37   C     C_R   0.500428 0.206202 0.170301 0.450092
C38   C     C_R   0.447467 0.256608 0.225930 -0.074180
C39   C     C_R   0.360812 0.243761 0.275000 -0.185513
C40   C     C_R   0.323384 0.294489 0.332525 0.537780
C41   C     C_R   0.433159 0.368576 0.289912 -0.395592
C42   C     C_R   0.477704 0.320273 0.233933 0.299130
H14   H     H_    0.461138 0.416433 0.295232 0.140471
C43   C     C_R   0.316563 0.147498 0.908360 -0.163799
H15   H     H_    0.211789 0.154995 0.944703 0.150770
C44   C     C_R   0.309786 0.185271 0.874194 -0.121523
H16   H     H_    0.199334 0.220669 0.884638 0.135026
C45   C     C_R   0.445610 0.178181 0.827654 0.021645
C46   C     C_R   0.585694 0.131422 0.815074 -0.194159
H17   H     H_    0.687511 0.123866 0.777926 0.162527
C47   C     C_R   0.593253 0.092671 0.848415 0.533982
C48   C     C_R   0.459039 0.101530 0.896908 -0.295473
C49   C     C_R   0.600620 0.247316 0.777203 0.527876
C50   C     C_R   0.584523 0.278693 0.736987 -0.244336
H18   H     H_    0.712704 0.299692 0.726338 0.144295
C51   C     C_R   0.405958 0.284461 0.711725 0.067959
C52   C     C_R   0.242190 0.257365 0.727143 -0.093808
H19   H     H_    0.101247 0.262442 0.710157 0.146010
C53   C     C_R   0.257605 0.223508 0.764858 -0.181063
H20   H     H_    0.129760 0.201171 0.773757 0.187514
C54   C     C_R   0.435623 0.217500 0.790211 -0.062344
C55   C     C_R   0.274799 0.300392 0.618022 0.125479
C56   C     C_R   0.247798 0.339739 0.584912 0.058220
C57   C     C_R   0.351093 0.396989 0.601909 -0.368561
C58   C     C_R   0.468708 0.416629 0.655147 0.510381
C59   C     C_R   0.485839 0.378785 0.688843 -0.236010
H21   H     H_    0.572041 0.395784 0.730239 0.163942
C60   C     C_R   0.389669 0.321148 0.671659 -0.015064
O11   O     O_R   0.309730 0.065160 0.075230 -0.575491
O12   O     O_R   0.633800 0.053970 0.954410 -0.590404
O13   O     O_R   0.797580 0.934860 0.924760 -0.595383
C61   C     C_R   0.465940 0.064492 0.936237 0.920298
O14   O     O_R   0.639820 0.072410 0.076610 -0.601244
O15   O     O_R   0.803650 0.953440 0.047830 -0.599252
C62   C     C_R   0.469933 0.090912 0.100524 1.004307
O16   O     O_R   0.303670 0.046590 0.952160 -0.582532
O17   O     O_3   0.468000 0.960960 0.990410 -0.279942
V3    V     V_3+5 0.745380 0.007240 0.001780 1.165524
O18   O     O_R   0.132940 0.946010 0.045600 -0.592257
C63   C     C_R   0.963544 0.934311 0.062817 0.930420
O19   O     O_R   0.126920 0.927560 0.923400 -0.598436
C64   C     C_R   0.958756 0.909473 0.899184 0.945875
V4    V     V_3+5 0.244590 0.992720 0.998240 1.167966
O20   O     O_3   0.972110 0.039040 0.009600 -0.262271
N1    N     N_2   0.131159 0.544409 0.340128 -0.117754
H22   H     H_    0.135190 0.515656 0.294219 0.148095
C65   C     C_3   0.321840 0.564886 0.364090 -0.820804
H23   H     H_    0.389078 0.592692 0.339829 0.228386
H24   H     H_    0.413301 0.523694 0.357052 0.227521
H25   H     H_    0.314757 0.593527 0.414096 0.264138
N2    N     N_2   0.127769 0.695953 0.624825 -0.124112
H26   H     H_    0.080335 0.675095 0.580159 0.162912
C66   C     C_3   0.318587 0.676169 0.633787 -0.820668
H27   H     H_    0.314660 0.627387 0.631440 0.261031
H28   H     H_    0.376932 0.707051 0.679042 0.235929
H29   H     H_    0.417172 0.678685 0.597529 0.237496
O21   O     O_3   0.266468 0.284832 0.384259 -0.737882
H30   H     H_    0.358672 0.254764 0.389484 0.331385
O22   O     O_3   0.209308 0.169689 0.310705 -0.736302
H31   H     H_    0.236446 0.126952 0.308217 0.317859
N3    N     N_2   0.549037 0.337118 0.185634 -0.062663
H32   H     H_    0.644362 0.374347 0.200179 0.157594
C67   C     C_3   0.399662 0.345308 0.146826 -0.801693
H33   H     H_    0.307132 0.385661 0.173491 0.212926
H34   H     H_    0.308972 0.302455 0.127460 0.260514
H35   H     H_    0.466846 0.354374 0.108170 0.237796
N4    N     N_2   0.291692 0.069380 0.197408 -0.100208
H36   H     H_    0.156788 0.065301 0.214158 0.186347
C68   C     C_3   0.435336 0.029639 0.207865 -0.891131
H37   H     H_    0.473898 0.047075 0.257267 0.248992
H38   H     H_    0.567217 0.028135 0.180403 0.248538
H39   H     H_    0.376964 0.981388 0.193717 0.246681
O23   O     O_3   0.596229 0.219928 0.125238 -0.745397
H40   H     H_    0.617900 0.182020 0.088092 0.311473
O24   O     O_3   0.730004 0.046067 0.830674 -0.757637
H41   H     H_    0.689637 0.012555 0.844542 0.310237
O25   O     O_3   0.778414 0.248522 0.803607 -0.794400
H42   H     H_    0.761713 0.239637 0.841165 0.315191
N5    N     N_2   0.192931 0.239097 0.596491 -0.119249
H43   H     H_    0.060501 0.234056 0.575614 0.172039
C69   C     C_3   0.325593 0.189955 0.562666 -0.893483
H44   H     H_    0.253505 0.143840 0.550705 0.254145
H45   H     H_    0.454578 0.191185 0.590835 0.259453
H46   H     H_    0.371558 0.195155 0.519642 0.244658
N6    N     N_2   0.125018 0.320608 0.532562 -0.096364
H47   H     H_    0.143446 0.274964 0.502601 0.196326
C70   C     C_3   0.923912 0.336915 0.546301 -0.757090
H48   H     H_    0.857632 0.309536 0.571095 0.199562
H49   H     H_    0.843940 0.326744 0.502849 0.245247
H50   H     H_    0.908402 0.387388 0.575100 0.268527
O26   O     O_3   0.565378 0.473263 0.677290 -0.758869
H51   H     H_    0.504494 0.502276 0.661138 0.298925
N7    N     N_2   0.925725 0.690089 0.122056 -0.107003
H52   H     H_    0.003000 0.649130 0.108859 0.171214
C71   C     C_3   0.744239 0.681332 0.089795 -0.902779
H53   H     H_    0.770769 0.659392 0.039582 0.251418
H54   H     H_    0.672253 0.726826 0.099868 0.250810
H55   H     H_    0.647321 0.650306 0.103340 0.244627
O27   O     O_3   0.895881 0.882086 0.304487 -0.754220
H56   H     H_    0.883933 0.895798 0.349668 0.316958
N8    N     N_2   0.564019 0.730199 0.379131 -0.115508
H57   H     H_    0.540067 0.743347 0.342704 0.177807
C72   C     C_3   0.543543 0.780546 0.438612 -0.910450
H58   H     H_    0.419276 0.810135 0.437758 0.253317
H59   H     H_    0.675861 0.810037 0.450214 0.245550
H60   H     H_    0.515221 0.761960 0.474800 0.251150

loop_
_geom_bond_atom_site_label_1
_geom_bond_atom_site_label_2
_geom_bond_distance
_ccdc_geom_bond_type
C41   H14   1.082884 S    
C55   C56   1.423180 A    
C21   H8    1.083877 S    
N3    H32   1.032028 S    
C45   C46   1.404648 A    
C43   C48   1.406118 A    
C17   C18   1.409174 A    
C1    O6    1.292134 A    
C67   H33   1.111843 S    
C68   H39   1.110399 S    
C65   H24   1.108080 S    
C51   C52   1.405193 A    
C25   C26   1.397109 A    
V4    O20   2.145071 S    
C11   N7    1.422825 S    
O11   V4    1.995030 S    
C46   C47   1.403176 A    
C5    C10   1.408969 A    
O27   H56   0.991689 S    
C6    C7    1.401838 A    
C32   H11   1.083679 S    
C53   C54   1.405652 A    
C3    C23   1.491078 S    
C49   O25   1.379702 S    
O5    C3    1.299943 A    
C19   C20   1.411447 A    
C72   H59   1.110383 S    
C59   C60   1.402049 A    
O19   C64   1.295351 A    
V2    O10   2.145081 S    
C2    C57   1.490977 S    
C17   N8    1.428047 S    
N2    H26   1.030958 S    
C43   C44   1.399453 A    
C35   O22   1.382595 S    
C17   C22   1.420257 A    
N1    H22   1.031694 S    
C65   H23   1.110936 S    
C36   N4    1.427954 S    
C66   H27   1.110141 S    
O8    V2    2.003612 S    
C53   H20   1.082321 S    
N7    C71   1.446531 S    
C72   H60   1.109360 S    
C6    H2    1.083444 S    
C24   C26   1.403029 A    
N4    H36   1.031138 S    
O12   V3    1.992173 S    
C18   H7    1.082206 S    
C14   C15   1.411532 A    
O17   V4    1.699209 S    
O1    V2    1.981117 S    
C25   C29   1.409028 A    
C55   N5    1.426231 S    
O7    V1    2.161853 S    
C30   N2    1.426554 S    
C59   H21   1.083462 S    
C24   C27   1.404680 A    
C49   C54   1.423341 A    
O16   V4    1.982896 S    
C21   C22   1.404919 A    
C41   C42   1.400075 A    
C7    C8    1.403495 A    
N8    C72   1.447683 S    
C34   C62   1.496096 S    
O17   V3    2.161773 S    
C10   C63   1.489794 S    
O4    V1    1.991970 S    
O18   C63   1.300805 A    
C33   C41   1.392071 A    
C5    H1    1.082143 S    
C69   H45   1.110893 S    
C47   C48   1.424078 A    
C20   N1    1.420961 S    
C11   C16   1.412333 A    
O15   C63   1.297426 A    
C38   C42   1.427204 A    
C34   C36   1.411923 A    
C46   H17   1.083722 S    
C31   C32   1.395519 A    
C71   H55   1.111727 S    
C15   O27   1.381396 S    
C9    H4    1.082951 S    
N5    C69   1.446436 S    
O15   V3    1.986528 S    
C42   N3    1.423255 S    
C57   C58   1.420122 A    
C20   C21   1.404472 A    
C44   C45   1.404261 A    
C49   C50   1.403949 A    
C68   H38   1.110756 S    
C7    C16   1.484984 S    
C37   O23   1.385495 S    
C38   C39   1.429064 A    
C35   C36   1.420529 A    
C31   H9    1.082675 S    
C66   H29   1.110456 S    
C71   H54   1.109904 S    
N7    H52   1.031817 S    
O2    C1    1.303897 A    
C37   C38   1.431071 A    
C27   H13   1.084285 S    
C69   H46   1.111389 S    
C51   C60   1.498677 S    
C33   C40   1.404623 A    
C27   C28   1.412591 A    
C70   H50   1.110402 S    
O11   C62   1.292299 A    
C15   C16   1.409203 A    
C40   O21   1.377292 S    
O24   H41   0.988926 S    
C48   C61   1.486516 S    
O3    C4    1.296635 A    
C66   H28   1.109042 S    
C72   H58   1.110584 S    
O13   C64   1.300234 A    
C70   H49   1.110251 S    
C25   H10   1.081812 S    
C29   C30   1.425093 A    
O6    V2    1.994741 S    
O14   C62   1.305969 A    
O9    V2    1.979965 S    
N8    H57   1.030204 S    
N6    C70   1.450037 S    
C47   O24   1.380720 S    
C1    C33   1.485492 S    
C4    C19   1.489699 S    
O2    V1    1.972889 S    
C67   H35   1.110280 S    
O18   V4    1.980013 S    
C50   C51   1.406518 A    
C69   H44   1.110282 S    
C24   C64   1.483324 S    
C12   H5    1.083591 S    
C34   C37   1.422631 A    
N3    C67   1.446988 S    
O1    C2    1.299648 A    
C56   N6    1.425603 S    
C14   H6    1.081829 S    
C9    C10   1.408968 A    
N5    H43   1.028976 S    
C67   H34   1.111444 S    
O5    V1    1.977872 S    
O8    C3    1.297969 A    
O12   C61   1.299434 A    
C23   C30   1.422562 A    
C68   H37   1.110660 S    
C52   C53   1.398100 A    
N6    H47   1.030825 S    
V3    O20   1.711473 S    
C35   C39   1.419922 A    
C71   H53   1.110298 S    
C18   C19   1.404334 A    
O7    V2    1.699783 S    
O4    C2    1.298614 A    
C44   H16   1.083201 S    
O3    V1    1.986883 S    
V1    O10   1.711409 S    
C39   C40   1.438383 A    
C23   C31   1.404873 A    
C58   C59   1.396683 A    
C13   C14   1.404048 A    
O19   V4    2.003791 S    
C28   C29   1.418673 A    
C55   C60   1.416057 A    
C12   C13   1.403876 A    
C5    C6    1.399216 A    
N2    C66   1.446788 S    
C8    C9    1.402431 A    
C43   H15   1.083474 S    
N1    C65   1.444222 S    
C45   C54   1.494052 S    
O23   H40   0.986269 S    
C50   H18   1.083464 S    
C28   C32   1.398975 A    
O26   H51   0.988798 S    
C56   C57   1.418838 A    
N4    C68   1.446531 S    
C52   H19   1.082618 S    
O13   V3    1.977860 S    
C26   H12   1.083631 S    
C11   C12   1.405827 A    
O25   H42   0.989242 S    
C8    H3    1.083316 S    
C13   C22   1.494124 S    
C70   H48   1.109875 S    
O21   H30   0.991558 S    
O9    C4    1.300268 A    
C58   O26   1.381333 S    
C65   H25   1.110930 S    
C61   O16   1.298565 A    
O14   V3    1.973017 S    
O22   H31   0.988685 S    
