data_mof_unit_43058.cif
_audit_creation_date              2012-12-10T19:04:47-0500
_audit_creation_method            fapswitch 2.2
_symmetry_space_group_name_H-M    P1
_symmetry_Int_Tables_number       1
_space_group_crystal_system       triclinic
_cell_length_a                    15.862036
_cell_length_b                    10.822379
_cell_length_c                    9.548485
_cell_angle_alpha                 89.875801
_cell_angle_beta                  90.021507
_cell_angle_gamma                 90.125467
_cell_volume                      1639.13245256

loop_
_atom_site_label
_atom_site_type_symbol
_atom_type_description
_atom_site_fract_x
_atom_site_fract_y
_atom_site_fract_z
_atom_type_partial_charge
C1    C     C_R   0.501303 0.262375 0.500120 0.794486
C2    C     C_3   0.082761 0.499921 0.500029 0.132382
C3    C     C_3   0.972873 0.614027 0.501319 0.510169
C4    C     C_3   0.917227 0.498831 0.500112 0.136636
C5    C     C_3   0.028118 0.559293 0.384500 -0.250445
C6    C     C_3   0.971927 0.441731 0.384204 -0.211326
C7    C     C_1   0.174456 0.499861 0.499965 -0.060013
C8    C     C_1   0.825505 0.499562 0.500132 -0.022107
C9    C     C_R   0.504479 0.063509 0.626039 0.136934
C10   C     C_R   0.509006 0.129344 0.500479 -0.098693
C11   C     C_R   0.524319 0.064912 0.375473 -0.217104
C12   C     C_R   0.339812 0.499919 0.499960 0.824240
C13   C     C_R   0.523911 0.936181 0.375388 -0.212828
C14   C     C_R   0.508445 0.870977 0.500252 -0.096673
C15   C     C_R   0.504181 0.936256 0.625998 0.122631
C16   C     C_3   0.439684 0.929979 0.739928 -0.469936
C17   C     C_3   0.440268 0.070205 0.740096 -0.472621
C18   C     C_R   0.569901 0.536521 0.073433 0.264274
C19   C     C_R   0.434569 0.451141 0.074449 -0.083179
C20   C     C_R   0.434564 0.451128 0.925671 -0.085576
C21   C     C_R   0.569976 0.536204 0.926222 0.264173
C22   C     C_3   0.612825 0.658675 0.919267 -0.499249
C23   C     C_R   0.501093 0.737719 0.499922 0.799634
C24   C     C_3   0.612195 0.659571 0.078366 -0.505035
C25   C     C_R   0.660180 0.500170 0.500048 0.826049
C26   C     C_3   0.972021 0.439361 0.614708 -0.211568
C27   C     C_3   0.028226 0.382265 0.498798 -0.125379
C28   C     C_1   0.250047 0.499879 0.499933 -0.195580
C29   C     C_1   0.749926 0.499969 0.500110 -0.177539
C30   C     C_3   0.028215 0.556905 0.616874 -0.251149
Cu1   Cu    Cu3+1 0.500000 0.499980 0.640670 0.941720
Cu2   Cu    Cu3+1 0.500000 0.500020 0.359330 0.941312
H1    H     H_    0.052710 0.286246 0.497757 0.130210
H2    H     H_    0.465276 0.889544 0.838119 0.195139
H3    H     H_    0.379762 0.111515 0.704543 0.191877
H4    H     H_    0.466680 0.110281 0.837879 0.200311
H5    H     H_    0.381032 0.413089 0.129844 0.144769
H6    H     H_    0.381037 0.413031 0.870399 0.143371
H7    H     H_    0.677260 0.651765 0.874281 0.202736
H8    H     H_    0.572641 0.731561 0.872007 0.213264
H9    H     H_    0.676277 0.654246 0.125101 0.203612
H10   H     H_    0.570979 0.732417 0.122442 0.206336
H11   H     H_    0.947628 0.389626 0.708125 0.144959
H12   H     H_    0.947456 0.393930 0.289764 0.144954
H13   H     H_    0.052248 0.608727 0.290696 0.131768
H14   H     H_    0.052427 0.604397 0.711692 0.131423
H15   H     H_    0.532759 0.113315 0.277046 0.166471
H16   H     H_    0.531880 0.888588 0.276938 0.155908
H17   H     H_    0.378872 0.889598 0.704071 0.196537
N1    N     N_R   0.500530 0.500930 0.147930 -0.186149
N2    N     N_R   0.500530 0.500890 0.852020 -0.185585
O1    O     O_R   0.500000 0.319640 0.618810 -0.578566
O2    O     O_R   0.500010 0.319680 0.381230 -0.586144
O3    O     O_R   0.379070 0.499970 0.618770 -0.583213
O4    O     O_R   0.379080 0.500010 0.381190 -0.580020
O5    O     O_R   0.499990 0.680320 0.618770 -0.578546
O6    O     O_R   0.500000 0.680360 0.381190 -0.583318
O7    O     O_R   0.620920 0.499990 0.618810 -0.576359
O8    O     O_R   0.620930 0.500030 0.381230 -0.576596
O9    O     O_3   0.937638 0.733630 0.502616 -0.580659
C31   C     C_3   0.002852 0.822415 0.503594 0.062607
H18   H     H_    0.042882 0.814337 0.408331 0.136422
H19   H     H_    0.042852 0.812436 0.598750 0.135888
C32   C     C_3   0.964320 0.951005 0.504884 -0.779605
H20   H     H_    0.924679 0.962817 0.599761 0.249696
H21   H     H_    0.015103 0.021821 0.505667 0.188027
H22   H     H_    0.924710 0.964707 0.410188 0.249834

loop_
_geom_bond_atom_site_label_1
_geom_bond_atom_site_label_2
_ccdc_geom_bond_type
C14   C23   S    
C3    C30   S    
C4    C26   S    
C2    C27   S    
C17   H4    S    
Cu1   O5    S    
C13   H16   S    
C18   C21   A    
C24   H10   S    
C9    C10   A    
Cu2   O4    S    
C11   H15   S    
C2    C7    S    
C18   N1    A    
C2    C30   S    
Cu1   O1    S    
C4    C8    S    
C22   H8    S    
C3    O9    S    
C19   C20   A    
C31   H19   S    
C9    C15   A    
C23   O5    A    
C6    H12   S    
C21   C22   S    
C27   H1    S    
C31   C32   S    
C24   H9    S    
C11   C13   A    
C19   N1    A    
Cu2   N1    S    
C26   C27   S    
C5    C6    S    
Cu2   O6    S    
C12   C28   S    
C18   C24   S    
C22   H7    S    
C32   H20   S    
C9    C17   S    
C26   H11   S    
C26   C30   S    
C20   N2    A    
Cu1   O3    S    
C25   C29   S    
C31   H18   S    
C1    O1    A    
C22   C24   S    
C12   O4    A    
C19   H5    S    
C25   O7    A    
C8    C29   T    
C15   C16   S    
C2    C5    S    
C32   H22   S    
Cu2   O2    S    
C21   N2    A    
C20   H6    S    
C16   H17   S    
Cu1   O7    S    
C4    C6    S    
C10   C11   A    
C23   O6    A    
C1    O2    A    
C14   C15   A    
O9    C31   S    
C25   O8    A    
C17   H3    S    
Cu2   O8    S    
C16   H2    S    
C13   C14   A    
C5    H13   S    
C1    C10   S    
C30   H14   S    
Cu1   Cu2   S    
C12   O3    A    
C7    C28   T    
C6    C27   S    
Cu1   N2    S    
C16   C17   S    
C3    C5    S    
C3    C4    S    
C32   H21   S    
