data_mof_unit_7195.cif
_audit_creation_date              2012-12-10T17:55:05-0500
_audit_creation_method            fapswitch 2.2
_symmetry_space_group_name_H-M    P1
_symmetry_Int_Tables_number       1
_space_group_crystal_system       triclinic
_cell_length_a                    8.72284
_cell_length_b                    10.792839
_cell_length_c                    9.577206
_cell_angle_alpha                 89.705315
_cell_angle_beta                  97.510138
_cell_angle_gamma                 91.525626
_cell_volume                      893.585859117

loop_
_atom_site_label
_atom_site_type_symbol
_atom_type_description
_atom_site_fract_x
_atom_site_fract_y
_atom_site_fract_z
_atom_type_partial_charge
C1    C     C_R   0.498706 0.262307 0.500193 0.780532
C2    C     C_R   0.497976 0.737645 0.499845 0.770855
C3    C     C_R   0.204019 0.501194 0.464059 0.861790
C4    C     C_R   0.795790 0.505143 0.535555 0.886605
C5    C     C_2   0.038096 0.499497 0.444154 -0.344230
C6    C     C_2   0.961137 0.517718 0.553452 -0.391313
C7    C     C_R   0.425572 0.063263 0.382692 -0.179248
C8    C     C_R   0.562485 0.936578 0.620331 -0.184300
C9    C     C_R   0.423114 0.934949 0.383379 -0.200780
C10   C     C_R   0.562496 0.064889 0.620658 -0.172884
C11   C     C_R   0.494648 0.871500 0.500841 -0.017920
C12   C     C_R   0.495966 0.128381 0.501015 -0.010900
C13   C     C_R   0.413432 0.413867 0.065887 0.334062
C14   C     C_R   0.598564 0.577327 0.935452 0.325786
C15   C     C_R   0.409217 0.415783 0.914954 0.350587
C16   C     C_R   0.592884 0.582337 0.084824 0.341296
Cu1   Cu    Cu3+1 0.500000 0.500020 0.640660 1.015934
Cu2   Cu    Cu3+1 0.500000 0.499980 0.359340 1.020788
H1    H     H_    0.978915 0.479296 0.339336 0.194222
H2    H     H_    0.019670 0.542763 0.656926 0.161312
H3    H     H_    0.370345 0.111357 0.291013 0.168022
H4    H     H_    0.617341 0.888385 0.712336 0.168297
H5    H     H_    0.363974 0.885497 0.293193 0.131765
H6    H     H_    0.616951 0.114408 0.712955 0.152400
N1    N     N_R   0.500040 0.500030 0.852080 -0.229331
N2    N     N_R   0.499960 0.499970 0.147920 -0.229682
O1    O     O_R   0.499990 0.319660 0.618740 -0.538248
O2    O     O_R   0.500010 0.680340 0.381260 -0.568142
O3    O     O_R   0.499990 0.319630 0.381170 -0.539399
O4    O     O_R   0.500010 0.680370 0.618830 -0.548506
O5    O     O_R   0.274840 0.500010 0.591370 -0.577759
O6    O     O_R   0.725160 0.499990 0.408630 -0.539731
O7    O     O_R   0.274830 0.499980 0.353800 -0.549220
O8    O     O_R   0.725170 0.500020 0.646200 -0.543968
O9    O     O_3   0.335082 0.323886 0.132783 -0.703774
H7    H     H_    0.327897 0.247504 0.075513 0.319944
O10   O     O_3   0.707032 0.645030 0.872606 -0.707148
H8    H     H_    0.797769 0.662854 0.943895 0.319788
O11   O     O_3   0.336148 0.319977 0.833639 -0.548862
C17   C     C_3   0.173737 0.318858 0.833104 0.064040
H9    H     H_    0.121282 0.367783 0.738723 0.180755
H10   H     H_    0.133908 0.363239 0.926265 0.144136
C18   C     C_3   0.111017 0.185740 0.821049 -0.810796
H11   H     H_    0.158412 0.130696 0.914182 0.235021
H12   H     H_    0.982886 0.184684 0.814301 0.204570
H13   H     H_    0.143453 0.142131 0.724605 0.258443
O12   O     O_3   0.692499 0.661283 0.169199 -0.548704
C19   C     C_3   0.652001 0.785938 0.140867 0.071198
H14   H     H_    0.530335 0.800886 0.157270 0.146013
H15   H     H_    0.664264 0.814379 0.031327 0.142464
C20   C     C_3   0.758804 0.870629 0.238703 -0.757171
H16   H     H_    0.879417 0.864265 0.214416 0.231802
H17   H     H_    0.721913 0.968070 0.224308 0.204143
H18   H     H_    0.755757 0.843127 0.350105 0.255444

loop_
_geom_bond_atom_site_label_1
_geom_bond_atom_site_label_2
_ccdc_geom_bond_type
C8    H4    S    
C18   H11   S    
O10   H8    S    
C5    H1    S    
C6    H2    S    
O12   C19   S    
Cu2   N2    S    
C2    O4    A    
C20   H18   S    
Cu1   N1    S    
C3    C5    S    
C1    O3    A    
Cu1   Cu2   S    
C18   H12   S    
Cu2   O3    S    
C14   O10   S    
C3    O5    A    
Cu1   O4    S    
C9    C11   A    
C15   O11   S    
C4    O6    A    
C1    C12   S    
C10   C12   A    
C19   C20   S    
C8    C11   A    
C2    C11   S    
C16   O12   S    
C19   H15   S    
C19   H14   S    
Cu2   O7    S    
C13   O9    S    
C4    O8    A    
C13   C15   A    
C14   N1    A    
C16   N2    A    
C5    C6    D    
Cu1   O5    S    
C18   H13   S    
C14   C16   A    
C7    C12   A    
C15   N1    A    
C4    C6    S    
Cu2   O6    S    
Cu1   O8    S    
C13   N2    A    
C20   H16   S    
Cu1   O1    S    
C7    C9    A    
Cu2   O2    S    
C8    C10   A    
O11   C17   S    
C1    O1    A    
C3    O7    A    
C17   H9    S    
C2    O2    A    
C10   H6    S    
C7    H3    S    
C17   C18   S    
C9    H5    S    
O9    H7    S    
C17   H10   S    
C20   H17   S    
