data_mof_unit_35013.cif
_audit_creation_date              2012-12-10T20:27:55-0500
_audit_creation_method            fapswitch 2.2
_symmetry_space_group_name_H-M    P1
_symmetry_Int_Tables_number       1
_space_group_crystal_system       triclinic
_cell_length_a                    12.827038
_cell_length_b                    10.658577
_cell_length_c                    9.88528
_cell_angle_alpha                 90.158823
_cell_angle_beta                  97.278545
_cell_angle_gamma                 90.095839
_cell_volume                      1340.59708249

loop_
_atom_site_label
_atom_site_type_symbol
_atom_type_description
_atom_site_fract_x
_atom_site_fract_y
_atom_site_fract_z
_atom_type_partial_charge
C1    C     C_R   0.499049 0.260243 0.500053 0.902834
C2    C     C_R   0.026891 0.528110 0.547725 0.178460
C3    C     C_R   0.973705 0.445308 0.449066 0.100737
C4    C     C_R   0.866125 0.424365 0.449310 -0.098472
C5    C     C_R   0.868204 0.568015 0.643951 -0.180321
C6    C     C_R   0.974655 0.586135 0.646126 -0.202877
C7    C     C_R   0.534895 0.064404 0.617891 0.017319
C8    C     C_R   0.491405 0.128357 0.501775 -0.055484
C9    C     C_R   0.434600 0.064388 0.392524 -0.184620
C10   C     C_R   0.435113 0.934616 0.391989 -0.208803
C11   C     C_R   0.491605 0.871454 0.501543 -0.059707
C12   C     C_R   0.298491 0.499366 0.472915 0.877027
C13   C     C_R   0.535394 0.936092 0.617247 0.103477
C14   C     C_3   0.645036 0.928410 0.689382 -0.568122
C15   C     C_3   0.644927 0.071061 0.689643 -0.288916
C16   C     C_R   0.489186 0.390362 0.069256 0.280128
C17   C     C_R   0.521324 0.606331 0.075660 -0.088310
C18   C     C_R   0.521877 0.606187 0.932035 -0.087628
C19   C     C_R   0.486035 0.391122 0.926581 0.214647
C20   C     C_3   0.393296 0.304009 0.909328 -0.297221
C21   C     C_3   0.400429 0.299468 0.064293 -0.570995
C22   C     C_R   0.499216 0.739696 0.500136 0.868236
C23   C     C_R   0.701560 0.495981 0.526864 0.901690
C24   C     C_R   0.813974 0.491553 0.543682 -0.110087
C25   C     C_R   0.186969 0.489735 0.455342 -0.014225
C26   C     C_R   0.030187 0.385899 0.353946 -0.156464
C27   C     C_R   0.136467 0.409148 0.356549 -0.183424
C28   C     C_R   0.132687 0.550666 0.548601 -0.237731
H1    H     H_    0.700914 0.887518 0.624048 0.212740
H2    H     H_    0.700823 0.111925 0.624217 0.207541
H3    H     H_    0.536901 0.692787 0.132071 0.153410
H4    H     H_    0.538125 0.692428 0.881293 0.142289
H5    H     H_    0.411413 0.212734 0.863044 0.176377
H6    H     H_    0.331721 0.338364 0.108591 0.220508
H7    H     H_    0.427640 0.206848 0.105727 0.216891
H8    H     H_    0.827149 0.619010 0.716097 0.166328
H9    H     H_    0.994129 0.319828 0.279040 0.181690
H10   H     H_    0.015615 0.648086 0.722363 0.148256
H11   H     H_    0.180077 0.360113 0.285688 0.150970
H12   H     H_    0.173810 0.613594 0.623924 0.145683
H13   H     H_    0.392931 0.114182 0.307139 0.148440
H14   H     H_    0.394815 0.884208 0.305309 0.163630
H15   H     H_    0.647948 0.884086 0.791439 0.202148
N1    N     N_R   0.499290 0.499140 0.142710 -0.108976
N2    N     N_R   0.499290 0.499180 0.857070 -0.115872
O1    O     O_R   0.500010 0.316790 0.614690 -0.630783
O2    O     O_R   0.500000 0.316760 0.385350 -0.607671
O3    O     O_R   0.346360 0.499990 0.595720 -0.599454
O4    O     O_R   0.346350 0.499960 0.366370 -0.628057
O5    O     O_R   0.500000 0.683240 0.614650 -0.629512
O6    O     O_R   0.499990 0.683210 0.385310 -0.630792
O7    O     O_R   0.653650 0.500040 0.633630 -0.603168
O8    O     O_R   0.653640 0.500010 0.404280 -0.602462
Zn1   Zn    Zn3+2 0.500010 0.500020 0.653130 0.989616
Zn2   Zn    Zn3+2 0.499990 0.499980 0.346870 0.982542
C29   C     C_2   0.807544 0.333908 0.352576 0.913768
O9    O     O_2   0.759795 0.246760 0.396603 -0.639818
O10   O     O_R   0.803651 0.351652 0.211921 -0.784596
H16   H     H_    0.759535 0.285587 0.157157 0.376300
C30   C     C_2   0.652486 0.130603 0.829711 0.998515
O11   O     O_2   0.715414 0.215577 0.858047 -0.576869
O12   O     O_R   0.590154 0.091524 0.928224 -0.803215
H17   H     H_    0.537623 0.023754 0.895071 0.299238
C31   C     C_2   0.292571 0.362606 0.844010 1.011209
O13   O     O_2   0.238949 0.307608 0.751206 -0.626599
O14   O     O_R   0.259523 0.477901 0.891326 -0.805948
H18   H     H_    0.188441 0.504320 0.843567 0.334556

loop_
_geom_bond_atom_site_label_1
_geom_bond_atom_site_label_2
_ccdc_geom_bond_type
C20   C31   S    
C23   C24   S    
C6    H10   S    
C26   H9    S    
C12   O4    A    
C16   C21   S    
C21   H7    S    
C10   H14   S    
C1    C8    S    
C9    C10   A    
C16   N1    A    
C11   C22   S    
C9    H13   S    
C19   C20   S    
C22   O5    A    
C12   C25   S    
C12   O3    A    
C31   O13   D    
O1    Zn1   S    
C7    C15   S    
C17   C18   A    
C23   O7    A    
C17   N1    A    
O7    Zn1   S    
C7    C8    A    
O5    Zn1   S    
C13   C14   S    
C4    C29   S    
C25   C28   A    
O3    Zn1   S    
C11   C13   A    
N1    Zn2   S    
C26   C27   A    
O12   H17   S    
C5    C24   A    
C30   O11   D    
C16   C19   A    
C4    C24   A    
C20   H5    S    
C30   O12   S    
C29   O10   S    
N2    Zn1   S    
C23   O8    A    
C2    C3    A    
O8    Zn2   S    
C5    C6    A    
C17   H3    S    
C1    O1    A    
C22   O6    A    
C18   H4    S    
C10   C11   A    
C28   H12   S    
C14   H1    S    
C3    C4    A    
C5    H8    S    
C7    C13   A    
O14   H18   S    
C20   C21   S    
C15   H2    S    
O2    Zn2   S    
C18   N2    A    
C15   C30   S    
C29   O9    D    
C14   C15   S    
C14   H15   S    
C2    C28   A    
C21   H6    S    
O6    Zn2   S    
O10   H16   S    
O4    Zn2   S    
C3    C26   A    
C1    O2    A    
C19   N2    A    
C2    C6    A    
C27   H11   S    
C8    C9    A    
C25   C27   A    
C31   O14   S    
