data_mof_unit_17270.cif
_audit_creation_date              2013-03-05T16:14:46-0500
_audit_creation_method            fapswitch 2.2
_symmetry_space_group_name_H-M    P1
_symmetry_Int_Tables_number       1
_space_group_crystal_system       triclinic
_cell_length_a                    8.271232
_cell_length_b                    17.286119
_cell_length_c                    19.117678
_cell_angle_alpha                 103.182685
_cell_angle_beta                  91.703311
_cell_angle_gamma                 98.372864
_cell_volume                      2627.37534667

loop_
_atom_site_label
_atom_site_type_symbol
_atom_site_description
_atom_site_fract_x
_atom_site_fract_y
_atom_site_fract_z
_atom_type_partial_charge
P1    P     P_3+3 0.040700 0.421000 0.332140 0.508732
O1    O     O_2   0.873520 0.443690 0.322540 -0.330491
O2    O     O_3   0.122020 0.450920 0.411670 -0.406489
O3    O     O_3   0.663590 0.591680 0.375790 -0.364643
O4    O     O_2   0.710364 0.512412 0.248566 -0.402156
O5    O     O_3   0.008890 0.315772 0.306962 -0.527194
O6    O     O_3   0.733468 0.667142 0.258203 -0.565318
H1    H     H_    0.513182 0.714775 0.279909 -0.084599
C1    C     C_3   0.718321 0.792258 0.341581 -0.848994
H2    H     H_    0.709094 0.761865 0.386725 0.246064
H3    H     H_    0.848808 0.814974 0.336074 0.274395
P2    P     P_3+3 0.677490 0.686860 0.568200 0.466569
P3    P     P_3+3 0.130524 0.740202 0.433657 0.467417
O7    O     O_2   0.853350 0.696990 0.547450 -0.360425
O8    O     O_3   0.086060 0.635230 0.414460 -0.399390
O9    O     O_2   0.974831 0.773405 0.461243 -0.380698
O10   O     O_3   0.695406 0.713571 0.662491 -0.555581
O11   O     O_3   0.156934 0.773222 0.354094 -0.520479
C2    C     C_3   0.135962 0.706101 0.295778 0.398727
H4    H     H_    0.017604 0.666679 0.295853 0.171571
H5    H     H_    0.236867 0.671578 0.298767 0.048760
C3    C     C_3   0.138761 0.733938 0.225860 -0.831487
H6    H     H_    0.114050 0.681107 0.179286 0.218816
H7    H     H_    0.043231 0.772524 0.224123 0.294018
C4    C     C_3   0.263006 0.717664 0.645138 0.399693
H8    H     H_    0.370583 0.688157 0.629011 0.107047
H9    H     H_    0.178116 0.711825 0.597618 0.097649
C5    C     C_3   0.322553 0.806217 0.679542 -0.894662
H10   H     H_    0.396523 0.812192 0.730493 0.276797
H11   H     H_    0.400526 0.834600 0.643386 0.214673
H12   H     H_    0.216240 0.838524 0.691380 0.269288
Ba1   Ba    Ba6+2 0.854170 0.535040 0.467640 1.570031
C6    C     C_3   0.941873 0.284338 0.362696 0.259296
H13   H     H_    0.824645 0.306257 0.374931 0.066344
H14   H     H_    0.026609 0.302186 0.411845 0.108866
C7    C     C_3   0.908934 0.192553 0.337950 -0.096577
H15   H     H_    0.840022 0.173961 0.284465 0.183639
H16   H     H_    0.831745 0.167410 0.376220 0.077794
C8    C     C_3   0.724251 0.646959 0.688384 0.438896
H17   H     H_    0.839152 0.627555 0.668342 0.089449
H18   H     H_    0.621631 0.596263 0.671549 0.131324
C9    C     C_3   0.739932 0.670671 0.770204 -0.970281
H19   H     H_    0.847453 0.718408 0.789063 0.279251
H20   H     H_    0.756035 0.617720 0.791728 0.214872
H21   H     H_    0.627398 0.693219 0.791057 0.267849
P4    P     P_3+3 0.149010 0.579070 0.667870 0.461767
O12   O     O_2   0.316180 0.556340 0.677510 -0.388705
O13   O     O_3   0.067690 0.549150 0.588340 -0.399645
O14   O     O_3   0.526120 0.408390 0.624220 -0.352168
O15   O     O_3   0.178969 0.683930 0.695686 -0.556581
P5    P     P_3+3 0.068103 0.260687 0.576588 0.511678
O16   O     O_3   0.608980 0.401570 0.457310 -0.409762
O17   O     O_3   0.103650 0.364840 0.585560 -0.416344
O18   O     O_2   0.201298 0.223421 0.531413 -0.301104
O19   O     O_3   0.098916 0.237634 0.660034 -0.474883
Ba2   Ba    Ba6+2 0.335670 0.465030 0.532370 1.579156
P6    P     P_3+3 0.627319 0.584131 0.284411 0.414991
C10   C     C_3   0.644870 0.732573 0.272573 0.804128
H22   H     H_    0.649741 0.843894 0.354160 0.228409
O20   O     O_3   0.580730 0.598500 0.542710 -0.415115
C11   C     C_3   0.465534 0.338726 0.307376 0.295029
H23   H     H_    0.354450 0.360620 0.330347 0.052108
H24   H     H_    0.570870 0.388369 0.321361 0.124052
C12   C     C_3   0.435787 0.313939 0.225502 -0.093104
H25   H     H_    0.319970 0.270661 0.211115 0.179098
H26   H     H_    0.421607 0.367523 0.204408 0.043895
P7    P     P_3+3 0.515562 0.300854 0.427757 0.485608
O21   O     O_2   0.336360 0.303040 0.452600 -0.331659
O22   O     O_3   0.497283 0.272462 0.333558 -0.528024
H27   H     H_    0.260387 0.768800 0.221775 0.273919
C13   C     C_3   0.089188 0.305804 0.714761 0.492856
H28   H     H_    0.195012 0.353244 0.715220 0.161752
H29   H     H_    0.975006 0.329489 0.706978 0.004749
C14   C     C_3   0.089992 0.283108 0.787033 -0.914232
H30   H     H_    0.198738 0.254510 0.794339 0.281787
H31   H     H_    0.094693 0.337633 0.831334 0.209541
H32   H     H_    0.977520 0.240355 0.789641 0.269986
P8    P     P_3+3 0.565823 0.398484 0.711144 0.428451
C15   C     C_3   0.580978 0.247386 0.674081 0.090067
H33   H     H_    0.714541 0.268402 0.684246 0.014334
O23   O     O_2   0.456010 0.452625 0.756316 -0.434127
O24   O     O_3   0.490307 0.300234 0.717742 -0.532381
H34   H     H_    0.546421 0.243912 0.616767 0.108898
H35   H     H_    0.608414 0.124053 0.643426 -0.011151
C16   C     C_3   0.547554 0.161273 0.686836 0.640679
C17   C     C_R   0.052794 0.547110 0.803933 -0.318433
H36   H     H_    0.143564 0.598576 0.828433 0.159597
C18   C     C_R   0.018868 0.530374 0.728428 0.314747
C19   C     C_R   0.848146 0.434547 0.808617 -0.335923
H37   H     H_    0.796085 0.385859 0.831278 0.137477
C20   C     C_R   0.781367 0.438038 0.741462 0.255948
C21   C     C_R   0.341125 0.566492 0.193010 -0.346357
H38   H     H_    0.395285 0.617650 0.173717 0.152100
C22   C     C_R   0.409515 0.555820 0.257348 0.226539
C23   C     C_R   0.124507 0.458092 0.195437 -0.300147
H39   H     H_    0.024691 0.411206 0.170938 0.187089
C24   C     C_R   0.167171 0.468124 0.269953 0.295048
C25   C     C_R   0.978135 0.493876 0.845564 0.096433
C26   C     C_R   0.876011 0.479101 0.698793 -0.460390
H40   H     H_    0.834258 0.474156 0.643551 0.160699
C27   C     C_R   0.205660 0.511811 0.155196 0.088970
C28   C     C_R   0.315962 0.512962 0.298333 -0.448108
H41   H     H_    0.362641 0.511959 0.351562 0.158217
C29   C     C_R   0.754321 0.455029 0.960168 -0.204831
C30   C     C_R   0.651476 0.427137 0.008197 -0.151609
C31   C     C_R   0.702764 0.445048 0.080111 -0.024788
C32   C     C_R   0.860330 0.485013 0.101774 -0.122379
C33   C     C_R   0.980336 0.491533 0.051904 0.050179
C34   C     C_R   0.924504 0.481224 0.977778 0.113481
C35   C     C_R   0.149507 0.511921 0.076360 -0.061582
C36   C     C_R   0.261113 0.530730 0.023931 0.093087
C37   C     C_R   0.205144 0.522070 0.949903 0.067461
C38   C     C_R   0.035873 0.498838 0.925114 -0.064971
C39   C     C_R   0.431223 0.557068 0.041684 -0.164101
C40   C     C_R   0.534590 0.586484 0.994618 -0.041143
C41   C     C_R   0.483110 0.571921 0.923092 -0.120063
C42   C     C_R   0.325352 0.533304 0.900731 -0.161241
H42   H     H_    0.692024 0.460287 0.912086 0.151750
H43   H     H_    0.524645 0.402271 0.991516 0.140219
H44   H     H_    0.616041 0.433943 0.119275 0.157405
H45   H     H_    0.888570 0.511492 0.157831 0.183628
H46   H     H_    0.494148 0.550337 0.088807 0.141930
H47   H     H_    0.661626 0.610560 0.011593 0.160284
H48   H     H_    0.569118 0.584721 0.884137 0.143298
H49   H     H_    0.300032 0.511544 0.844272 0.185213
C43   C     C_2   0.434339 0.724947 0.491201 -0.461765
C44   C     C_3   0.306382 0.779917 0.500431 0.176725
C45   C     C_2   0.382041 0.864612 0.499827 -0.174517
C46   C     C_2   0.544893 0.888284 0.516447 0.080473
C47   C     C_2   0.646417 0.828949 0.532529 -0.254013
C48   C     C_1   0.578502 0.753282 0.525823 0.308498
C49   C     C_R   0.804614 0.136097 0.523741 -0.227562
C50   C     C_R   0.864368 0.217789 0.533513 0.230595
C51   C     C_R   0.618783 0.236072 0.471407 0.258896
C52   C     C_R   0.556775 0.154583 0.462229 -0.206488
C53   C     C_R   0.647233 0.104232 0.490034 0.067133
C54   C     C_2   0.624715 0.971885 0.522520 -0.147143
C55   C     C_2   0.573514 0.019148 0.482247 -0.097589
C56   C     C_R   0.769153 0.268006 0.509561 -0.548403
H50   H     H_    0.469504 0.995432 0.443413 0.155931
H51   H     H_    0.775257 0.848218 0.549503 0.178470
H52   H     H_    0.882183 0.098590 0.542100 0.174427
H53   H     H_    0.729167 0.993609 0.561094 0.145941
H54   H     H_    0.302385 0.907150 0.492384 0.164613
H55   H     H_    0.438849 0.130586 0.433369 0.196831
H56   H     H_    0.408535 0.664000 0.458005 0.170676
H57   H     H_    0.816403 0.331280 0.516936 0.177934
N1    N     N_R   0.061906 0.159540 0.333797 0.280040
O25   O     O_R   0.160276 0.169871 0.283766 -0.321427
O26   O     O_R   0.094994 0.114653 0.376800 -0.362803
N2    N     N_R   0.654358 0.772120 0.212476 0.227374
O27   O     O_R   0.727865 0.743254 0.155249 -0.382612
O28   O     O_R   0.579301 0.833503 0.213719 -0.384309
N3    N     N_R   0.571667 0.277503 0.192279 0.278321
O29   O     O_R   0.715723 0.320419 0.195548 -0.375682
O30   O     O_R   0.547830 0.202686 0.156621 -0.317776
N4    N     N_R   0.373173 0.127016 0.676878 0.245465
O31   O     O_R   0.298086 0.115518 0.613767 -0.376404
O32   O     O_R   0.303227 0.091851 0.723994 -0.358425
O33   O     O_3   0.622221 0.152120 0.751923 -0.629144
C57   C     C_3   0.578807 0.204680 0.814039 -0.010402
H58   H     H_    0.448082 0.212152 0.812185 0.153506
H59   H     H_    0.657705 0.263828 0.823068 0.100941
H60   H     H_    0.601675 0.179610 0.861238 0.162629

loop_
_geom_bond_atom_site_label_1
_geom_bond_atom_site_label_2
_geom_bond_distance
_ccdc_geom_bond_type
N4    O31   1.300424 A    
P2    C48   1.817590 S    
C33   C34   1.440549 A    
C23   H39   1.080210 S    
C45   C46   1.355549 D    
C39   C40   1.388161 A    
C43   H56   1.086167 S    
C52   C53   1.406033 A    
C8    H18   1.109286 S    
C41   C42   1.383476 A    
C4    C5    1.523250 S    
C56   H57   1.082057 S    
C43   C44   1.510524 S    
C14   H31   1.109250 S    
P3    O11   1.751170 S    
C5    H10   1.110880 S    
C2    H5    1.101699 S    
N1    O26   1.300872 A    
P1    O1    1.508415 D    
P1    O2    1.584561 S    
C37   C42   1.411595 A    
C17   C18   1.416991 A    
C49   C53   1.411585 A    
C31   C32   1.386536 A    
C40   C41   1.375375 A    
C12   N3    1.459241 S    
C6    C7    1.529525 S    
O14   P8    1.735624 S    
O1    Ba1   2.883771 S    
O11   C2    1.399686 S    
O10   C8    1.400286 S    
C11   H24   1.109394 S    
C47   H51   1.085665 S    
C35   C36   1.441789 A    
C29   C30   1.388564 A    
H1    C10   1.109907 S    
C4    O15   1.391386 S    
P4    C18   1.860732 S    
C7    N1    1.458918 S    
Ba1   O16   2.807251 S    
C36   C37   1.443555 A    
C49   C50   1.394362 A    
C52   H55   1.083364 S    
C14   H32   1.110593 S    
P2    O10   1.751903 S    
C32   C33   1.406984 A    
C16   O33   1.423829 S    
C19   C20   1.399959 A    
C1    H2    1.107133 S    
O6    C10   1.415420 S    
N3    O30   1.300695 A    
C24   C28   1.378551 A    
C34   C38   1.438113 A    
C11   H23   1.108938 S    
C54   H53   1.082864 S    
N4    O32   1.301477 A    
P2    Ba1   3.420751 S    
Ba1   Ba2   4.544314 S    
Ba1   O13   2.806894 S    
O2    Ba1   2.921819 S    
C9    H20   1.108568 S    
C37   C38   1.433905 A    
C57   H59   1.104319 S    
C57   H58   1.107941 S    
C8    C9    1.520388 S    
C29   H42   1.068778 S    
C49   H52   1.080148 S    
P4    O13   1.584561 S    
C40   H47   1.083215 S    
C14   H30   1.107451 S    
C8    H17   1.103807 S    
P7    O21   1.572883 D    
O8    Ba1   2.768306 S    
P7    C51   1.828014 S    
N1    O25   1.300232 A    
C53   C55   1.480096 S    
P1    C24   1.854374 S    
C51   C56   1.395044 A    
C13   H29   1.101705 S    
C17   H36   1.081214 S    
C25   C38   1.560032 S    
C27   C35   1.564360 S    
Ba2   O21   2.867773 S    
P1    Ba1   3.430884 S    
Ba2   O20   2.806579 S    
P5    O17   1.749092 S    
C9    H21   1.110886 S    
P2    O20   1.578691 S    
O3    P6    1.735604 S    
C11   C12   1.527941 S    
C15   O24   1.408056 S    
C45   H54   1.085483 S    
O2    Ba2   2.807530 S    
P8    O24   1.756114 S    
C26   H40   1.081877 S    
N2    O27   1.301717 A    
C2    C3    1.520114 S    
C21   C22   1.399806 A    
C6    H13   1.103851 S    
H35   C16   1.109821 S    
C1    H3    1.110107 S    
N3    O29   1.300375 A    
O3    Ba1   2.756068 S    
O16   P7    1.755251 S    
C55   H50   1.086202 S    
C21   C27   1.415354 A    
P2    O7    1.515135 D    
C50   C56   1.393696 A    
P6    C22   1.823441 S    
P3    O8    1.748274 S    
C3    H7    1.110108 S    
C9    H19   1.110564 S    
C32   H45   1.069028 S    
C44   C45   1.508802 S    
C15   C16   1.549669 S    
C57   H60   1.108999 S    
C10   N2    1.463378 S    
C46   C47   1.493647 S    
C54   C55   1.344589 D    
O17   Ba2   2.769066 S    
C11   O22   1.404563 S    
O13   Ba2   2.922724 S    
P4    O12   1.508744 D    
C1    C10   1.524137 S    
C41   H48   1.081875 S    
C31   H44   1.081369 S    
C5    H12   1.110654 S    
O7    Ba1   2.867590 S    
C13   C14   1.520013 S    
C23   C24   1.422545 A    
C51   C52   1.396268 A    
P8    C20   1.839747 S    
C4    H9    1.108216 S    
O14   Ba2   2.755418 S    
C30   C31   1.378008 A    
P4    O15   1.746851 S    
O5    C6    1.396174 S    
O4    P6    1.538462 D    
C19   C25   1.417747 A    
P5    O18   1.544042 D    
C20   C26   1.386469 A    
C12   H25   1.111199 S    
C2    H4    1.108601 S    
C7    H16   1.106252 S    
C47   C48   1.322145 D    
C4    H8    1.106217 S    
C13   H28   1.107213 S    
O33   C57   1.411691 S    
C15   H34   1.110085 S    
P5    C50   1.828325 S    
P8    O23   1.540198 D    
C29   C34   1.420021 A    
C42   H49   1.062453 S    
C43   C48   1.317179 D    
C39   H46   1.064694 S    
C5    H11   1.106107 S    
C21   H38   1.077945 S    
C6    H14   1.111272 S    
C33   C35   1.429349 A    
C36   C39   1.420123 A    
P5    O19   1.750445 S    
N2    O28   1.301178 A    
C28   H41   1.082392 S    
C17   C25   1.435051 A    
O6    P6    1.751607 S    
C18   C26   1.388848 A    
C15   H33   1.108304 S    
P3    C44   1.848175 S    
O16   Ba2   2.927442 S    
C46   C54   1.476087 S    
C22   C28   1.376732 A    
C7    H15   1.111685 S    
P3    O9    1.543852 D    
P4    Ba2   3.431481 S    
P1    O5    1.750250 S    
C16   N4    1.466552 S    
Ba1   O20   2.928429 S    
C3    H6    1.110184 S    
C30   H43   1.083161 S    
P7    O22   1.750966 S    
C19   H37   1.073916 S    
C1    H22   1.110843 S    
C3    H27   1.109444 S    
O19   C13   1.399989 S    
C23   C27   1.442117 A    
C12   H26   1.110646 S    
O12   Ba2   2.884371 S    
