data_mof_unit_25887.cif
_audit_creation_date              2012-12-10T17:47:43-0500
_audit_creation_method            fapswitch 2.2
_symmetry_space_group_name_H-M    P1
_symmetry_Int_Tables_number       1
_space_group_crystal_system       triclinic
_cell_length_a                    10.670469
_cell_length_b                    10.718255
_cell_length_c                    9.892403
_cell_angle_alpha                 89.209629
_cell_angle_beta                  89.897377
_cell_angle_gamma                 91.663747
_cell_volume                      1130.79506368

loop_
_atom_site_label
_atom_site_type_symbol
_atom_type_description
_atom_site_fract_x
_atom_site_fract_y
_atom_site_fract_z
_atom_type_partial_charge
C1    C     C_R   0.508231 0.259992 0.501938 0.930067
C2    C     C_3   0.878659 0.494718 0.499619 -0.009567
C3    C     C_3   0.930417 0.596037 0.399028 -0.451437
C4    C     C_3   0.924534 0.361879 0.459206 0.254034
C5    C     C_R   0.523754 0.107199 0.761621 -0.128864
C6    C     C_R   0.482683 0.043557 0.878173 -0.138551
C7    C     C_R   0.415929 0.931042 0.867289 -0.145298
C8    C     C_R   0.402547 0.876040 0.741196 -0.112455
C9    C     C_R   0.456115 0.934066 0.624129 0.114054
C10   C     C_R   0.498761 0.058086 0.631409 0.102572
C11   C     C_R   0.513863 0.126056 0.507513 -0.088659
C12   C     C_R   0.257887 0.500969 0.500365 0.906535
C13   C     C_R   0.514212 0.064673 0.383764 -0.149549
C14   C     C_R   0.498699 0.937727 0.380930 -0.162790
C15   C     C_R   0.473312 0.871623 0.500718 -0.100197
C16   C     C_R   0.339551 0.331092 0.141948 -0.226683
C17   C     C_R   0.265473 0.244697 0.071368 0.173943
C18   C     C_R   0.263098 0.248779 0.931701 -0.205086
C19   C     C_R   0.338413 0.335222 0.861621 -0.217713
C20   C     C_R   0.420139 0.418522 0.928836 0.150931
C21   C     C_R   0.420304 0.417774 0.073487 0.144626
C22   C     C_R   0.576073 0.578627 0.070258 -0.092952
C23   C     C_R   0.488239 0.739037 0.499697 0.896018
C24   C     C_R   0.576160 0.578465 0.926983 -0.109619
C25   C     C_R   0.742209 0.498555 0.499941 0.908196
C26   C     C_3   0.071084 0.519445 0.646344 -0.366326
C27   C     C_3   0.929368 0.528622 0.642854 -0.401221
C28   C     C_3   0.073949 0.601827 0.403774 -0.020410
C29   C     C_3   0.071166 0.368006 0.452045 -0.067871
C30   C     C_3   0.121483 0.497866 0.501484 -0.020117
H1    H     H_    0.112785 0.606238 0.690074 0.205565
H2    H     H_    0.109598 0.586022 0.299710 0.160240
H3    H     H_    0.578500 0.192072 0.776567 0.189368
H4    H     H_    0.499950 0.083276 0.976700 0.156027
H5    H     H_    0.508567 0.891459 0.284926 0.169419
H6    H     H_    0.638230 0.642741 0.123134 0.146493
H7    H     H_    0.096568 0.440812 0.714687 0.214228
H8    H     H_    0.204675 0.182714 0.876721 0.210567
H9    H     H_    0.332533 0.331975 0.754840 0.240603
H10   H     H_    0.638358 0.642510 0.871911 0.154080
H11   H     H_    0.888490 0.466350 0.723336 0.218643
H12   H     H_    0.891871 0.688199 0.424424 0.212858
N1    N     N_R   0.498810 0.498800 0.142780 -0.110922
N2    N     N_R   0.498760 0.498720 0.857170 -0.123018
O1    O     O_R   0.500000 0.316780 0.614690 -0.651096
O2    O     O_R   0.499990 0.316750 0.385360 -0.626891
O3    O     O_R   0.314800 0.499990 0.614670 -0.643056
O4    O     O_R   0.314790 0.499970 0.385330 -0.644383
O5    O     O_R   0.500010 0.683250 0.614640 -0.633566
O6    O     O_R   0.500000 0.683220 0.385310 -0.617246
O7    O     O_R   0.685210 0.500030 0.614670 -0.619623
O8    O     O_R   0.685200 0.500010 0.385330 -0.601864
Zn1   Zn    Zn3+2 0.500010 0.500020 0.653130 0.938424
Zn2   Zn    Zn3+2 0.499990 0.499980 0.346870 0.964533
I1    I     I_    0.855147 0.300297 0.263809 -0.315514
H13   H     H_    0.899709 0.575873 0.294007 0.197467
H14   H     H_    0.528036 0.114422 0.288515 0.179233
H15   H     H_    0.378276 0.884323 0.956867 0.159174
H16   H     H_    0.350137 0.788266 0.736341 0.167940
H17   H     H_    0.331685 0.326666 0.249116 0.224952
I2    I     I_    0.162084 0.101294 0.172620 -0.285911
H18   H     H_    0.903380 0.625494 0.668283 0.201970
I3    I     I_    0.140247 0.788013 0.454376 -0.334366
H19   H     H_    0.100003 0.361018 0.344481 0.158750
I4    I     I_    0.166479 0.210601 0.543355 -0.318817
I5    I     I_    0.845055 0.220951 0.598540 -0.309872

loop_
_geom_bond_atom_site_label_1
_geom_bond_atom_site_label_2
_ccdc_geom_bond_type
C8    C9    A    
C2    C4    S    
C25   O7    A    
C26   H7    S    
C6    C7    A    
C27   H18   S    
C22   H6    S    
C3    H13   S    
C27   H11   S    
C7    H15   S    
C4    C29   S    
C1    C11   S    
C12   O4    A    
O3    Zn1   S    
C2    C27   S    
C12   C30   S    
O2    Zn2   S    
C15   C23   S    
C17   C18   A    
C18   H8    S    
C29   H19   S    
O1    Zn1   S    
C26   H1    S    
C3    H12   S    
O6    Zn2   S    
C13   C14   A    
O4    Zn2   S    
C11   C13   A    
C1    O1    A    
C26   C27   S    
C29   C30   S    
C19   H9    S    
C12   O3    A    
C29   I4    S    
C28   H2    S    
C28   C30   S    
C3    C28   S    
C20   N2    A    
O8    Zn2   S    
C26   C30   S    
C2    C25   S    
C2    C3    S    
C8    H16   S    
C9    C15   A    
C5    C6    A    
C24   N2    A    
C22   C24   A    
C1    O2    A    
C25   O8    A    
O5    Zn1   S    
C23   O5    A    
C10   C11   A    
C28   I3    S    
C6    H4    S    
C5    C10   A    
C13   H14   S    
C20   C21   A    
C4    I5    S    
C18   C19   A    
C9    C10   A    
C4    I1    S    
C7    C8    A    
C14   C15   A    
C24   H10   S    
C23   O6    A    
N1    Zn2   S    
C17   I2    S    
C21   N1    A    
C16   H17   S    
C16   C21   A    
N2    Zn1   S    
C14   H5    S    
C22   N1    A    
C19   C20   A    
C16   C17   A    
O7    Zn1   S    
C5    H3    S    
