data_mof_unit_18822.cif
_audit_creation_date              2012-12-11T16:05:08-0500
_audit_creation_method            fapswitch 2.2
_symmetry_space_group_name_H-M    P1
_symmetry_Int_Tables_number       1
_space_group_crystal_system       triclinic
_cell_length_a                    10.648706
_cell_length_b                    10.650444
_cell_length_c                    16.913114
_cell_angle_alpha                 98.657752
_cell_angle_beta                  98.729358
_cell_angle_gamma                 61.477322
_cell_volume                      1659.09611071

loop_
_atom_site_label
_atom_site_type_symbol
_atom_type_description
_atom_site_fract_x
_atom_site_fract_y
_atom_site_fract_z
_atom_type_partial_charge
C1    C     C_R   0.382737 0.706195 0.386721 0.570763
C2    C     C_3   0.427966 0.638165 0.231908 -0.234841
C3    C     C_3   0.373686 0.744840 0.306320 0.001379
C4    C     C_R   0.370969 0.347120 0.358619 0.542058
C5    C     C_3   0.434134 0.836954 0.282081 0.362905
C6    C     C_3   0.288847 0.927153 0.236312 -0.141171
C7    C     C_3   0.229792 0.832656 0.259712 0.364915
C8    C     C_3   0.282447 0.728266 0.185677 0.405535
C9    C     C_3   0.342083 0.820967 0.161447 -0.038828
C10   C     C_3   0.460149 0.261973 0.775624 -0.113275
C11   C     C_3   0.397561 0.402668 0.735294 -0.111442
C12   C     C_3   0.779497 0.274389 0.250080 -0.103245
C13   C     C_3   0.336922 0.334259 0.663330 0.052934
C14   C     C_3   0.399536 0.194406 0.703046 -0.110165
C15   C     C_3   0.256751 0.254280 0.741017 -0.113399
C16   C     C_R   0.778788 0.375766 0.402223 0.538589
C17   C     C_3   0.194349 0.395137 0.700120 -0.122002
C18   C     C_3   0.254818 0.462417 0.773657 -0.119172
C19   C     C_3   0.318252 0.321902 0.812894 0.052660
C20   C     C_1   0.817420 0.341818 0.709598 -0.043734
C21   C     C_1   0.843620 0.314994 0.778131 -0.047130
C22   C     C_1   0.338297 0.812141 0.709767 -0.047649
C23   C     C_3   0.837942 0.338370 0.324918 0.050955
C24   C     C_1   0.313479 0.839050 0.778567 -0.044483
C25   C     C_R   0.961656 0.283253 0.102264 0.543928
C26   C     C_R   0.319833 0.300198 0.119956 0.572009
C27   C     C_R   0.298980 0.882809 0.085072 0.559191
C28   C     C_R   0.356486 0.771757 0.627176 0.549817
C29   C     C_R   0.884484 0.299629 0.860983 0.547428
C30   C     C_R   0.308365 0.294440 0.892034 0.551736
C31   C     C_R   0.280337 0.884330 0.859096 0.543543
C32   C     C_R   0.366743 0.345529 0.585091 0.545974
C33   C     C_R   0.774273 0.379469 0.629572 0.539948
C34   C     C_3   0.992828 0.242108 0.304932 -0.120637
C35   C     C_1   0.345441 0.337371 0.274791 -0.035911
C36   C     C_1   0.333523 0.327501 0.203543 -0.012034
C37   C     C_3   0.935118 0.177768 0.228404 -0.078182
C38   C     C_3   0.979947 0.361510 0.257010 -0.139747
C39   C     C_3   0.824282 0.457840 0.277832 -0.101719
C40   C     C_3   0.767237 0.392788 0.202565 -0.127036
C41   C     C_3   0.921774 0.297647 0.182616 0.024392
C42   C     C_3   0.488808 0.732696 0.206637 -0.177553
Cr1   Cr    Cr6+3 0.608340 0.611040 0.520430 1.062508
Cr2   Cr    Cr6+3 0.287650 0.601120 0.489350 1.068753
Cr3   Cr    Cr6+3 0.604040 0.287870 0.490280 1.077579
Cr4   Cr    Cr6+3 0.054020 0.052700 0.970850 1.053433
Cr5   Cr    Cr6+3 0.059230 0.375120 0.993390 1.082096
Cr6   Cr    Cr6+3 0.374950 0.061200 0.992340 1.043415
F1    F     F_    0.097400 0.879100 0.287218 -0.600807
F2    F     F_    0.203147 0.672632 0.134618 -0.590800
F3    F     F_    0.512446 0.893420 0.333382 -0.590169
H1    H     H_    0.237677 0.045381 0.236285 0.103463
H2    H     H_    0.060545 0.399367 0.257780 0.138368
H3    H     H_    0.778466 0.573673 0.298951 0.179074
H4    H     H_    0.679721 0.448164 0.156022 0.135817
H5    H     H_    0.479891 0.519972 0.232566 0.109381
H6    H     H_    0.593141 0.698315 0.183056 0.151447
H7    H     H_    0.696531 0.239025 0.248934 0.148185
H8    H     H_    0.455998 0.463900 0.730846 0.114102
H9    H     H_    0.568629 0.209606 0.808192 0.133795
H10   H     H_    0.456842 0.085011 0.672463 0.138541
H11   H     H_    0.198318 0.193141 0.745657 0.114693
H12   H     H_    0.086396 0.447479 0.667020 0.135873
H13   H     H_    0.197619 0.571380 0.804717 0.139134
H14   H     H_    0.976166 0.066081 0.200813 0.208493
H15   H     H_    0.083207 0.181134 0.348902 0.152919
O1    O     O_R   0.751220 0.499230 0.435170 -0.518241
O2    O     O_R   0.412990 0.180750 0.091610 -0.508523
O3    O     O_R   0.366620 0.943130 0.065760 -0.502516
O4    O     O_R   0.477220 0.727600 0.436870 -0.449434
O5    O     O_R   0.160510 0.906330 0.879210 -0.506536
O6    O     O_R   0.930190 0.179050 0.889450 -0.494062
O7    O     O_R   0.909140 0.398170 0.896710 -0.501701
O8    O     O_R   0.186190 0.363460 0.918830 -0.491406
O9    O     O_R   0.401670 0.173200 0.913310 -0.514538
O10   O     O_R   0.356120 0.936130 0.900470 -0.495818
O11   O     O_3   0.162740 0.163010 0.985530 -0.300838
O12   O     O_R   0.297880 0.469080 0.560050 -0.504971
O13   O     O_R   0.258650 0.745120 0.411470 -0.433713
O14   O     O_R   0.297070 0.467240 0.395960 -0.514704
O15   O     O_R   0.488830 0.252610 0.387790 -0.464974
O16   O     O_R   0.724400 0.302390 0.420980 -0.492770
O17   O     O_R   0.752100 0.501210 0.612190 -0.511513
O18   O     O_R   0.478040 0.729440 0.600970 -0.494308
O19   O     O_R   0.259530 0.747110 0.588490 -0.501089
O20   O     O_R   0.489720 0.254590 0.564810 -0.501641
O21   O     O_R   0.725220 0.304230 0.585080 -0.492383
O22   O     O_3   0.500010 0.500010 0.500020 -0.309686
O23   O     O_R   0.171830 0.913880 0.057510 -0.476386
O24   O     O_R   0.940690 0.186050 0.054730 -0.499968
O25   O     O_R   0.920470 0.405720 0.075010 -0.496044
O26   O     O_R   0.196690 0.370460 0.084120 -0.468837

loop_
_geom_bond_atom_site_label_1
_geom_bond_atom_site_label_2
_ccdc_geom_bond_type
C5    C42   S    
C11   C18   S    
C28   O18   A    
C34   C37   S    
Cr1   O17   S    
Cr5   O26   S    
Cr6   O10   S    
C13   C32   S    
Cr3   O16   S    
Cr6   O3    S    
C34   H15   S    
C6    C9    S    
Cr3   O20   S    
C7    C8    S    
Cr4   O23   S    
C15   C19   S    
C12   C23   S    
C25   O24   A    
Cr1   O22   S    
Cr3   O21   S    
C4    O14   A    
C3    C7    S    
C38   C39   S    
C30   O8    A    
C39   H3    S    
C29   O7    A    
C26   O26   A    
C18   C19   S    
C12   C37   S    
C4    O15   A    
C35   C36   T    
C8    C9    S    
C37   H14   S    
Cr4   O6    S    
C27   O3    A    
C29   O6    A    
C12   H7    S    
C23   C34   S    
C31   O5    A    
C4    C35   S    
C22   C28   S    
C13   C14   S    
Cr1   O18   S    
Cr6   O9    S    
C11   H8    S    
C42   H6    S    
C2    C8    S    
C25   O25   A    
Cr2   O14   S    
Cr3   O22   S    
C7    F1    S    
C38   C41   S    
C10   C14   S    
C25   C41   S    
C39   C40   S    
C14   H10   S    
C21   C29   S    
C1    C3    S    
Cr6   O11   S    
C12   C40   S    
C10   H9    S    
C10   C19   S    
C40   H4    S    
C32   O20   A    
C16   O16   A    
C17   C18   S    
C9    C42   S    
C16   O1    A    
Cr6   O2    S    
C33   O17   A    
Cr5   O7    S    
Cr4   O5    S    
C20   C33   S    
C26   C36   S    
C40   C41   S    
Cr1   O4    S    
C1    O13   A    
C22   C24   T    
Cr5   O11   S    
Cr2   O19   S    
C8    F2    S    
C9    C27   S    
C15   C17   S    
C34   C38   S    
Cr5   O25   S    
Cr2   O13   S    
Cr3   O15   S    
Cr5   O8    S    
C3    C5    S    
Cr4   O11   S    
C6    C7    S    
Cr4   O24   S    
C16   C23   S    
C1    O4    A    
C13   C17   S    
C26   O2    A    
Cr2   O12   S    
C2    C3    S    
C33   O21   A    
C24   C31   S    
C2    H5    S    
C17   H12   S    
C30   O9    A    
C11   C13   S    
C18   H13   S    
C31   O10   A    
C5    C6    S    
C38   H2    S    
C2    C42   S    
C23   C39   S    
C15   H11   S    
C27   O23   A    
C37   C41   S    
C10   C11   S    
C32   O12   A    
C20   C21   T    
Cr1   O1    S    
C28   O19   A    
C14   C15   S    
C5    F3    S    
C6    H1    S    
Cr2   O22   S    
C19   C30   S    
