data_mof_unit_21770.cif
_audit_creation_date              2012-12-10T17:39:04-0500
_audit_creation_method            fapswitch 2.2
_symmetry_space_group_name_H-M    P1
_symmetry_Int_Tables_number       1
_space_group_crystal_system       triclinic
_cell_length_a                    12.211791
_cell_length_b                    12.867008
_cell_length_c                    22.979286
_cell_angle_alpha                 91.776007
_cell_angle_beta                  85.552087
_cell_angle_gamma                 94.709335
_cell_volume                      3586.5875922

loop_
_atom_site_label
_atom_site_type_symbol
_atom_type_description
_atom_site_fract_x
_atom_site_fract_y
_atom_site_fract_z
_atom_type_partial_charge
C1    C     C_R   0.522897 0.700320 0.499709 0.878473
C2    C     C_R   0.476902 0.299582 0.501411 0.973225
C3    C     C_R   0.519806 0.355362 0.747610 0.431973
C4    C     C_R   0.497103 0.572812 0.232917 0.460475
C5    C     C_R   0.497292 0.374834 0.690255 0.348410
C6    C     C_R   0.494762 0.582449 0.294047 0.226102
C7    C     C_R   0.496161 0.478621 0.672273 -0.236580
C8    C     C_R   0.498639 0.492518 0.327053 -0.196735
C9    C     C_R   0.502557 0.562267 0.712806 0.429568
C10   C     C_R   0.495460 0.392132 0.301245 0.527883
C11   C     C_R   0.514710 0.541446 0.770904 -0.224750
C12   C     C_R   0.488186 0.383514 0.240827 -0.366278
C13   C     C_R   0.524995 0.439450 0.788262 0.027496
C14   C     C_R   0.491754 0.472085 0.207173 0.060473
C15   C     C_R   0.461547 0.187168 0.505090 -0.142170
C16   C     C_R   0.537202 0.812779 0.501925 -0.176078
C17   C     C_R   0.647785 0.976599 0.500236 -0.298690
C18   C     C_R   0.350760 0.023337 0.511419 -0.314481
C19   C     C_R   0.641608 0.868230 0.494454 0.473400
C20   C     C_R   0.355955 0.132318 0.509330 0.447194
C21   C     C_R   0.441325 0.865627 0.510192 -0.284182
C22   C     C_R   0.557400 0.134624 0.505080 -0.224714
C23   C     C_R   0.499009 0.497922 0.610480 0.955070
C24   C     C_R   0.500582 0.501729 0.389635 1.005099
C25   C     C_R   0.447443 0.972363 0.509811 0.112332
C26   C     C_R   0.551186 0.028064 0.505944 0.096803
C27   C     C_R   0.958142 0.490922 0.422529 0.450230
C28   C     C_R   0.040854 0.586483 0.560258 0.425245
C29   C     C_R   0.843935 0.465346 0.434001 0.356097
C30   C     C_R   0.155946 0.574126 0.557708 0.324015
C31   C     C_R   0.859452 0.503631 0.534668 0.432657
C32   C     C_R   0.142447 0.484826 0.464990 0.484824
C33   C     C_R   0.975642 0.526310 0.522849 -0.303091
C34   C     C_R   0.026519 0.500203 0.469242 -0.325122
C35   C     C_R   0.589368 0.432535 0.116252 0.629984
C36   C     C_R   0.415115 0.418117 0.878428 0.616095
C37   C     C_R   0.395623 0.450064 0.119880 0.640068
C38   C     C_R   0.609177 0.402407 0.876426 0.661612
C39   C     C_R   0.392861 0.420479 0.060647 -0.199416
C40   C     C_R   0.600563 0.381297 0.936271 -0.212727
C41   C     C_R   0.493393 0.401885 0.028982 -0.140487
C42   C     C_R   0.498404 0.392855 0.967946 -0.124781
C43   C     C_R   0.590634 0.399083 0.057806 -0.189547
C44   C     C_R   0.402825 0.402382 0.938700 -0.177540
C45   C     C_R   0.293709 0.408204 0.031994 0.421029
C46   C     C_R   0.690183 0.351315 0.966192 0.412742
C47   C     C_R   0.298742 0.398039 0.970886 0.415653
C48   C     C_R   0.685358 0.362490 0.027363 0.468640
H1    H     H_    0.512249 0.604345 0.803312 0.189861
H2    H     H_    0.480815 0.308471 0.218414 0.152203
H3    H     H_    0.638549 0.176114 0.502486 0.215795
H4    H     H_    0.360316 0.824054 0.514840 0.222254
H5    H     H_    0.727465 0.020565 0.497903 0.157390
H6    H     H_    0.272459 0.977357 0.512154 0.168429
N1    N     N_R   0.492877 0.455948 0.145676 -0.317312
N2    N     N_R   0.517092 0.419802 0.849236 -0.316377
N3    N     N_R   0.207800 0.519350 0.510590 -0.238787
N4    N     N_R   0.792200 0.480650 0.489410 -0.222730
O1    O     O_R   0.421690 0.658830 0.502820 -0.611818
O2    O     O_R   0.578310 0.341170 0.497180 -0.567612
O3    O     O_R   0.609320 0.646410 0.496030 -0.598828
O4    O     O_R   0.390680 0.353590 0.503970 -0.551546
O5    O     O_R   0.406170 0.506240 0.587240 -0.553716
O6    O     O_R   0.593830 0.493760 0.412760 -0.560201
O7    O     O_R   0.593790 0.493820 0.580450 -0.585848
O8    O     O_R   0.406210 0.506180 0.419550 -0.581680
O9    O     O_2   0.683861 0.445293 0.143390 -0.488142
O10   O     O_2   0.326998 0.435471 0.849143 -0.531832
O11   O     O_2   0.303288 0.474901 0.151471 -0.499345
O12   O     O_2   0.708433 0.409850 0.846101 -0.475416
Zn1   Zn    Zn3+2 0.374720 0.508290 0.504530 1.071400
Zn2   Zn    Zn3+2 0.625280 0.491710 0.495470 1.082006
O13   O     O_3   0.191586 0.412195 0.062438 -0.548315
C49   C     C_3   0.162102 0.315952 0.090062 0.116424
H7    H     H_    0.232157 0.286477 0.111361 0.120320
H8    H     H_    0.133498 0.256148 0.057587 0.109683
C50   C     C_3   0.068038 0.330108 0.136837 -0.233855
H9    H     H_    0.090558 0.397556 0.166105 0.274498
H10   H     H_    0.992878 0.346595 0.115538 0.247907
C51   C     C_3   0.043541 0.232996 0.173612 -0.934939
H11   H     H_    0.019871 0.164414 0.145461 0.253322
H12   H     H_    0.974870 0.245307 0.207029 0.285687
H13   H     H_    0.117124 0.217173 0.196460 0.281296
O14   O     O_3   0.785302 0.316516 0.937504 -0.600048
C52   C     C_3   0.761820 0.224567 0.903243 0.172151
H14   H     H_    0.807737 0.235412 0.859925 0.231391
H15   H     H_    0.673138 0.207283 0.895345 0.163888
C53   C     C_3   0.801522 0.129329 0.931031 -0.462373
H16   H     H_    0.887117 0.146878 0.943671 0.243640
H17   H     H_    0.747547 0.109336 0.970653 0.210578
C54   C     C_3   0.796769 0.034423 0.889459 -0.847822
H18   H     H_    0.710619 0.013575 0.878416 0.278187
H19   H     H_    0.826904 0.967021 0.910719 0.271697
H20   H     H_    0.849253 0.050432 0.848618 0.269312
S1    S     S_3+6 0.189471 0.402937 0.404629 0.091079
O15   O     O_2   0.093599 0.333052 0.385409 -0.269872
O16   O     O_2   0.234951 0.469115 0.354299 -0.276191
O17   O     O_3   0.284809 0.323497 0.418646 -0.477399
H21   H     H_    0.283857 0.269838 0.386792 0.379820
S2    S     S_3+6 0.817632 0.458454 0.605927 0.112419
O18   O     O_2   0.739355 0.362565 0.601640 -0.242612
O19   O     O_2   0.916321 0.429791 0.635369 -0.250357
O20   O     O_3   0.757215 0.550153 0.647540 -0.509724
H22   H     H_    0.758082 0.610349 0.621802 0.352376
S3    S     S_3+6 0.221396 0.615255 0.622775 0.116256
O21   O     O_2   0.241176 0.519596 0.655088 -0.313001
O22   O     O_2   0.327097 0.680141 0.608124 -0.282712
O23   O     O_3   0.146158 0.686584 0.670610 -0.431735
H23   H     H_    0.192574 0.701823 0.703818 0.389583
S4    S     S_3+6 0.784894 0.383058 0.378943 0.073603
O24   O     O_2   0.690760 0.311749 0.403249 -0.318752
O25   O     O_2   0.747954 0.447585 0.331820 -0.268718
O26   O     O_3   0.880711 0.307575 0.348281 -0.494105
H24   H     H_    0.845925 0.270707 0.315097 0.363200
S5    S     S_3+6 0.002192 0.553913 0.355731 0.104622
O27   O     O_2   0.910832 0.613708 0.337271 -0.313752
O28   O     O_2   0.100702 0.629363 0.364168 -0.334536
O29   O     O_3   0.033431 0.466610 0.302275 -0.415755
H25   H     H_    0.059746 0.508943 0.267941 0.383887
S6    S     S_3+6 0.987788 0.705942 0.586581 0.054845
O30   O     O_2   0.077569 0.793172 0.581495 -0.296187
O31   O     O_2   0.896547 0.731764 0.550539 -0.335457
O32   O     O_3   0.937697 0.696408 0.656649 -0.450862
H26   H     H_    0.903570 0.762737 0.666013 0.365996
O33   O     O_3   0.201236 0.389195 0.943415 -0.552228
C55   C     C_3   0.181733 0.285316 0.922134 0.119672
H27   H     H_    0.153336 0.233119 0.958794 0.101389
H28   H     H_    0.256787 0.254827 0.899152 0.161742
C56   C     C_3   0.092254 0.281166 0.879050 -0.244639
H29   H     H_    0.013467 0.301444 0.902378 0.258740
H30   H     H_    0.115602 0.339145 0.844491 0.273504
C57   C     C_3   0.076401 0.172999 0.850316 -0.988571
H31   H     H_    0.152969 0.154047 0.824248 0.287617
H32   H     H_    0.008648 0.171486 0.820725 0.276238
H33   H     H_    0.055235 0.112859 0.883847 0.274028
O34   O     O_3   0.773356 0.336753 0.057203 -0.567805
C58   C     C_3   0.757423 0.230689 0.073617 0.093902
H34   H     H_    0.832637 0.192345 0.057461 0.167926
H35   H     H_    0.685525 0.185850 0.054889 0.083490
C59   C     C_3   0.742449 0.222311 0.140175 -0.310395
H36   H     H_    0.806676 0.273971 0.160682 0.266880
H37   H     H_    0.660368 0.247298 0.156166 0.214235
C60   C     C_3   0.749027 0.110440 0.159082 -0.982775
H38   H     H_    0.683435 0.057982 0.140123 0.275597
H39   H     H_    0.737549 0.107211 0.207436 0.267910
H40   H     H_    0.830574 0.082473 0.144600 0.277867
S7    S     S_3+6 0.538347 0.226204 0.768904 0.031139
O35   O     O_2   0.657986 0.219943 0.778111 -0.283849
O36   O     O_2   0.470724 0.202066 0.825031 -0.389205
O37   O     O_3   0.502792 0.135382 0.718059 -0.512309
H41   H     H_    0.511383 0.067730 0.735915 0.371037
S8    S     S_3+6 0.504462 0.685173 0.189274 0.058420
O38   O     O_2   0.572744 0.667950 0.133059 -0.274372
O39   O     O_2   0.389805 0.705342 0.175679 -0.278041
O40   O     O_3   0.560941 0.790313 0.224525 -0.550306
H42   H     H_    0.561660 0.848114 0.196990 0.373841
O41   O     O_3   0.473248 0.291285 0.652702 -0.578132
C61   C     C_3   0.357794 0.275593 0.646436 0.093756
H43   H     H_    0.343444 0.198944 0.623842 0.173622
H44   H     H_    0.331260 0.334204 0.617465 0.177464
C62   C     C_3   0.282998 0.272400 0.703964 -0.378402
H45   H     H_    0.306669 0.211223 0.732464 0.272334
H46   H     H_    0.290687 0.348828 0.727740 0.251531
C63   C     C_3   0.162171 0.249383 0.691873 -0.848841
H47   H     H_    0.137479 0.306356 0.660979 0.292168
H48   H     H_    0.109519 0.255934 0.733125 0.285612
H49   H     H_    0.148110 0.169093 0.673409 0.244012
O42   O     O_3   0.497341 0.679843 0.321413 -0.636671
C64   C     C_3   0.388232 0.707420 0.334423 0.177534
H50   H     H_    0.347337 0.659721 0.370532 0.184450
H51   H     H_    0.338319 0.696415 0.295744 0.199468
C65   C     C_3   0.391464 0.822183 0.353825 -0.363067
H52   H     H_    0.447193 0.836529 0.389558 0.216393
H53   H     H_    0.424680 0.871151 0.316660 0.260056
C66   C     C_3   0.277281 0.854119 0.375124 -0.884656
H54   H     H_    0.220080 0.841476 0.339817 0.292674
H55   H     H_    0.282911 0.938114 0.388140 0.251234
H56   H     H_    0.244036 0.808147 0.413623 0.279519
O43   O     O_3   0.478573 0.661122 0.698350 -0.590118
C67   C     C_3   0.576371 0.719299 0.678303 0.106772
H57   H     H_    0.602662 0.692028 0.633490 0.141575
H58   H     H_    0.643528 0.713134 0.708031 0.162616
C68   C     C_3   0.553851 0.833962 0.675015 -0.328645
H59   H     H_    0.490958 0.841804 0.643274 0.260184
H60   H     H_    0.521041 0.862455 0.718559 0.232883
C69   C     C_3   0.658608 0.901105 0.655833 -0.892715
H61   H     H_    0.719276 0.901145 0.689437 0.266915
H62   H     H_    0.638496 0.982548 0.649966 0.297754
H63   H     H_    0.696219 0.870880 0.613803 0.288539
O44   O     O_3   0.490752 0.306577 0.337801 -0.622323
C70   C     C_3   0.530501 0.215392 0.310518 0.155920
H64   H     H_    0.573084 0.175043 0.343200 0.184973
H65   H     H_    0.594636 0.232178 0.274079 0.140808
C71   C     C_3   0.434223 0.140466 0.292249 -0.414372
H66   H     H_    0.392751 0.101888 0.331612 0.227606
H67   H     H_    0.372085 0.183702 0.272340 0.243055
C72   C     C_3   0.474079 0.057586 0.248565 -0.954377
H68   H     H_    0.507945 0.094522 0.207254 0.267306
H69   H     H_    0.403979 0.000917 0.238738 0.289726
H70   H     H_    0.538946 0.015281 0.266722 0.271281
O45   O     O_3   0.262696 0.186726 0.505475 -0.598608
C73   C     C_3   0.167879 0.145685 0.539129 0.075358
H71   H     H_    0.130007 0.212463 0.562242 0.175782
H72   H     H_    0.185595 0.092400 0.573922 0.126083
C74   C     C_3   0.084099 0.093617 0.498881 -0.341595
H73   H     H_    0.059813 0.152540 0.468963 0.264067
H74   H     H_    0.121384 0.030965 0.471706 0.221663
C75   C     C_3   0.981368 0.046930 0.533765 -0.846779
H75   H     H_    0.003724 0.989089 0.564781 0.303318
H76   H     H_    0.924417 0.006697 0.503453 0.262917
H77   H     H_    0.938500 0.109300 0.558433 0.269240
O46   O     O_3   0.736569 0.816231 0.484175 -0.585570
C76   C     C_3   0.787918 0.839195 0.428051 0.073862
H78   H     H_    0.872851 0.813609 0.426371 0.211280
H79   H     H_    0.797363 0.924293 0.419595 0.117336
C77   C     C_3   0.726854 0.779671 0.379727 -0.340798
H80   H     H_    0.730204 0.694448 0.384870 0.273678
H81   H     H_    0.639122 0.796935 0.383251 0.221816
C78   C     C_3   0.776810 0.810926 0.319235 -0.728763
H82   H     H_    0.760854 0.892758 0.310987 0.231032
H83   H     H_    0.738772 0.759035 0.285590 0.320080
H84   H     H_    0.867130 0.804115 0.315406 0.274267

loop_
_geom_bond_atom_site_label_1
_geom_bond_atom_site_label_2
_ccdc_geom_bond_type
C60   H40   S    
C71   H67   S    
C38   O12   S    
C3    S7    S    
C55   H27   S    
C75   H76   S    
C37   O11   S    
C27   C29   A    
C64   H51   S    
C41   C42   A    
S3    O21   D    
S1    O15   D    
C77   C78   S    
N4    Zn2   S    
C54   H20   S    
C62   H45   S    
S1    O17   S    
O32   H26   S    
C39   C41   A    
C50   H9    S    
S6    O30   D    
C40   C46   A    
S3    O22   D    
C16   C21   A    
C73   H72   S    
C11   H1    S    
C17   C26   A    
C29   N4    A    
C31   N4    A    
C63   H47   S    
S7    O36   D    
C77   H81   S    
C20   O45   S    
C56   H29   S    
C68   H60   S    
C52   H14   S    
C65   H52   S    
C2    O2    A    
C74   C75   S    
C71   C72   S    
C54   H19   S    
O2    Zn2   S    
C60   H38   S    
C30   N3    A    
C60   H39   S    
O23   H23   S    
C45   O13   S    
C64   H50   S    
C45   C47   A    
C72   H69   S    
S4    O24   D    
C61   C62   S    
C17   C19   A    
O29   H25   S    
O41   C61   S    
S7    O35   D    
C65   H53   S    
C75   H75   S    
S5    O28   D    
C49   C50   S    
S8    O40   S    
C74   H73   S    
C35   C43   A    
C43   C48   A    
C75   H77   S    
C3    C13   A    
C44   C47   A    
C24   O8    A    
C39   C45   A    
C56   C57   S    
C23   O5    A    
C14   N1    S    
C15   C22   A    
C24   O6    A    
C61   H44   S    
C41   C43   A    
C18   C25   A    
C42   C44   A    
C32   N3    A    
C51   H13   S    
C10   C12   A    
C62   H46   S    
C67   H58   S    
C47   O33   S    
C66   H56   S    
C6    O42   S    
C76   H79   S    
C27   C34   A    
C59   H36   S    
C15   C20   A    
C4    S8    S    
S3    O23   S    
C46   C48   A    
C49   H7    S    
C52   H15   S    
C35   N1    A    
C70   H64   S    
C57   H33   S    
C29   S4    S    
S7    O37   S    
C77   H80   S    
C66   H55   S    
C73   H71   S    
C68   C69   S    
C78   H82   S    
C5    C7    A    
O34   C58   S    
C6    C8    A    
C55   C56   S    
C25   C26   A    
C76   H78   S    
C73   C74   S    
S2    O20   S    
N3    Zn1   S    
C19   O46   S    
C1    O3    A    
S6    O32   S    
C32   C34   A    
C72   H70   S    
C68   H59   S    
C70   H65   S    
O44   C70   S    
C36   N2    A    
C57   H31   S    
C78   H83   S    
C58   H35   S    
C40   C42   A    
O8    Zn1   S    
C53   C54   S    
C35   O9    S    
S5    O29   S    
C36   O10   S    
S2    O19   D    
C33   C34   A    
C50   H10   S    
C1    C16   S    
C10   O44   S    
C31   S2    S    
O14   C52   S    
C59   C60   S    
C2    C15   S    
C9    C11   A    
S4    O26   S    
C49   H8    S    
C46   O14   S    
O3    Zn2   S    
C57   H32   S    
O42   C64   S    
C1    O1    A    
O5    Zn1   S    
C28   C33   A    
C5    O41   S    
C30   S3    S    
C28   S6    S    
C61   H43   S    
C64   C65   S    
C36   C44   A    
C4    C6    A    
C69   H62   S    
O13   C49   S    
C17   H5    S    
O20   H22   S    
C62   C63   S    
C67   H57   S    
S6    O31   D    
C65   C66   S    
O26   H24   S    
S8    O39   D    
C52   C53   S    
C7    C9    A    
C21   C25   A    
S1    O16   D    
C31   C33   A    
C55   H28   S    
C48   O34   S    
C63   H49   S    
C53   H17   S    
C51   H11   S    
C3    C5    A    
C9    O43   S    
C12   H2    S    
C67   C68   S    
C76   C77   S    
C59   H37   S    
O7    Zn2   S    
C58   H34   S    
O45   C73   S    
C13   N2    S    
C69   H63   S    
C63   H48   S    
C12   C14   A    
C70   C71   S    
C37   C39   A    
C66   H54   S    
C78   H84   S    
C38   C40   A    
C11   C13   A    
C23   O7    A    
S5    O27   D    
O33   C55   S    
C50   C51   S    
C16   C19   A    
C7    C23   S    
C58   C59   S    
C28   C30   A    
S2    O18   D    
C8    C24   S    
C51   H12   S    
O4    Zn1   S    
C71   H66   S    
C18   C20   A    
O6    Zn2   S    
C4    C14   A    
C72   H68   S    
S4    O25   D    
C18   H6    S    
O43   C67   S    
C37   N1    A    
C32   S1    S    
C38   N2    A    
C53   H16   S    
C8    C10   A    
O17   H21   S    
C22   C26   A    
O1    Zn1   S    
O40   H42   S    
O37   H41   S    
S8    O38   D    
C69   H61   S    
C74   H74   S    
C21   H4    S    
C54   H18   S    
C2    O4    A    
O46   C76   S    
C22   H3    S    
C56   H30   S    
C27   S5    S    
