data_mof_unit_7221.cif
_audit_creation_date              2012-12-11T16:04:20-0500
_audit_creation_method            fapswitch 2.2
_symmetry_space_group_name_H-M    P1
_symmetry_Int_Tables_number       1
_space_group_crystal_system       triclinic
_cell_length_a                    8.28415
_cell_length_b                    16.644863
_cell_length_c                    17.543588
_cell_angle_alpha                 96.429111
_cell_angle_beta                  96.539026
_cell_angle_gamma                 93.404383
_cell_volume                      2381.82504653

loop_
_atom_site_label
_atom_site_type_symbol
_atom_type_description
_atom_site_fract_x
_atom_site_fract_y
_atom_site_fract_z
_atom_type_partial_charge
Ba1   Ba    Ba6+2 0.150890 0.539190 0.463180 1.722122
Ba2   Ba    Ba6+2 0.659280 0.460800 0.536750 1.705673
C1    C     C_3   0.387503 0.861939 0.222312 -0.226808
C2    C     C_R   0.842237 0.759800 0.510138 0.065357
C3    C     C_R   0.894288 0.843721 0.522869 -0.156069
C4    C     C_3   0.871912 0.762869 0.267958 0.569260
C5    C     C_R   0.791243 0.902111 0.494762 0.267027
C6    C     C_R   0.634643 0.874570 0.457555 -0.099760
C7    C     C_R   0.585508 0.791429 0.444655 -0.059827
C8    C     C_R   0.919560 0.153395 0.479228 -0.120105
C9    C     C_R   0.969969 0.238174 0.489815 -0.040086
C10   C     C_R   0.018413 0.097118 0.516346 0.247176
C11   C     C_R   0.119889 0.264326 0.532732 -0.245508
C12   C     C_3   0.407198 0.786179 0.264553 0.282017
C13   C     C_R   0.224479 0.209410 0.562116 -0.044182
C14   C     C_R   0.172232 0.126853 0.555679 -0.159038
C15   C     C_R   0.569775 0.548175 0.278068 -0.171661
C16   C     C_3   0.816832 0.815761 0.203823 -0.246015
C17   C     C_R   0.436226 0.491911 0.252545 0.128275
C18   C     C_R   0.389985 0.472081 0.171047 -0.056347
C19   C     C_R   0.481120 0.509215 0.118793 -0.015826
C20   C     C_R   0.626441 0.555830 0.146666 -0.099164
C21   C     C_R   0.674752 0.572151 0.225974 -0.038016
C22   C     C_R   0.415784 0.519688 0.834399 -0.107005
C23   C     C_3   0.538727 0.705789 0.644790 0.305997
C24   C     C_R   0.359312 0.511962 0.755281 0.023509
C25   C     C_R   0.113597 0.436126 0.778430 0.023095
C26   C     C_R   0.169099 0.444011 0.857729 -0.044541
C27   C     C_R   0.322252 0.484436 0.885810 0.018854
C28   C     C_3   0.869660 0.327187 0.289146 0.241298
C29   C     C_1   0.380663 0.492481 0.967543 0.015505
C30   C     C_1   0.428129 0.499623 0.036091 -0.005501
C31   C     C_R   0.212723 0.467095 0.727538 -0.289015
C32   C     C_3   0.841431 0.277256 0.208260 -0.125814
C33   C     C_3   0.080942 0.667653 0.701887 0.316502
C34   C     C_3   0.575281 0.796944 0.665748 -0.375687
C35   C     C_3   0.178170 0.723090 0.770092 -0.016366
C36   C     C_3   0.311395 0.287363 0.362713 0.378914
C37   C     C_3   0.322735 0.197275 0.332991 0.069815
C38   C     C_2   0.386420 0.710208 0.208139 0.567059
C39   C     C_2   0.979352 0.601478 0.728441 0.475050
C40   C     C_2   0.224421 0.863945 0.176510 0.531423
C41   C     C_2   0.791526 0.902971 0.230411 0.377688
C42   C     C_2   0.779511 0.124139 0.421037 0.631659
C43   C     C_2   0.255738 0.410343 0.137730 0.514701
C44   C     C_2   0.788112 0.403530 0.284043 0.764466
C45   C     C_3   0.918511 0.239254 0.701176 0.401853
C46   C     C_3   0.910790 0.154154 0.724871 -0.356750
C47   C     C_3   0.382352 0.250731 0.743725 0.338434
C48   C     C_3   0.457743 0.258128 0.828055 -0.100174
C49   C     C_R   0.691103 0.734886 0.468945 -0.283848
H1    H     H_    0.712568 0.252447 0.195386 0.107546
H2    H     H_    0.479909 0.866083 0.181871 0.052517
H3    H     H_    0.650671 0.679340 0.627202 0.028125
H4    H     H_    0.439594 0.695200 0.595543 0.049341
H5    H     H_    0.668076 0.809652 0.717463 0.144385
H6    H     H_    0.622784 0.823731 0.617036 0.051705
H7    H     H_    0.462182 0.826116 0.677885 0.104331
H8    H     H_    0.408238 0.916705 0.265679 0.088058
H9    H     H_    0.838960 0.238622 0.645761 0.091307
H10   H     H_    0.045915 0.256521 0.692584 -0.119609
H11   H     H_    0.783376 0.134291 0.731289 0.143828
H12   H     H_    0.863257 0.316454 0.162548 0.141211
H13   H     H_    0.955048 0.111307 0.680215 0.075808
H14   H     H_    0.988422 0.153140 0.780562 0.106537
H15   H     H_    0.282377 0.202070 0.733588 -0.013400
H16   H     H_    0.333934 0.309930 0.732986 -0.000296
H17   H     H_    0.558322 0.307202 0.837678 0.142801
H18   H     H_    0.510064 0.200080 0.840979 0.095514
H19   H     H_    0.550720 0.917937 0.438861 0.124725
H20   H     H_    0.010837 0.863234 0.556221 0.106224
H21   H     H_    0.253987 0.084924 0.579166 0.089537
H22   H     H_    0.650275 0.671213 0.461200 0.064627
H23   H     H_    0.169643 0.639544 0.666424 -0.085421
H24   H     H_    0.160668 0.327938 0.538516 0.063450
H25   H     H_    0.530194 0.554098 0.855895 0.102483
H26   H     H_    0.704785 0.577291 0.106637 0.084873
H27   H     H_    0.093202 0.419529 0.897226 0.075364
H28   H     H_    0.761089 0.739776 0.290918 -0.167784
H29   H     H_    0.605966 0.563410 0.339442 0.070720
H30   H     H_    0.169920 0.461468 0.666437 0.046489
H31   H     H_    0.907474 0.815795 0.162562 0.125622
H32   H     H_    0.704107 0.787226 0.169385 0.019773
H33   H     H_    0.000997 0.339488 0.307081 0.058471
H34   H     H_    0.261674 0.766927 0.747514 0.074181
H35   H     H_    0.463039 0.702919 0.162277 -0.085557
H36   H     H_    0.065793 0.235481 0.202409 0.209340
H37   H     H_    0.940997 0.177582 0.248947 0.186292
H38   H     H_    0.931832 0.550986 0.686152 0.020565
H39   H     H_    0.032115 0.816840 0.788570 0.187003
H40   H     H_    0.138746 0.792075 0.869656 0.190746
H41   H     H_    0.142905 0.909035 0.194108 -0.056420
H42   H     H_    0.316297 0.085692 0.372649 0.205995
H43   H     H_    0.382252 0.163653 0.439729 0.235612
H44   H     H_    0.488677 0.216471 0.258712 0.183108
H45   H     H_    0.253935 0.685675 0.806717 0.067996
H46   H     H_    0.485031 0.124013 0.285856 0.182532
H47   H     H_    0.811275 0.948716 0.192149 0.032000
H48   H     H_    0.269817 0.224712 0.886685 0.179168
H49   H     H_    0.396843 0.301297 0.933923 0.178725
H50   H     H_    0.908130 0.836333 0.371025 0.175574
H51   H     H_    0.047132 0.855434 0.312311 0.182197
H52   H     H_    0.785553 0.132314 0.361091 -0.007981
H53   H     H_    0.260120 0.376677 0.081372 -0.036975
H54   H     H_    0.711748 0.413108 0.231446 -0.491310
H55   H     H_    0.195903 0.294816 0.387774 -0.119688
H56   H     H_    0.413212 0.307567 0.408368 0.081279
H57   H     H_    0.227510 0.178794 0.284075 0.077825
H58   H     H_    0.533079 0.792417 0.293516 -0.058028
N1    N     N_2   0.833242 0.988194 0.506337 -0.176074
N2    N     N_2   0.980715 0.010218 0.507812 -0.229186
N3    N     N_3   0.946817 0.210435 0.201661 -0.498452
N4    N     N_3   0.069874 0.767543 0.817016 -0.428927
N5    N     N_3   0.294631 0.145476 0.392502 -0.532038
N6    N     N_3   0.481274 0.185188 0.306559 -0.449205
N7    N     N_3   0.335143 0.278416 0.879131 -0.532761
N8    N     N_3   0.979049 0.808808 0.331925 -0.401262
O1    O     O_2   0.124170 0.696240 0.537320 -0.454039
O2    O     O_2   0.773415 0.440765 0.772725 -0.443215
O3    O     O_3   0.864428 0.292948 0.758815 -0.589602
O4    O     O_3   0.874280 0.596090 0.538840 -0.492257
O5    O     O_3   0.430090 0.459160 0.409230 -0.498159
O6    O     O_2   0.641040 0.538740 0.685130 -0.437831
O7    O     O_3   0.490984 0.672241 0.709400 -0.647919
O8    O     O_2   0.564259 0.211612 0.553895 -0.459047
O9    O     O_3   0.502227 0.230124 0.696288 -0.591625
O10   O     O_3   0.350640 0.647210 0.399890 -0.462520
O11   O     O_2   0.262068 0.788137 0.462662 -0.463263
O12   O     O_3   0.315320 0.331751 0.299449 -0.660371
O13   O     O_3   0.976528 0.714215 0.660044 -0.662759
O14   O     O_3   0.292763 0.783789 0.317672 -0.562161
O15   O     O_2   0.169260 0.461210 0.314850 -0.417949
O16   O     O_3   0.932460 0.606800 0.361650 -0.427706
O17   O     O_2   0.001131 0.545698 0.225041 -0.385643
O18   O     O_2   0.282871 0.656482 0.212763 -0.518548
O19   O     O_2   0.949178 0.603225 0.795181 -0.565271
O20   O     O_2   0.184567 0.816737 0.118112 -0.567705
O21   O     O_2   0.743147 0.922975 0.292553 -0.600331
O22   O     O_2   0.655327 0.092920 0.439558 -0.562279
O23   O     O_3   0.957592 0.699669 0.235044 -0.540034
O24   O     O_2   0.136517 0.397884 0.170464 -0.575226
O25   O     O_2   0.801228 0.454179 0.340196 -0.578294
O26   O     O_2   0.686120 0.303710 0.462660 -0.439871
O27   O     O_3   0.936010 0.403900 0.461090 -0.451477
O28   O     O_3   0.459650 0.352790 0.600040 -0.467077
O29   O     O_3   0.796196 0.283261 0.340864 -0.660659
O30   O     O_3   0.380200 0.540830 0.590710 -0.490293
O31   O     O_3   0.877840 0.393190 0.638290 -0.503597
P1    P     P_3+3 0.954010 0.683680 0.560080 0.978045
P2    P     P_3+3 0.343360 0.437010 0.326580 1.045073
P3    P     P_3+3 0.889251 0.606344 0.261672 1.102318
P4    P     P_3+3 0.856290 0.316310 0.439860 1.020744
P5    P     P_3+3 0.907224 0.391969 0.738565 0.991765
P6    P     P_3+3 0.376082 0.753413 0.405509 1.004839
P7    P     P_3+3 0.464263 0.566805 0.687345 0.957664
P8    P     P_3+3 0.435377 0.248277 0.601988 0.961537

loop_
_geom_bond_atom_site_label_1
_geom_bond_atom_site_label_2
_ccdc_geom_bond_type
C25   P5    S    
C12   H58   S    
C39   H38   S    
C33   H23   S    
C3    H20   S    
O15   P2    D    
C17   C18   A    
C14   H21   S    
C41   H47   S    
Ba2   O27   S    
Ba1   O15   S    
H43   N5    S    
C5    C6    A    
C44   O25   D    
O6    P7    D    
Ba2   O6    S    
C25   C31   A    
Ba2   O28   S    
C2    P1    S    
C15   C21   A    
O5    P2    S    
C35   H34   S    
C26   C27   A    
C33   C35   S    
C48   H18   S    
C22   C24   A    
O4    P1    S    
C34   H7    S    
C36   C37   S    
C46   H13   S    
C35   N4    S    
Ba2   O31   S    
C13   C14   A    
C44   H54   S    
C9    C11   A    
C17   P2    S    
C32   N3    S    
C41   O21   D    
Ba1   Ba2   S    
H39   N4    S    
C38   H35   S    
C36   H56   S    
N1    N2    D    
O3    P5    S    
C49   H22   S    
C45   H9    S    
C22   C27   A    
O28   P8    S    
C11   H24   S    
H44   N6    S    
C6    C7    A    
H49   N7    S    
Ba1   P1    S    
C46   H14   S    
H46   N6    S    
O30   P7    S    
C4    N8    S    
C48   N7    S    
C18   C43   S    
O8    P8    D    
O11   P6    D    
H42   N5    S    
O2    P5    D    
C19   C20   A    
C40   O20   D    
C43   O24   D    
Ba2   O26   S    
C24   P7    S    
Ba1   O16   S    
O10   P6    S    
C38   O18   D    
C42   H52   S    
C28   O29   S    
C12   O14   S    
Ba2   O5    S    
Ba2   P4    S    
C37   H57   S    
C4    C16   S    
C19   C30   S    
C47   H15   S    
C28   C32   S    
C2    C49   A    
C8    C42   S    
C36   O12   S    
C10   C14   A    
C23   H3    S    
C34   H6    S    
H48   N7    S    
C3    C5    A    
C22   H25   S    
H36   N3    S    
Ba2   O30   S    
C15   H29   S    
H40   N4    S    
C35   H45   S    
C36   H55   S    
O1    P1    D    
C34   H5    S    
C43   H53   S    
C24   C31   A    
C46   H11   S    
C45   C46   S    
O23   P3    S    
C37   N5    S    
O13   P1    S    
C16   H32   S    
Ba1   P2    S    
H51   N8    S    
C33   O13   S    
C13   P8    S    
C1    C12   S    
C8    C10   A    
O14   P6    S    
O29   P4    S    
C1    C40   S    
C45   O3    S    
C7    P6    S    
C42   O22   D    
C37   N6    S    
C11   C13   A    
C4    O23   S    
Ba1   O30   S    
O31   P5    S    
C15   C17   A    
C26   H27   S    
Ba2   O4    S    
C21   P3    S    
O26   P4    D    
C47   H16   S    
C6    H19   S    
C28   C44   S    
C29   C30   T    
Ba1   O10   S    
C20   H26   S    
C2    C3    A    
C47   O9    S    
C45   H10   S    
C32   H1    S    
C5    N1    S    
H50   N8    S    
C7    C49   A    
O12   P2    S    
C27   C29   S    
Ba1   O27   S    
C16   C41   S    
C1    H2    S    
C4    H28   S    
C31   H30   S    
O17   P3    D    
C32   H12   S    
C16   H31   S    
C23   H4    S    
C40   H41   S    
Ba1   O1    S    
C10   N2    S    
C28   H33   S    
C33   C39   S    
C23   O7    S    
Ba1   O4    S    
C8    C9    A    
C23   C34   S    
C12   C38   S    
H37   N3    S    
C9    P4    S    
C18   C19   A    
O27   P4    S    
C47   C48   S    
O7    P7    S    
C25   C26   A    
C20   C21   A    
C48   H17   S    
C39   O19   D    
Ba1   O5    S    
C1    H8    S    
O16   P3    S    
O9    P8    S    
