data_mof_unit_52055.cif
_audit_creation_date              2012-12-10T21:07:41-0500
_audit_creation_method            fapswitch 2.2
_symmetry_space_group_name_H-M    P1
_symmetry_Int_Tables_number       1
_space_group_crystal_system       triclinic
_cell_length_a                    8.589415
_cell_length_b                    17.494943
_cell_length_c                    16.964746
_cell_angle_alpha                 92.707467
_cell_angle_beta                  98.630405
_cell_angle_gamma                 92.721436
_cell_volume                      2513.78891755

loop_
_atom_site_label
_atom_site_type_symbol
_atom_type_description
_atom_site_fract_x
_atom_site_fract_y
_atom_site_fract_z
_atom_type_partial_charge
C1    C     C_R   0.503196 0.352839 0.498452 0.943313
C2    C     C_R   0.385658 0.457861 0.240901 0.060925
C3    C     C_R   0.626923 0.533357 0.844906 -0.057487
C4    C     C_R   0.387397 0.453855 0.156725 -0.074667
C5    C     C_R   0.498863 0.499197 0.876093 -0.007590
C6    C     C_R   0.496862 0.501041 0.123924 -0.004306
C7    C     C_1   0.497272 0.499774 0.963731 0.049821
C8    C     C_1   0.496984 0.500281 0.036181 0.060823
C9    C     C_R   0.201390 0.496386 0.479511 0.949122
C10   C     C_R   0.798660 0.502551 0.520380 0.968051
C11   C     C_2   0.037635 0.480547 0.472699 -0.178959
C12   C     C_R   0.496623 0.647052 0.501649 0.951753
C13   C     C_2   0.962432 0.517349 0.526890 -0.159751
C14   C     C_R   0.495576 0.851011 0.585681 -0.109524
C15   C     C_R   0.393531 0.143824 0.441073 -0.074910
C16   C     C_R   0.538747 0.775377 0.574529 -0.092344
C17   C     C_R   0.425485 0.221980 0.431440 -0.108193
C18   C     C_R   0.468924 0.729672 0.505983 -0.099774
C19   C     C_R   0.508745 0.268516 0.496582 -0.081748
C20   C     C_R   0.357617 0.761057 0.447415 -0.090139
C21   C     C_R   0.582003 0.233939 0.565719 -0.095401
C22   C     C_R   0.321116 0.838453 0.456521 -0.072287
C23   C     C_1   0.398404 0.964488 0.523878 0.130105
C24   C     C_R   0.551422 0.155295 0.574253 -0.068649
C25   C     C_R   0.393973 0.882908 0.524801 0.045289
C26   C     C_R   0.452012 0.111820 0.513090 0.015220
C27   C     C_2   0.974524 0.409541 0.423347 0.454722
C28   C     C_2   0.027549 0.587551 0.576648 0.461268
C29   C     C_2   0.561679 0.898606 0.659631 1.010777
C30   C     C_2   0.303089 0.094170 0.374736 0.983588
C31   C     C_2   0.664378 0.746299 0.632858 0.934981
C32   C     C_2   0.379026 0.251880 0.351530 0.870052
C33   C     C_2   0.273946 0.713116 0.377948 0.479717
C34   C     C_1   0.418034 0.032126 0.521035 0.095854
C35   C     C_2   0.699983 0.278242 0.626606 0.516330
C36   C     C_2   0.203966 0.872104 0.395431 0.469914
C37   C     C_2   0.628899 0.118154 0.645667 0.441613
C38   C     C_2   0.234436 0.430036 0.853104 0.550673
C39   C     C_2   0.717506 0.602426 0.143683 0.468873
C40   C     C_2   0.246354 0.422499 0.683335 1.039763
C41   C     C_2   0.738200 0.587270 0.316276 1.056178
C42   C     C_2   0.756664 0.571931 0.729033 0.453942
C43   C     C_2   0.254217 0.419332 0.272722 0.415188
C44   C     C_2   0.762917 0.570230 0.900400 0.472626
C45   C     C_R   0.372745 0.464231 0.821537 -0.190474
C46   C     C_2   0.278255 0.396960 0.105040 0.543271
C47   C     C_R   0.606725 0.548835 0.177288 -0.154718
C48   C     C_R   0.377747 0.463129 0.737532 0.047117
C49   C     C_R   0.609948 0.544884 0.261801 0.058347
C50   C     C_R   0.623741 0.534444 0.760325 0.052503
H1    H     H_    0.025110 0.393057 0.370984 0.121106
H2    H     H_    0.626840 0.143402 0.705089 0.070571
H3    H     H_    0.187305 0.460703 0.900414 0.143998
H4    H     H_    0.740724 0.592682 0.083264 0.122799
H5    H     H_    0.169454 0.330090 0.609979 0.357895
H6    H     H_    0.812513 0.683365 0.384360 0.364372
H7    H     H_    0.734079 0.604391 0.676731 0.101040
H8    H     H_    0.275249 0.392224 0.328517 0.103375
H9    H     H_    0.811386 0.626376 0.889120 0.102806
H10   H     H_    0.245170 0.342820 0.128354 0.081660
H11   H     H_    0.991231 0.598959 0.633927 0.112057
H12   H     H_    0.752346 0.934524 0.739647 0.375287
H13   H     H_    0.090781 0.060359 0.312067 0.373985
H14   H     H_    0.891323 0.719789 0.655944 0.351226
H15   H     H_    0.206722 0.259682 0.257713 0.346846
H16   H     H_    0.281123 0.729533 0.317688 0.061101
H17   H     H_    0.710329 0.266371 0.689228 0.053025
H18   H     H_    0.182499 0.848751 0.334239 0.062588
N1    N     N_R   0.500040 0.500030 0.707230 -0.178644
N2    N     N_R   0.499960 0.499970 0.292770 -0.175731
O1    O     O_R   0.500000 0.389130 0.566570 -0.579950
O2    O     O_2   0.116873 0.634419 0.552690 -0.519244
O3    O     O_2   0.474195 0.936707 0.694223 -0.586785
O4    O     O_R   0.723051 0.900571 0.688972 -0.723183
O5    O     O_2   0.372186 0.050102 0.335858 -0.599157
O6    O     O_R   0.139181 0.096958 0.358315 -0.695485
O7    O     O_2   0.644405 0.740185 0.702225 -0.625439
O8    O     O_R   0.808809 0.730537 0.609121 -0.793748
O9    O     O_2   0.480023 0.279388 0.315864 -0.579894
O10   O     O_R   0.221662 0.243699 0.314881 -0.770282
O11   O     O_2   0.192354 0.656406 0.387770 -0.481221
O12   O     O_R   0.500000 0.610870 0.433430 -0.585172
O13   O     O_2   0.790606 0.327065 0.606783 -0.496443
O14   O     O_2   0.126466 0.925182 0.413379 -0.518660
O15   O     O_2   0.700442 0.060323 0.638188 -0.519900
O16   O     O_2   0.174142 0.367355 0.827711 -0.505243
O17   O     O_2   0.780113 0.659635 0.181651 -0.525459
O18   O     O_2   0.114575 0.447136 0.677601 -0.593506
O19   O     O_R   0.269215 0.352816 0.644357 -0.782929
O20   O     O_2   0.869079 0.561555 0.326779 -0.578070
O21   O     O_R   0.714405 0.659587 0.349404 -0.769036
O22   O     O_2   0.892775 0.565151 0.759993 -0.586094
O23   O     O_R   0.499990 0.389100 0.433480 -0.619711
O24   O     O_2   0.119249 0.419297 0.237553 -0.563426
O25   O     O_2   0.825938 0.536644 0.957062 -0.546934
O26   O     O_2   0.220446 0.410443 0.037406 -0.558635
O27   O     O_R   0.500010 0.610900 0.566520 -0.641055
O28   O     O_R   0.271750 0.500010 0.550980 -0.623038
O29   O     O_R   0.728250 0.499990 0.449020 -0.607067
O30   O     O_R   0.271740 0.499980 0.417890 -0.617229
O31   O     O_R   0.728260 0.500020 0.582110 -0.624498
O32   O     O_2   0.872751 0.366545 0.443089 -0.498727
Zn1   Zn    Zn3+2 0.500010 0.500020 0.588860 1.007740
Zn2   Zn    Zn3+2 0.499990 0.499980 0.411140 1.025322

loop_
_geom_bond_atom_site_label_1
_geom_bond_atom_site_label_2
_ccdc_geom_bond_type
C9    O28   A    
C39   O17   D    
C48   N1    A    
C7    C8    T    
C47   C49   A    
C4    C46   S    
C16   C31   S    
C1    O1    A    
C38   O16   D    
C37   O15   D    
C19   C21   A    
C50   N1    A    
C24   C26   A    
N2    Zn2   S    
C39   H4    S    
C29   O3    D    
H13   O6    S    
C44   H9    S    
O28   Zn1   S    
O30   Zn2   S    
C43   O24   D    
C42   H7    S    
C40   C48   S    
C38   C45   S    
C43   H8    S    
C26   C34   S    
H6    O21   S    
C22   C25   A    
C13   C28   S    
C11   C27   S    
C40   O19   S    
C18   C20   A    
C28   H11   S    
O29   Zn2   S    
O31   Zn1   S    
H15   O10   S    
C28   O2    D    
O23   Zn2   S    
C41   C49   S    
C3    C50   A    
C27   H1    S    
C33   H16   S    
C31   O7    D    
N1    Zn1   S    
C3    C44   S    
C1    C19   S    
C6    C47   A    
C4    C6    A    
C5    C7    S    
C37   H2    S    
C35   O13   D    
C15   C26   A    
C6    C8    S    
C29   O4    S    
C5    C45   A    
C2    C4    A    
C32   O10   S    
C30   O6    S    
C35   H17   S    
C2    C43   S    
C23   C34   T    
C24   C37   S    
C12   O12   A    
C9    C11   S    
C12   O27   A    
O27   Zn1   S    
C42   C50   S    
C20   C33   S    
C16   C18   A    
C41   O21   S    
C20   C22   A    
C9    O30   A    
C49   N2    A    
C14   C16   A    
C14   C29   S    
C15   C30   S    
C39   C47   S    
C45   C48   A    
C15   C17   A    
O1    Zn1   S    
C46   H10   S    
H14   O8    S    
C10   O31   A    
C3    C5    A    
C10   C13   S    
C36   H18   S    
C21   C35   S    
C22   C36   S    
C27   O32   D    
C40   O18   D    
H5    O19   S    
C44   O25   D    
C32   O9    D    
C30   O5    D    
C11   C13   D    
C38   H3    S    
C36   O14   D    
C17   C19   A    
C41   O20   D    
C42   O22   D    
C23   C25   S    
C14   C25   A    
C10   O29   A    
C46   O26   D    
C1    O23   A    
C21   C24   A    
C12   C18   S    
C17   C32   S    
O12   Zn2   S    
H12   O4    S    
C2    N2    A    
C33   O11   D    
C31   O8    S    
