data_mof_unit_35020.cif
_audit_creation_date              2012-10-26T19:48:34-0400
_audit_creation_method            fapswitch 2.2
_symmetry_space_group_name_H-M    P1
_symmetry_Int_Tables_number       1
_space_group_crystal_system       triclinic
_cell_length_a                    10.781349
_cell_length_b                    9.402454
_cell_length_c                    27.779066
_cell_angle_alpha                 89.958095
_cell_angle_beta                  90.124999
_cell_angle_gamma                 89.580818
_cell_volume                      2815.91268282

loop_
_atom_site_label
_atom_site_type_symbol
_atom_type_description
_atom_site_fract_x
_atom_site_fract_y
_atom_site_fract_z
_atom_type_partial_charge
C1    C     C_R   0.259888 0.500169 0.500288 0.547242
C2    C     C_R   0.375185 0.506316 0.974453 0.023306
C3    C     C_R   0.596288 0.572273 0.974838 0.023739
C4    C     C_R   0.500528 0.500196 0.407388 0.566283
C5    C     C_R   0.487318 0.533310 0.949436 0.036293
C6    C     C_R   0.270721 0.462177 0.947397 -0.139063
C7    C     C_R   0.274720 0.452017 0.897548 -0.110747
C8    C     C_R   0.383535 0.482293 0.872586 0.025213
C9    C     C_R   0.490623 0.520953 0.898402 -0.027298
C10   C     C_R   0.601098 0.547045 0.873046 0.023704
C11   C     C_R   0.601554 0.538052 0.822604 0.400484
C12   C     C_R   0.454157 0.634081 0.281151 -0.093341
C13   C     C_R   0.387915 0.474492 0.822125 0.398765
C14   C     C_R   0.505564 0.629848 0.721128 -0.055718
C15   C     C_R   0.506134 0.629198 0.670980 -0.111828
C16   C     C_R   0.740324 0.499172 0.501683 0.590657
C17   C     C_R   0.489698 0.371974 0.671444 -0.144037
C18   C     C_R   0.488667 0.372985 0.721676 -0.051798
C19   C     C_R   0.496694 0.501926 0.746643 0.240160
C20   C     C_R   0.371779 0.520779 0.025462 0.014890
C21   C     C_R   0.481238 0.556893 0.051002 0.030749
C22   C     C_R   0.592123 0.587622 0.025760 0.016235
C23   C     C_R   0.490596 0.517812 0.253213 0.208483
C24   C     C_R   0.260719 0.506091 0.051719 -0.153742
C25   C     C_R   0.693061 0.647964 0.102230 0.007826
C26   C     C_R   0.707041 0.591146 0.948280 -0.138554
C27   C     C_R   0.708764 0.580403 0.898448 -0.111039
C28   C     C_R   0.499033 0.499956 0.592607 0.589454
C29   C     C_R   0.694251 0.639017 0.052171 -0.157198
C30   C     C_3   0.075488 0.575180 0.547556 -0.236473
C31   C     C_3   0.075505 0.344110 0.502297 -0.187285
C32   C     C_3   0.930893 0.596317 0.545829 0.240315
C33   C     C_3   0.932063 0.337157 0.508020 0.239326
C34   C     C_R   0.480100 0.561320 0.102253 -0.053219
C35   C     C_3   0.069266 0.574581 0.456505 -0.244155
C36   C     C_3   0.122463 0.499282 0.501631 -0.032852
C37   C     C_3   0.879374 0.496531 0.503854 0.058672
C38   C     C_3   0.927199 0.558905 0.455175 -0.219697
C39   C     C_3   0.570490 0.082772 0.542546 -0.111238
C40   C     C_3   0.568770 0.915233 0.542992 -0.099295
C41   C     C_3   0.372632 0.084638 0.503870 -0.107627
C42   C     C_3   0.372555 0.917180 0.503123 -0.105612
C43   C     C_3   0.556994 0.083377 0.456728 -0.105671
C44   C     C_3   0.559917 0.916044 0.457237 -0.113622
C45   C     C_R   0.370109 0.528964 0.127786 0.040380
C46   C     C_R   0.378053 0.509272 0.178119 0.461267
C47   C     C_R   0.591063 0.575809 0.178336 0.459336
C48   C     C_R   0.532278 0.390515 0.275558 0.066453
C49   C     C_R   0.540182 0.385363 0.326409 0.210262
C50   C     C_R   0.457701 0.626638 0.330965 -0.193956
C51   C     C_2   0.567831 0.261965 0.247232 0.288132
C52   C     C_2   0.799710 0.721358 0.124817 0.312227
C53   C     C_2   0.872761 0.559106 0.594280 0.208578
C54   C     C_2   0.894231 0.271211 0.556457 0.184704
C55   C     C_3   0.943374 0.843395 0.567064 -0.086660
C56   C     C_R   0.257784 0.513621 0.101821 0.018307
C57   C     C_3   0.909844 0.108576 0.471457 -0.119353
C58   C     C_2   0.133067 0.515175 0.124325 0.280151
C59   C     C_3   0.713234 0.278803 0.356282 -0.117275
C60   C     C_R   0.589281 0.596855 0.128000 0.041260
C61   C     C_R   0.499488 0.502870 0.354233 0.005521
C62   C     C_R   0.498284 0.500226 0.645630 0.027414
Cu1   Cu    Cu3+1 0.499860 0.642410 0.500020 0.912125
Cu2   Cu    Cu3+1 0.499860 0.357590 0.500020 0.912208
H1    H     H_    0.426696 0.718334 0.351360 0.134595
H2    H     H_    0.124261 0.282903 0.530932 0.157467
H3    H     H_    0.422331 0.731126 0.263926 0.152558
H4    H     H_    0.093650 0.689426 0.457240 0.142831
H5    H     H_    0.110033 0.528086 0.423210 0.123398
H6    H     H_    0.884204 0.664414 0.447344 0.152287
H7    H     H_    0.901012 0.488615 0.424705 0.137468
H8    H     H_    0.530794 0.121857 0.576970 0.119492
H9    H     H_    0.525254 0.879589 0.577086 0.120231
H10   H     H_    0.667678 0.119280 0.541442 0.115089
H11   H     H_    0.665163 0.873091 0.543300 0.171208
H12   H     H_    0.795463 0.611678 0.964842 0.109121
H13   H     H_    0.326405 0.122781 0.537280 0.122039
H14   H     H_    0.324122 0.877235 0.535723 0.113811
H15   H     H_    0.503271 0.118566 0.424652 0.173484
H16   H     H_    0.511523 0.877732 0.424442 0.126849
H17   H     H_    0.652140 0.125147 0.452206 0.156452
H18   H     H_    0.657519 0.877566 0.454701 0.122991
H19   H     H_    0.315950 0.124431 0.473107 0.115239
H20   H     H_    0.318026 0.880317 0.471506 0.115365
H21   H     H_    0.513050 0.729639 0.652151 0.126997
H22   H     H_    0.511552 0.729881 0.740259 0.128806
H23   H     H_    0.483374 0.271033 0.652909 0.115907
H24   H     H_    0.191735 0.419202 0.878628 0.169428
H25   H     H_    0.184174 0.431882 0.963520 0.111516
H26   H     H_    0.172355 0.495404 0.033980 0.086843
H27   H     H_    0.600773 0.166904 0.265510 0.149302
H28   H     H_    0.892231 0.706093 0.110302 0.115486
H29   H     H_    0.920592 0.489961 0.619629 0.116340
H30   H     H_    0.800872 0.286031 0.569890 0.128847
H31   H     H_    0.018941 0.905193 0.550139 0.123157
H32   H     H_    0.978477 0.799283 0.601705 0.128512
H33   H     H_    0.866671 0.918264 0.575582 0.160569
H34   H     H_    0.795705 0.597504 0.879899 0.168492
H35   H     H_    0.898181 0.062105 0.435067 0.118215
H36   H     H_    0.843665 0.054338 0.495649 0.131654
H37   H     H_    0.006189 0.084743 0.483314 0.117047
H38   H     H_    0.059984 0.449157 0.109634 0.094750
H39   H     H_    0.763399 0.299405 0.322008 0.127285
H40   H     H_    0.750409 0.177931 0.371372 0.145739
H41   H     H_    0.732571 0.364592 0.382706 0.148208
H42   H     H_    0.481969 0.273692 0.741237 0.133083
H43   H     H_    0.775127 0.680657 0.034519 0.090326
H44   H     H_    0.124152 0.678165 0.551245 0.131520
H45   H     H_    0.103849 0.293958 0.467660 0.138313
H46   H     H_    0.104395 0.511066 0.579419 0.086434
N1    N     N_R   0.486747 0.533331 0.201826 -0.380935
N2    N     N_R   0.495585 0.503654 0.798253 -0.399141
N3    N     N_3   0.500250 0.143650 0.501060 -0.237206
N4    N     N_3   0.500250 0.856350 0.501060 -0.234667
O1    O     O_R   0.317570 0.620260 0.500030 -0.519805
O2    O     O_2   0.285083 0.439902 0.797069 -0.490096
O3    O     O_2   0.697104 0.590024 0.203644 -0.424714
O4    O     O_2   0.707011 0.563350 0.798040 -0.482328
O5    O     O_2   0.560125 0.258898 0.203412 -0.472920
O6    O     O_2   0.784156 0.807670 0.157105 -0.418638
O7    O     O_2   0.770914 0.606225 0.605249 -0.498650
O8    O     O_2   0.966323 0.200911 0.580905 -0.581584
O9    O     O_3   0.899960 0.740485 0.533713 -0.569971
O10   O     O_3   0.882155 0.256213 0.468923 -0.594209
O11   O     O_2   0.108137 0.597655 0.156889 -0.435479
O12   O     O_R   0.317570 0.379740 0.500030 -0.526849
O13   O     O_3   0.584553 0.263622 0.348738 -0.604018
O14   O     O_R   0.499900 0.620250 0.430280 -0.532126
O15   O     O_R   0.499900 0.379750 0.430280 -0.462961
O16   O     O_R   0.682190 0.620260 0.500010 -0.460401
O17   O     O_R   0.682190 0.379740 0.500010 -0.495153
O18   O     O_R   0.499860 0.620280 0.569750 -0.490796
O19   O     O_R   0.499860 0.379720 0.569750 -0.522385
O20   O     O_2   0.280711 0.459177 0.203177 -0.421488

loop_
_geom_bond_atom_site_label_1
_geom_bond_atom_site_label_2
_ccdc_geom_bond_type
C10   C27   A    
C31   H2    S    
C38   H6    S    
C27   H34   S    
C8    C13   A    
C22   C29   A    
C41   C42   S    
C35   C36   S    
C7    C8    A    
C45   C46   A    
C23   C48   A    
C12   C23   A    
C26   C27   A    
C59   H41   S    
C30   H46   S    
C59   H40   S    
C13   N2    A    
C44   H18   S    
C31   C36   S    
C41   H13   S    
Cu1   O16   S    
C43   H15   S    
C41   H19   S    
C40   H9    S    
C18   C19   A    
C39   H10   S    
C16   O17   A    
C32   C37   S    
C51   H27   S    
C47   C60   A    
Cu2   O19   S    
Cu1   N4    S    
C42   N4    S    
C48   C51   S    
C40   N4    S    
C20   C24   A    
C45   C56   A    
C8    C9    A    
C39   N3    S    
C33   O10   S    
C51   O5    D    
C39   H8    S    
C31   C33   S    
C58   H38   S    
C25   C60   A    
C16   O16   A    
C9    C10   A    
Cu1   O14   S    
C16   C37   S    
C15   H21   S    
Cu1   O1    S    
C54   O8    D    
C44   N4    S    
C21   C22   A    
C34   C60   A    
C32   O9    S    
C2    C6    A    
C25   C29   A    
C49   O13   S    
C12   H3    S    
C55   O9    S    
C49   C61   A    
C4    O14   A    
C2    C20   A    
C28   O19   A    
C44   H16   S    
C35   C38   S    
C42   H20   S    
C1    O12   A    
C14   H22   S    
C55   H31   S    
C39   C40   S    
C21   C34   A    
C19   N2    S    
C57   H36   S    
C53   H29   S    
C4    C61   S    
C33   C37   S    
C28   O18   A    
C43   C44   S    
C18   H42   S    
C5    C9    A    
C37   C38   S    
C17   C62   A    
C46   O20   S    
C26   H12   S    
C7    H24   S    
Cu2   O17   S    
C55   H33   S    
C17   C18   A    
C31   H45   S    
C34   C45   A    
Cu1   O18   S    
Cu2   O15   S    
C4    O15   A    
C52   O6    D    
C48   C49   A    
C42   H14   S    
Cu2   O12   S    
C43   H17   S    
C52   H28   S    
C2    C5    A    
C32   C53   S    
C57   H37   S    
C33   C54   S    
C57   H35   S    
C38   H7    S    
Cu2   N3    S    
C30   H44   S    
C11   N2    A    
C17   H23   S    
C14   C19   A    
C3    C26   A    
C41   N3    S    
C55   H32   S    
C3    C5    A    
C24   H26   S    
C12   C50   A    
C6    C7    A    
C24   C56   A    
C6    H25   S    
C23   N1    S    
C40   H11   S    
C30   C36   S    
C59   H39   S    
C25   C52   S    
C53   O7    D    
C43   N3    S    
C57   O10   S    
C30   C32   S    
C35   H4    S    
C47   N1    A    
C15   C62   A    
C56   C58   S    
C50   H1    S    
C54   H30   S    
C13   O2    S    
C10   C11   A    
Cu1   Cu2   S    
C47   O3    S    
C20   C21   A    
C35   H5    S    
C58   O11   D    
C50   C61   A    
C14   C15   A    
C29   H43   S    
C3    C22   A    
C1    O1    A    
C46   N1    A    
C11   O4    S    
C59   O13   S    
C1    C36   S    
C28   C62   S    
