data_mof_unit_57226.cif
_audit_creation_date              2012-10-26T19:06:30-0400
_audit_creation_method            fapswitch 2.2
_symmetry_space_group_name_H-M    P1
_symmetry_Int_Tables_number       1
_space_group_crystal_system       triclinic
_cell_length_a                    12.328946
_cell_length_b                    13.09144
_cell_length_c                    14.335433
_cell_angle_alpha                 78.912739
_cell_angle_beta                  100.909823
_cell_angle_gamma                 116.269511
_cell_volume                      2021.79077825

loop_
_atom_site_label
_atom_site_type_symbol
_atom_type_description
_atom_site_fract_x
_atom_site_fract_y
_atom_site_fract_z
_atom_type_partial_charge
C1    C     C_R   0.854766 0.286486 0.505382 0.530443
C2    C     C_R   0.437815 0.978280 0.465914 -0.004003
C3    C     C_R   0.394122 0.059929 0.414449 0.040419
C4    C     C_R   0.999926 0.499770 0.668775 0.541037
C5    C     C_R   0.478638 0.168346 0.380322 -0.085021
C6    C     C_R   0.602514 0.199576 0.403477 -0.121231
C7    C     C_R   0.352314 0.868173 0.495591 -0.142187
C8    C     C_R   0.185128 0.916823 0.423064 -0.105860
C9    C     C_R   0.772433 0.163484 0.503602 0.003521
C10   C     C_R   0.340602 0.322033 0.643336 -0.115762
C11   C     C_R   0.764349 0.650644 0.380427 0.071338
C12   C     C_1   0.999840 0.499998 0.228855 -0.012168
C13   C     C_R   0.671810 0.688007 0.355671 0.233807
C14   C     C_R   0.565993 0.630294 0.400575 -0.125932
C15   C     C_R   0.553230 0.536695 0.472349 -0.049045
C16   C     C_R   0.145108 0.713725 0.487502 0.555328
C17   C     C_R   0.652528 0.504735 0.497579 0.162853
C18   C     C_R   0.447084 0.475202 0.521235 0.011446
C19   C     C_R   0.443102 0.384076 0.594447 0.065159
C20   C     C_R   0.541932 0.356178 0.619401 -0.154507
C21   C     C_R   0.644964 0.416164 0.572858 -0.080266
C22   C     C_R   0.343800 0.499769 0.500997 0.045519
C23   C     C_R   0.266886 0.029687 0.396350 0.263083
C24   C     C_R   0.242535 0.350827 0.620255 0.069804
C25   C     C_R   0.000012 0.500140 0.331224 0.550109
C26   C     C_1   0.999890 0.499632 0.771164 -0.033706
C27   C     C_1   0.999821 0.499589 0.856617 -0.026114
C28   C     C_1   0.999771 0.499619 0.957303 0.023537
C29   C     C_1   0.999760 0.499702 0.042745 0.030768
C30   C     C_1   0.999781 0.499852 0.143418 -0.006712
C31   C     C_R   0.227710 0.835626 0.470527 -0.053614
C32   C     C_R   0.817049 0.082129 0.547982 -0.101678
C33   C     C_R   0.739291 0.966242 0.558819 -0.100522
C34   C     C_R   0.614888 0.930088 0.531117 -0.079764
C35   C     C_R   0.565542 0.009806 0.487956 0.054754
C36   C     C_R   0.647521 0.125703 0.465269 0.032749
Cu1   Cu    Cu3+1 0.098280 0.475420 0.520190 0.952452
Cu2   Cu    Cu3+1 0.901720 0.524580 0.479810 0.926575
H1    H     H_    0.088089 0.891451 0.405168 0.186404
H2    H     H_    0.912224 0.108130 0.575806 0.142464
H3    H     H_    0.560659 0.838840 0.542518 0.104717
H4    H     H_    0.775143 0.904068 0.591771 0.129606
H5    H     H_    0.661972 0.281680 0.369611 0.160234
H6    H     H_    0.162912 0.303587 0.657782 0.125359
H7    H     H_    0.836207 0.947816 0.200885 0.393934
H8    H     H_    0.239073 0.300756 0.363161 0.373605
H9    H     H_    0.540251 0.287851 0.676362 0.115416
H10   H     H_    0.336618 0.252161 0.699256 0.103575
H11   H     H_    0.338031 0.566645 0.446207 0.121211
H12   H     H_    0.846178 0.694119 0.345325 0.179306
H13   H     H_    0.496367 0.661494 0.378871 0.140252
H14   H     H_    0.717357 0.391059 0.599710 0.179817
H15   H     H_    0.450649 0.230458 0.334657 0.199912
H16   H     H_    0.380322 0.805061 0.538468 0.133068
N1    N     N_R   0.246290 0.438200 0.550780 -0.230171
N2    N     N_R   0.754310 0.561180 0.449760 -0.272705
O1    O     O_R   0.972510 0.318130 0.525390 -0.490387
O2    O     O_2   0.649951 0.885602 0.305784 -0.273108
O3    O     O_3   0.834157 0.879982 0.246587 -0.505237
O4    O     O_2   0.230104 0.162653 0.238340 -0.273983
O5    O     O_2   0.071528 0.079619 0.346168 -0.251350
O6    O     O_3   0.275183 0.248015 0.398188 -0.545725
O7    O     O_R   0.806530 0.359650 0.491290 -0.528087
O8    O     O_R   0.083010 0.479240 0.641000 -0.478930
O9    O     O_R   0.917030 0.520750 0.606900 -0.495423
O10   O     O_R   0.193470 0.640350 0.508710 -0.502683
O11   O     O_R   0.027490 0.681870 0.474610 -0.499483
O12   O     O_R   0.082970 0.479250 0.393100 -0.474550
O13   O     O_R   0.916990 0.520760 0.359000 -0.487838
O14   O     O_2   0.608159 0.767147 0.178856 -0.258273
S1    S     S_3+6 0.688381 0.807801 0.269340 0.011744
S2    S     S_3+6 0.206442 0.130082 0.341369 0.000699

loop_
_geom_bond_atom_site_label_1
_geom_bond_atom_site_label_2
_ccdc_geom_bond_type
C2    C35   A    
C15   C18   A    
C4    C26   S    
C34   H3    S    
C29   C30   S    
C8    H1    S    
C1    O1    A    
C9    C36   A    
Cu2   N2    S    
C4    O8    A    
C3    C23   A    
C35   C36   A    
C9    C32   A    
Cu2   O9    S    
C10   C19   A    
C34   C35   A    
C12   C30   T    
C32   C33   A    
C8    C23   A    
C2    C3    A    
Cu2   O13   S    
O6    S2    S    
C11   H12   S    
C13   C14   A    
Cu1   O10   S    
C16   C31   S    
C11   C13   A    
C17   N2    A    
C26   C27   T    
Cu1   Cu2   S    
C25   O12   A    
H8    O6    S    
C22   H11   S    
C5    C6    A    
C33   H4    S    
C1    O7    A    
O5    S2    D    
C5    H15   S    
C28   C29   T    
C7    C31   A    
C6    C36   A    
O14   S1    D    
C33   C34   A    
C6    H5    S    
C32   H2    S    
C14   H13   S    
C10   H10   S    
C4    O9    A    
C24   H6    S    
C17   C21   A    
O2    S1    D    
C20   H9    S    
C25   O13   A    
O4    S2    D    
C12   C25   S    
C16   O11   A    
Cu1   N1    S    
Cu1   O12   S    
C3    C5    A    
Cu1   O8    S    
C1    C9    S    
Cu2   O11   S    
C2    C7    A    
H7    O3    S    
Cu2   O7    S    
C27   C28   S    
C15   C17   A    
C14   C15   A    
C18   C19   A    
C16   O10   A    
C22   N1    A    
C13   S1    S    
C7    H16   S    
C10   C24   A    
C20   C21   A    
C18   C22   A    
C8    C31   A    
C23   S2    S    
C21   H14   S    
Cu1   O1    S    
C11   N2    A    
C19   C20   A    
O3    S1    S    
C24   N1    A    
