data_mof_unit_9755.cif
_audit_creation_date              2013-03-05T15:42:15-0500
_audit_creation_method            fapswitch 2.2
_symmetry_space_group_name_H-M    P1
_symmetry_Int_Tables_number       1
_space_group_crystal_system       triclinic
_cell_length_a                    11.463612
_cell_length_b                    11.656111
_cell_length_c                    19.521534
_cell_angle_alpha                 90.259837
_cell_angle_beta                  89.784648
_cell_angle_gamma                 59.747005
_cell_volume                      2253.15884253

loop_
_atom_site_label
_atom_site_type_symbol
_atom_site_description
_atom_site_fract_x
_atom_site_fract_y
_atom_site_fract_z
_atom_type_partial_charge
O1    O     O_R   0.267740 0.231960 0.575440 -0.500058
O2    O     O_R   0.527280 0.186640 0.570530 -0.482294
C1    C     C_R   0.640848 0.116781 0.599256 0.558443
O3    O     O_R   0.728090 0.003450 0.576380 -0.494511
O4    O     O_R   0.682970 0.789190 0.570490 -0.488783
C2    C     C_R   0.613177 0.745271 0.598495 0.557146
O5    O     O_R   0.499290 0.771880 0.575530 -0.489209
O6    O     O_R   0.285330 0.030870 0.569730 -0.490511
C3    C     C_R   0.241007 0.145119 0.598055 0.542056
O7    O     O_R   0.270980 0.227080 0.423890 -0.524036
O8    O     O_R   0.530280 0.182120 0.430050 -0.481385
C4    C     C_R   0.620410 0.080005 0.394242 0.526833
O9    O     O_R   0.731330 0.998570 0.424830 -0.508041
O10   O     O_R   0.685970 0.784660 0.430010 -0.523466
C5    C     C_R   0.593720 0.779663 0.394014 0.509121
O11   O     O_R   0.502530 0.767000 0.423990 -0.477485
O12   O     O_R   0.288330 0.026350 0.429250 -0.522708
C6    C     C_R   0.234152 0.147170 0.404542 0.515167
Cr1   Cr    Cr6+3 0.404720 0.198220 0.499960 1.062150
Cr2   Cr    Cr6+3 0.698290 0.897110 0.500380 1.054137
Cr3   Cr    Cr6+3 0.396970 0.904720 0.499610 1.062770
O13   O     O_3   0.499990 0.000020 0.499980 -0.295033
C7    C     C_1   0.670221 0.646878 0.860196 0.002841
C8    C     C_1   0.655393 0.683380 0.728371 -0.028895
C9    C     C_1   0.663654 0.666790 0.799688 -0.030395
C10   C     C_1   0.642022 0.703343 0.667874 0.005325
C11   C     C_1   0.126894 0.199681 0.859369 0.004439
C12   C     C_1   0.171196 0.170426 0.727700 -0.028376
C13   C     C_1   0.150248 0.182907 0.798966 -0.030032
C14   C     C_1   0.194879 0.160737 0.667283 0.007750
C15   C     C_1   0.677479 0.192200 0.860844 0.004621
C16   C     C_1   0.658706 0.166809 0.729019 -0.028706
C17   C     C_1   0.664987 0.181383 0.800366 -0.029132
C18   C     C_1   0.653627 0.148766 0.668618 0.005225
H1    H     H_    0.843823 0.608257 0.343558 0.136666
C19   C     C_R   0.686813 0.572733 0.205840 -0.001503
C20   C     C_R   0.552260 0.633496 0.233181 0.053483
C21   C     C_R   0.520816 0.722405 0.287185 0.036567
C22   C     C_R   0.761967 0.623035 0.310389 -0.144939
C23   C     C_R   0.791722 0.560061 0.246929 -0.162061
C24   C     C_R   0.444790 0.621029 0.204052 -0.063462
C25   C     C_R   0.310973 0.711363 0.218447 -0.084179
C26   C     C_R   0.280188 0.807496 0.267016 -0.052020
C27   C     C_R   0.383199 0.816121 0.299701 -0.063006
C28   C     C_R   0.627317 0.712736 0.328103 0.007325
H2    H     H_    0.460047 0.546401 0.166813 0.133602
H3    H     H_    0.895283 0.505504 0.228972 0.135063
H4    H     H_    0.230283 0.707252 0.192098 0.098867
H5    H     H_    0.175727 0.870621 0.280180 0.126799
H6    H     H_    0.354959 0.896603 0.334158 0.147276
H7    H     H_    0.089201 0.050720 0.337531 0.136548
C29   C     C_R   0.129060 0.205141 0.197484 0.003878
C30   C     C_R   0.170488 0.284565 0.232392 0.006437
C31   C     C_R   0.152730 0.297869 0.303541 -0.003941
C32   C     C_R   0.109849 0.116283 0.307619 -0.175513
C33   C     C_R   0.092905 0.125467 0.236446 -0.153298
C34   C     C_R   0.223976 0.355226 0.199128 -0.136983
C35   C     C_R   0.239892 0.450103 0.234815 -0.146341
C36   C     C_R   0.195604 0.481916 0.302717 0.195419
C37   C     C_R   0.144802 0.410413 0.335520 -0.083874
C38   C     C_R   0.153653 0.192862 0.340707 0.000260
H8    H     H_    0.256911 0.335416 0.146190 0.144783
H9    H     H_    0.051397 0.070368 0.212049 0.150989
H10   H     H_    0.283844 0.499723 0.208534 0.106891
H11   H     H_    0.108426 0.437012 0.387759 0.167126
H12   H     H_    0.490836 0.314933 0.331352 0.200918
C39   C     C_R   0.653352 0.168988 0.184240 -0.007834
C40   C     C_R   0.715925 0.034043 0.203481 0.035374
C41   C     C_R   0.719324 0.001629 0.273712 0.007388
C42   C     C_R   0.556563 0.234424 0.297348 -0.124280
C43   C     C_R   0.569912 0.266293 0.230935 -0.155903
C44   C     C_R   0.781826 0.930921 0.154450 -0.081588
C45   C     C_R   0.870433 0.801910 0.174864 -0.114680
C46   C     C_R   0.889316 0.773081 0.243995 -0.112124
C47   C     C_R   0.810178 0.869000 0.292886 -0.095852
C48   C     C_R   0.634813 0.104182 0.321193 -0.012175
H13   H     H_    0.768150 0.950324 0.100026 0.133254
H14   H     H_    0.520839 0.368426 0.217752 0.126942
H15   H     H_    0.925949 0.724629 0.137117 0.127942
H16   H     H_    0.960865 0.673648 0.259663 0.134598
H17   H     H_    0.824548 0.835598 0.344873 0.184717
O14   O     O_R   0.821500 0.119340 0.952830 -0.507439
O15   O     O_R   0.037130 0.162530 0.957360 -0.488730
C49   C     C_R   0.081489 0.231734 0.928669 0.547552
O16   O     O_R   0.056440 0.344740 0.951340 -0.505549
O17   O     O_R   0.797900 0.560360 0.957470 -0.489223
C50   C     C_R   0.683445 0.605065 0.929595 0.558458
O18   O     O_R   0.596130 0.579390 0.952730 -0.500008
O19   O     O_R   0.639060 0.321160 0.958670 -0.494778
C51   C     C_R   0.707659 0.207141 0.930197 0.543686
O20   O     O_R   0.821240 0.124200 0.104370 -0.520661
O21   O     O_R   0.036890 0.167040 0.097840 -0.499671
C52   C     C_R   0.081221 0.236907 0.126362 0.526244
O22   O     O_R   0.056180 0.349610 0.102880 -0.535017
O23   O     O_R   0.797660 0.564870 0.097950 -0.495731
C53   C     C_R   0.710202 0.543501 0.132551 0.563676
O24   O     O_R   0.595880 0.584250 0.104270 -0.532175
O25   O     O_R   0.638830 0.325670 0.099150 -0.535857
C54   C     C_R   0.703073 0.207702 0.124006 0.524876
Cr4   Cr    Cr6+3 0.926180 0.151990 0.028120 1.018884
Cr5   Cr    Cr6+3 0.921330 0.451820 0.027470 1.014121
Cr6   Cr    Cr6+3 0.626260 0.446870 0.028710 1.006425
O26   O     O_3   0.824590 0.350230 0.028100 -0.271694
N1    N     N_R   0.209816 0.580009 0.340086 0.061215
O27   O     O_R   0.113898 0.661258 0.381381 -0.368768
O28   O     O_R   0.328418 0.568189 0.345111 -0.348357

loop_
_geom_bond_atom_site_label_1
_geom_bond_atom_site_label_2
_geom_bond_distance
_ccdc_geom_bond_type
O6    C3    1.283258 A    
C23   H3    1.082045 S    
C50   O18   1.262973 A    
O11   Cr3   2.056251 S    
O19   Cr6   1.949809 S    
C11   C13   1.201297 T    
C45   C46   1.383490 A    
O23   C53   1.330996 A    
C32   C33   1.400735 A    
N1    O28   1.299812 A    
C34   H8    1.082082 S    
O4    Cr2   1.929472 S    
C31   C37   1.410983 A    
C30   C31   1.399557 A    
O8    Cr1   1.918404 S    
C52   O22   1.282477 A    
C36   N1    1.430764 S    
C11   C49   1.426483 S    
C8    C10   1.200138 T    
O4    C2    1.270047 A    
C5    O11   1.268339 A    
C41   C48   1.429309 A    
C24   C25   1.381083 A    
C21   C28   1.418036 A    
C44   H13   1.082677 S    
O22   Cr5   2.038002 S    
C40   C41   1.419230 A    
C24   H2    1.075061 S    
C15   C17   1.203484 T    
C42   C43   1.379286 A    
O20   Cr4   2.037490 S    
C39   C43   1.386781 A    
O24   Cr6   2.067374 S    
C39   C54   1.473132 S    
C22   C28   1.400677 A    
C36   C37   1.391037 A    
Cr5   O26   1.988838 S    
C7    C50   1.424444 S    
Cr3   O13   1.987609 S    
N1    O27   1.301118 A    
O6    Cr3   1.935492 S    
C35   H10   1.070498 S    
O1    Cr1   2.036344 S    
C46   C47   1.394907 A    
C39   C40   1.414294 A    
O10   Cr2   1.948527 S    
C19   C23   1.393145 A    
Cr1   O13   1.996901 S    
O1    C3    1.276332 A    
C8    C9    1.403423 S    
C22   C23   1.387865 A    
C30   C34   1.409515 A    
O17   C50   1.268136 A    
C47   H17   1.071861 S    
C1    C18   1.430327 S    
C35   C36   1.397541 A    
O25   Cr6   1.929097 S    
Cr4   O26   1.996012 S    
O12   Cr3   1.923275 S    
C16   C18   1.203551 T    
H1    C22   1.082670 S    
C26   C27   1.391560 A    
C21   C27   1.414197 A    
C20   C21   1.387864 A    
C19   C53   1.461356 S    
O15   C49   1.279955 A    
O7    Cr1   2.042273 S    
C40   C44   1.414505 A    
C15   C51   1.430081 S    
C53   O24   1.276136 A    
O12   C6    1.314815 A    
C45   H15   1.082701 S    
C33   H9    1.082851 S    
C29   C52   1.473544 S    
C25   H4    1.081905 S    
C49   O16   1.275144 A    
C3    C14   1.426371 S    
Cr2   O13   1.964460 S    
C37   H11   1.083355 S    
O15   Cr4   1.920075 S    
C4    C48   1.479519 S    
C42   C48   1.401203 A    
C25   C26   1.366924 A    
C5    C28   1.448049 S    
C1    O3    1.266786 A    
O16   Cr5   2.045342 S    
C29   C30   1.409508 A    
O21   Cr4   1.931082 S    
C27   H6    1.060150 S    
C12   C13   1.405262 S    
O9    Cr2   2.044561 S    
O2    Cr1   1.927490 S    
O14   Cr4   2.052672 S    
C26   H5    1.072178 S    
C44   C45   1.386088 A    
O18   Cr6   2.047522 S    
O8    C4    1.311766 A    
C6    C38   1.485785 S    
C2    O5    1.264638 A    
C31   C38   1.421160 A    
H12   C42   1.080337 S    
O14   C51   1.268200 A    
C16   C17   1.408864 S    
C12   C14   1.201263 T    
O2    C1    1.270394 A    
O5    Cr3   2.042966 S    
C34   C35   1.392456 A    
C2    C10   1.424453 S    
O7    C6    1.258070 A    
C32   C38   1.383830 A    
O21   C52   1.283173 A    
C41   C47   1.414412 A    
H7    C32   1.079963 S    
C7    C9    1.200136 T    
C20   C24   1.430809 A    
Cr6   O26   1.963983 S    
O3    Cr2   2.065930 S    
O23   Cr5   1.930235 S    
C4    O9    1.291913 A    
C19   C20   1.433620 A    
O25   C54   1.287206 A    
O10   C5    1.297229 A    
C46   H16   1.075542 S    
O20   C54   1.262315 A    
O19   C51   1.276930 A    
O17   Cr5   1.922618 S    
C43   H14   1.062530 S    
C29   C33   1.415846 A    
