data_mof_unit_25023.cif
_audit_creation_date              2012-10-26T19:07:32-0400
_audit_creation_method            fapswitch 2.2
_symmetry_space_group_name_H-M    P1
_symmetry_Int_Tables_number       1
_space_group_crystal_system       triclinic
_cell_length_a                    15.04552
_cell_length_b                    13.713817
_cell_length_c                    10.656002
_cell_angle_alpha                 90.542761
_cell_angle_beta                  89.978827
_cell_angle_gamma                 89.77598
_cell_volume                      2198.55332431

loop_
_atom_site_label
_atom_site_type_symbol
_atom_type_description
_atom_site_fract_x
_atom_site_fract_y
_atom_site_fract_z
_atom_type_partial_charge
C1    C     C_R   0.328907 0.500254 0.502790 0.594306
C2    C     C_R   0.956696 0.390043 0.317783 0.014305
C3    C     C_R   0.448796 0.793843 0.584373 0.119707
C4    C     C_R   0.551204 0.206157 0.415627 0.119707
C5    C     C_R   0.551084 0.792163 0.415461 0.103609
C6    C     C_R   0.448916 0.207837 0.584539 0.103609
C7    C     C_R   0.552465 0.895392 0.412491 -0.022665
C8    C     C_R   0.447535 0.104608 0.587509 -0.022665
C9    C     C_R   0.447379 0.897127 0.587336 -0.020249
C10   C     C_R   0.552621 0.102873 0.412664 -0.020249
C11   C     C_R   0.499978 0.948190 0.499978 -0.033146
C12   C     C_R   0.671093 0.499746 0.497210 0.594307
C13   C     C_R   0.500022 0.051810 0.500022 -0.033146
C14   C     C_R   0.604673 0.946734 0.324850 0.261382
C15   C     C_R   0.395327 0.053266 0.675150 0.261382
C16   C     C_R   0.395091 0.950220 0.674884 0.270674
C17   C     C_R   0.604909 0.049780 0.325116 0.270674
C18   C     C_R   0.499818 0.499394 0.259507 0.623459
C19   C     C_R   0.500182 0.500606 0.740493 0.623459
C20   C     C_3   0.427657 0.546517 0.043007 0.195891
C21   C     C_3   0.572343 0.453482 0.956993 0.195891
C22   C     C_3   0.500898 0.593002 0.962414 0.214899
C23   C     C_R   0.953148 0.499167 0.499652 -0.009112
C24   C     C_3   0.499102 0.406998 0.037586 0.214899
C25   C     C_3   0.427013 0.455706 0.956587 0.195089
C26   C     C_3   0.572986 0.544294 0.043413 0.195089
C27   C     C_3   0.500244 0.502012 0.876577 -0.077425
C28   C     C_3   0.499756 0.497988 0.123423 -0.077425
C29   C     C_R   0.814239 0.442595 0.406049 0.231898
C30   C     C_R   0.185761 0.557405 0.593951 0.231898
C31   C     C_R   0.767505 0.498983 0.494906 0.032204
C32   C     C_R   0.232494 0.501017 0.505093 0.032204
C33   C     C_R   0.812180 0.555151 0.584150 -0.125308
C34   C     C_R   0.046851 0.500833 0.500348 -0.009112
C35   C     C_R   0.187820 0.444849 0.415850 -0.125308
C36   C     C_R   0.904933 0.553658 0.590859 0.015060
C37   C     C_R   0.095067 0.446342 0.409141 0.015060
C38   C     C_R   0.907721 0.443151 0.407502 -0.005237
C39   C     C_R   0.092279 0.556848 0.592498 -0.005236
C40   C     C_R   0.950979 0.607014 0.684642 0.260155
C41   C     C_R   0.049021 0.392986 0.315358 0.260155
C42   C     C_R   0.043304 0.609957 0.682217 0.014305
Cl1   Cl    Cl    0.329925 0.397536 0.896588 -0.383614
Cl2   Cl    Cl    0.329716 0.117086 0.787062 -0.367298
Cl3   Cl    Cl    0.328450 0.888685 0.785630 -0.338960
Cl4   Cl    Cl    0.671550 0.111315 0.214370 -0.338960
Cl5   Cl    Cl    0.670075 0.602463 0.103412 -0.383614
Cl6   Cl    Cl    0.331233 0.607373 0.102123 -0.388807
Cl7   Cl    Cl    0.668767 0.392627 0.897876 -0.388807
Cl8   Cl    Cl    0.502517 0.717454 0.915557 -0.358439
Cl9   Cl    Cl    0.497483 0.282545 0.084443 -0.358439
Cl10  Cl    Cl    0.754794 0.377165 0.288707 -0.466898
Cl11  Cl    Cl    0.245206 0.622834 0.711293 -0.466898
Cl12  Cl    Cl    0.670284 0.882914 0.212938 -0.367298
Cu1   Cu    Cu3+1 0.500000 0.597420 0.500000 1.098273
Cu2   Cu    Cu3+1 0.500000 0.402580 0.500000 1.098273
H1    H     H_    0.773015 0.599545 0.648109 0.159312
H2    H     H_    0.143063 0.381132 0.192093 0.360362
H3    H     H_    0.226985 0.400455 0.351891 0.159312
H4    H     H_    0.076022 0.652812 0.754194 0.232376
H5    H     H_    0.923978 0.347188 0.245806 0.232376
H6    H     H_    0.409283 0.752230 0.649187 0.226694
H7    H     H_    0.590717 0.247769 0.350813 0.226694
H8    H     H_    0.590653 0.749259 0.350635 0.206650
H9    H     H_    0.409347 0.250741 0.649365 0.206650
H10   H     H_    0.856937 0.618868 0.807906 0.360362
N1    N     N_R   0.500000 0.743810 0.500000 -0.272343
N2    N     N_R   0.500000 0.256190 0.500000 -0.272343
O1    O     O_R   0.370260 0.582280 0.500030 -0.467786
O2    O     O_3   0.091144 0.342698 0.219495 -0.615931
O3    O     O_R   0.629740 0.417720 0.499970 -0.467786
O4    O     O_R   0.629740 0.582280 0.499970 -0.512447
O5    O     O_R   0.370260 0.417720 0.500030 -0.512447
O6    O     O_R   0.499980 0.582260 0.316850 -0.476231
O7    O     O_R   0.500020 0.417740 0.683150 -0.476231
O8    O     O_R   0.500020 0.582260 0.683150 -0.474413
O9    O     O_R   0.499980 0.417740 0.316850 -0.474413
O10   O     O_3   0.908856 0.657302 0.780504 -0.615931

loop_
_geom_bond_atom_site_label_1
_geom_bond_atom_site_label_2
_ccdc_geom_bond_type
Cu1   Cu2   S    
C8    C13   A    
C34   C37   A    
C5    N1    A    
C25   Cl1   S    
C21   Cl7   S    
C7    C11   A    
C4    H7    S    
C19   O8    A    
C35   C37   A    
C9    C16   A    
C15   Cl2   S    
C20   C25   S    
C10   C17   A    
C15   C16   A    
C33   C36   A    
C35   H3    S    
Cu1   O6    S    
C6    H9    S    
C29   C38   A    
C31   C33   A    
C19   C27   S    
Cu1   O4    S    
C2    H5    S    
C22   Cl8   S    
Cu2   O3    S    
C24   Cl9   S    
C40   C42   A    
C21   C27   S    
C18   O6    A    
Cu2   O7    S    
C14   C17   A    
C21   C26   S    
C39   C42   A    
C7    C14   A    
H10   O10   S    
C30   Cl11  S    
C34   C39   A    
C32   C35   A    
C36   C40   A    
C18   C28   S    
C17   Cl4   S    
C42   H4    S    
C5    C7    A    
H2    O2    S    
C6    C8    A    
C20   C28   S    
Cu2   N2    S    
C1    C32   S    
C1    O1    A    
Cu2   O9    S    
C5    H8    S    
C3    C9    A    
C2    C38   A    
C23   C34   A    
C20   Cl6   S    
C24   C25   S    
C9    C11   A    
Cu1   O1    S    
C26   Cl5   S    
Cu1   O8    S    
C14   Cl12  S    
C12   O3    A    
C20   C22   S    
C8    C15   A    
C22   C27   S    
C12   C31   S    
C40   O10   S    
C4    C10   A    
C4    N2    A    
C3    H6    S    
C33   H1    S    
Cu2   O5    S    
C3    N1    A    
C24   C28   S    
C10   C13   A    
C16   Cl3   S    
Cu1   N1    S    
C25   C27   S    
C23   C38   A    
C26   C28   S    
C1    O5    A    
C19   O7    A    
C29   C31   A    
C30   C32   A    
C11   C13   A    
C18   O9    A    
C6    N2    A    
C30   C39   A    
C37   C41   A    
C12   O4    A    
C23   C36   A    
C22   C26   S    
C21   C24   S    
C2    C41   A    
C41   O2    S    
C29   Cl10  S    
