data_mof_unit_20578.cif
_audit_creation_date              2012-12-10T17:44:31-0500
_audit_creation_method            fapswitch 2.2
_symmetry_space_group_name_H-M    P1
_symmetry_Int_Tables_number       1
_space_group_crystal_system       triclinic
_cell_length_a                    9.893534
_cell_length_b                    10.651448
_cell_length_c                    15.524333
_cell_angle_alpha                 91.1571
_cell_angle_beta                  67.236765
_cell_angle_gamma                 89.098145
_cell_volume                      1507.73911195

loop_
_atom_site_label
_atom_site_type_symbol
_atom_type_description
_atom_site_fract_x
_atom_site_fract_y
_atom_site_fract_z
_atom_type_partial_charge
C1    C     C_R   0.506361 0.738287 0.486306 0.930885
C2    C     C_R   0.423856 0.460850 0.907950 0.097290
C3    C     C_R   0.287582 0.405523 0.958387 0.169873
C4    C     C_R   0.532919 0.466961 0.945792 0.063909
C5    C     C_R   0.495597 0.436359 0.040381 0.077485
C6    C     C_R   0.358115 0.381471 0.089559 -0.189845
C7    C     C_R   0.257020 0.364892 0.048463 -0.187991
C8    C     C_R   0.679167 0.499260 0.891218 -0.221640
C9    C     C_R   0.781322 0.514656 0.931185 -0.216465
C10   C     C_R   0.740244 0.501540 0.026841 0.119754
C11   C     C_R   0.597210 0.462481 0.082260 0.102608
C12   C     C_R   0.407890 0.499745 0.676051 0.835617
C13   C     C_R   0.839765 0.530373 0.068018 -0.253317
C14   C     C_R   0.797659 0.527264 0.164623 0.281493
C15   C     C_R   0.556715 0.459718 0.178852 -0.282565
C16   C     C_R   0.255840 0.891827 0.468543 0.502627
C17   C     C_R   0.117112 0.951012 0.513371 -0.231783
C18   C     C_R   0.101062 0.057986 0.569577 -0.215468
C19   C     C_R   0.224764 0.114027 0.573548 -0.149671
C20   C     C_R   0.366066 0.060328 0.523424 0.018882
C21   C     C_R   0.377720 0.939072 0.485165 0.004814
C22   C     C_R   0.511135 0.870864 0.466529 -0.159380
C23   C     C_R   0.497113 0.259687 0.505936 0.896997
C24   C     C_R   0.641393 0.934920 0.450350 0.261250
C25   C     C_R   0.633464 0.062166 0.468406 -0.252430
C26   C     C_R   0.497128 0.124891 0.506403 -0.155946
C27   C     C_R   0.785139 0.666931 0.622250 -0.141234
C28   C     C_R   0.817933 0.745037 0.684085 -0.218656
C29   C     C_R   0.956695 0.740931 0.685790 -0.200544
C30   C     C_R   0.064028 0.659862 0.624774 -0.165446
C31   C     C_R   0.034632 0.579707 0.561218 0.145973
C32   C     C_R   0.890360 0.581315 0.560504 0.188598
C33   C     C_R   0.965033 0.422790 0.441866 -0.072983
C34   C     C_R   0.592685 0.499500 0.323575 0.924634
C35   C     C_R   0.108376 0.423128 0.441666 -0.090086
C36   C     C_R   0.351469 0.484347 0.776772 -0.047375
C37   C     C_R   0.652821 0.494687 0.220995 -0.134909
C38   C     C_R   0.184905 0.389886 0.917059 -0.210647
C39   C     C_R   0.218173 0.426763 0.825454 -0.217631
C40   C     C_R   0.447012 0.509137 0.820804 -0.247699
H1    H     H_    0.153874 0.321147 0.087770 0.165844
H2    H     H_    0.949122 0.560030 0.025293 0.177781
H3    H     H_    0.021561 0.914058 0.505041 0.189808
H4    H     H_    0.993547 0.101038 0.606381 0.164658
H5    H     H_    0.208982 0.199254 0.615815 0.161039
H6    H     H_    0.734809 0.112117 0.451139 0.192945
H7    H     H_    0.940905 0.359764 0.394456 0.153377
H8    H     H_    0.676233 0.677224 0.625551 0.200397
H9    H     H_    0.734855 0.809202 0.731020 0.158903
H10   H     H_    0.446651 0.436958 0.223575 0.174157
H11   H     H_    0.981963 0.801916 0.733896 0.160333
H12   H     H_    0.168902 0.662906 0.628841 0.203624
H13   H     H_    0.192188 0.360264 0.394066 0.148493
H14   H     H_    0.891599 0.541232 0.887436 0.152371
H15   H     H_    0.081680 0.345095 0.954268 0.148718
H16   H     H_    0.142961 0.406368 0.791881 0.152948
H17   H     H_    0.541894 0.563857 0.784179 0.145012
H18   H     H_    0.327324 0.345775 0.158869 0.147730
H19   H     H_    0.719171 0.510027 0.816602 0.158240
N1    N     N_R   0.856800 0.501200 0.500850 -0.107682
N2    N     N_R   0.142390 0.501280 0.500880 -0.116096
O1    O     O_R   0.385310 0.683220 0.500000 -0.599737
O2    O     O_R   0.614640 0.683250 0.500010 -0.600835
O3    O     O_R   0.319840 0.499980 0.632240 -0.648157
O4    O     O_R   0.549160 0.500000 0.632250 -0.637301
O5    O     O_R   0.385360 0.316750 0.499990 -0.622578
O6    O     O_R   0.614690 0.316780 0.500000 -0.623175
O7    O     O_R   0.450840 0.500000 0.367750 -0.599538
O8    O     O_R   0.680160 0.500020 0.367760 -0.562423
Zn1   Zn    Zn3+2 0.346880 0.499980 0.499990 0.952060
Zn2   Zn    Zn3+2 0.653120 0.500020 0.500010 0.980903
Br1   Br    Br    0.834149 0.857464 0.395612 -0.490648
O9    O     O_3   0.276926 0.796468 0.402497 -0.725429
H20   H     H_    0.181346 0.776098 0.399463 0.353486
Br2   Br    Br    0.941574 0.575970 0.212984 -0.468204

loop_
_geom_bond_atom_site_label_1
_geom_bond_atom_site_label_2
_ccdc_geom_bond_type
N2    Zn1   S    
C27   H8    S    
C16   C21   A    
C35   H13   S    
C34   C37   S    
O9    H20   S    
C31   N2    A    
C19   C20   A    
C4    C8    A    
C1    O1    A    
C23   O5    A    
C28   C29   A    
C5    C11   A    
C3    C7    A    
C8    H19   S    
C5    C6    A    
C12   O3    A    
C23   C26   S    
O1    Zn1   S    
C18   C19   A    
C15   H10   S    
C23   O6    A    
O8    Zn2   S    
C6    H18   S    
C15   C37   A    
C11   C15   A    
C38   H15   S    
C39   H16   S    
C3    C38   A    
C8    C9    A    
O3    Zn1   S    
C12   C36   S    
C9    C10   A    
C1    C22   S    
C21   C22   A    
C1    O2    A    
C13   H2    S    
C38   C39   A    
C16   O9    S    
C36   C40   A    
C24   C25   A    
C34   O7    A    
C16   C17   A    
N1    Zn2   S    
C25   C26   A    
O4    Zn2   S    
C2    C4    A    
C17   H3    S    
C29   C30   A    
C18   H4    S    
C28   H9    S    
C31   C32   A    
C30   C31   A    
C17   C18   A    
C35   N2    A    
C34   O8    A    
O2    Zn2   S    
C33   N1    A    
C33   H7    S    
C22   C24   A    
C32   N1    A    
C24   Br1   S    
C29   H11   S    
C30   H12   S    
C40   H17   S    
C27   C32   A    
C36   C39   A    
C4    C5    A    
C10   C13   A    
C19   H5    S    
C6    C7    A    
C12   O4    A    
C14   Br2   S    
C2    C3    A    
C14   C37   A    
O5    Zn1   S    
C20   C26   A    
C33   C35   A    
O6    Zn2   S    
C7    H1    S    
C10   C11   A    
C2    C40   A    
C20   C21   A    
O7    Zn1   S    
C27   C28   A    
C9    H14   S    
C13   C14   A    
C25   H6    S    
