data_mof_unit_29846.cif
_audit_creation_date              2012-12-10T17:33:45-0500
_audit_creation_method            fapswitch 2.2
_symmetry_space_group_name_H-M    P1
_symmetry_Int_Tables_number       1
_space_group_crystal_system       triclinic
_cell_length_a                    11.689404
_cell_length_b                    12.326731
_cell_length_c                    13.125494
_cell_angle_alpha                 116.887805
_cell_angle_beta                  77.890605
_cell_angle_gamma                 101.152791
_cell_volume                      1638.7211171

loop_
_atom_site_label
_atom_site_type_symbol
_atom_type_description
_atom_site_fract_x
_atom_site_fract_y
_atom_site_fract_z
_atom_type_partial_charge
C1    C     C_R   0.511473 0.854609 0.286057 0.776267
C2    C     C_R   0.453814 0.228741 0.835430 -0.122581
C3    C     C_R   0.595059 0.813538 0.085449 -0.244320
C4    C     C_R   0.609159 0.739070 0.968265 -0.163562
C5    C     C_R   0.555357 0.618068 0.923807 0.175936
C6    C     C_R   0.487997 0.569580 0.002293 0.048645
C7    C     C_R   0.457752 0.653664 0.118705 -0.016301
C8    C     C_R   0.448851 0.442884 0.972135 -0.051731
C9    C     C_R   0.359974 0.406607 0.047265 -0.056930
C10   C     C_R   0.312570 0.497379 0.152206 0.472658
C11   C     C_R   0.364356 0.617949 0.188342 -0.294239
C12   C     C_R   0.715739 0.999589 0.499772 0.815941
C13   C     C_R   0.501540 0.350646 0.873187 -0.236253
C14   C     C_R   0.365285 0.193149 0.907303 -0.294125
C15   C     C_R   0.519034 0.772996 0.161765 -0.074098
C16   C     C_R   0.686653 0.345093 0.327738 -0.310249
C17   C     C_R   0.343981 0.761741 0.647600 -0.005778
C18   C     C_R   0.309362 0.666320 0.680830 0.451381
C19   C     C_R   0.364247 0.558765 0.619854 -0.306826
C20   C     C_R   0.459882 0.549971 0.531862 -0.059436
C21   C     C_R   0.493873 0.651914 0.503744 0.270968
C22   C     C_R   0.524186 0.445107 0.472175 -0.000236
C23   C     C_R   0.482853 0.145442 0.713871 0.822985
C24   C     C_R   0.620487 0.444699 0.385949 0.167113
C25   C     C_R   0.651275 0.544217 0.359038 -0.283708
C26   C     C_R   0.589742 0.645595 0.416891 -0.145168
C27   C     C_R   0.499138 0.340756 0.495412 0.010290
C28   C     C_R   0.658262 0.246308 0.355613 0.071648
C29   C     C_R   0.284276 0.000267 0.500028 0.813793
C30   C     C_1   0.837417 0.999100 0.499674 -0.182660
C31   C     C_1   0.940039 0.999304 0.499558 0.000849
C32   C     C_1   0.060027 0.999934 0.499524 -0.000172
C33   C     C_1   0.162634 0.000374 0.499662 -0.182955
C34   C     C_R   0.321756 0.280248 0.015456 0.510851
Cu1   Cu    Cu3+1 0.526510 0.098270 0.475420 0.932006
Cu2   Cu    Cu3+1 0.473490 0.901730 0.524580 0.930146
H1    H     H_    0.327493 0.098372 0.878780 0.166219
H2    H     H_    0.724857 0.544462 0.293178 0.148075
H3    H     H_    0.760358 0.344068 0.261681 0.140725
H4    H     H_    0.427724 0.332806 0.559281 0.128726
H5    H     H_    0.299265 0.843355 0.692063 0.149869
H6    H     H_    0.331257 0.484702 0.644182 0.151114
H7    H     H_    0.621706 0.717623 0.391141 0.201132
H8    H     H_    0.579739 0.371569 0.822627 0.184731
H9    H     H_    0.642039 0.904840 0.116151 0.160532
H10   H     H_    0.661128 0.777497 0.911171 0.153676
H11   H     H_    0.327120 0.683852 0.270960 0.187235
H12   H     H_    0.709070 0.169084 0.311247 0.129195
N1    N     N_R   0.566700 0.246290 0.438210 -0.183243
N2    N     N_R   0.434010 0.754320 0.561170 -0.236041
O1    O     O_R   0.533340 0.972510 0.318140 -0.582451
O2    O     O_R   0.488570 0.806530 0.359650 -0.594639
O3    O     O_R   0.685190 0.083000 0.479260 -0.571586
O4    O     O_R   0.640410 0.917020 0.520770 -0.590693
O5    O     O_R   0.511430 0.193470 0.640350 -0.581095
O6    O     O_R   0.466660 0.027490 0.681860 -0.585820
O7    O     O_R   0.359590 0.082980 0.479230 -0.576230
O8    O     O_R   0.314810 0.917000 0.520740 -0.575562
O9    O     O_3   0.216663 0.676928 0.768574 -0.570523
C35   C     C_3   0.259189 0.681895 0.863823 -0.327877
H13   H     H_    0.335425 0.753682 0.889641 0.153002
H14   H     H_    0.283196 0.591415 0.846091 0.161240
H15   H     H_    0.187983 0.706115 0.938416 0.194589
O10   O     O_3   0.223103 0.467904 0.226075 -0.535276
C36   C     C_3   0.116543 0.496562 0.215108 -0.251343
H16   H     H_    0.096927 0.446532 0.124607 0.156979
H17   H     H_    0.117695 0.596901 0.245601 0.133255
H18   H     H_    0.043840 0.467308 0.269991 0.190230
O11   O     O_3   0.235142 0.241611 0.085292 -0.550878
C37   C     C_3   0.289270 0.195999 0.142191 -0.231578
H19   H     H_    0.220669 0.170990 0.202850 0.189781
H20   H     H_    0.355453 0.266581 0.193896 0.169380
H21   H     H_    0.330700 0.111879 0.080077 0.133550
C38   C     C_3   0.556794 0.556684 0.793886 -0.455443
C39   C     C_3   0.680859 0.529752 0.728954 -0.780473
H22   H     H_    0.735410 0.615640 0.733012 0.244517
H23   H     H_    0.725878 0.487331 0.765996 0.246351
H24   H     H_    0.675973 0.466821 0.636931 0.254638
H25   H     H_    0.492665 0.473695 0.764606 0.206899
H26   H     H_    0.526611 0.620089 0.768722 0.204954

loop_
_geom_bond_atom_site_label_1
_geom_bond_atom_site_label_2
_ccdc_geom_bond_type
C16   C28   A    
C21   C26   A    
C8    C13   A    
Cu1   O3    S    
C11   H11   S    
C19   C20   A    
Cu2   N2    S    
C23   O6    A    
C4    H10   S    
C7    C11   A    
C35   H15   S    
Cu2   O8    S    
C5    C6    A    
C29   C33   S    
C35   H14   S    
C18   C19   A    
C5    C38   S    
C2    C13   A    
Cu1   Cu2   S    
C8    C9    A    
C36   H17   S    
Cu1   N1    S    
C37   H19   S    
C1    C15   S    
C9    C10   A    
C12   O3    A    
Cu2   O2    S    
C19   H6    S    
C7    C15   A    
O9    C35   S    
C16   C24   A    
C38   H26   S    
C21   N2    A    
C1    O2    A    
C26   H7    S    
C38   C39   S    
Cu1   O5    S    
C24   C25   A    
C6    C8    A    
C25   C26   A    
C3    H9    S    
C35   H13   S    
C39   H22   S    
Cu2   O6    S    
C25   H2    S    
C1    O1    A    
C28   N1    A    
C31   C32   S    
C27   H4    S    
C36   H18   S    
C37   H21   S    
C17   C18   A    
C29   O8    A    
C39   H23   S    
C34   O11   S    
C20   C22   A    
C38   H25   S    
Cu1   O1    S    
C9    C34   A    
C22   C24   A    
C3    C4    A    
C3    C15   A    
C28   H12   S    
C12   C30   S    
C10   O10   S    
C29   O7    A    
C4    C5    A    
C17   N2    A    
C14   C34   A    
C23   O5    A    
C6    C7    A    
C22   C27   A    
Cu1   O7    S    
O10   C36   S    
C32   C33   T    
C14   H1    S    
C30   C31   T    
O11   C37   S    
C2    C14   A    
C39   H24   S    
C17   H5    S    
Cu2   O4    S    
C10   C11   A    
C16   H3    S    
C18   O9    S    
C20   C21   A    
C36   H16   S    
C2    C23   S    
C37   H20   S    
C13   H8    S    
C12   O4    A    
C27   N1    A    
