data_mof_unit_36900.cif
_audit_creation_date              2012-12-11T15:41:30-0500
_audit_creation_method            fapswitch 2.2
_symmetry_space_group_name_H-M    P1
_symmetry_Int_Tables_number       1
_space_group_crystal_system       triclinic
_cell_length_a                    14.814237
_cell_length_b                    14.812878
_cell_length_c                    14.88292
_cell_angle_alpha                 109.166449
_cell_angle_beta                  109.824894
_cell_angle_gamma                 109.188585
_cell_volume                      2521.25949082

loop_
_atom_site_label
_atom_site_type_symbol
_atom_type_description
_atom_site_fract_x
_atom_site_fract_y
_atom_site_fract_z
_atom_type_partial_charge
C1    C     C_R   0.194533 0.995471 0.903995 -0.122669
C2    C     C_R   0.747119 0.931916 0.024968 -0.117551
C3    C     C_R   0.868868 0.301476 0.302208 0.054229
C4    C     C_R   0.226013 0.673889 0.674708 0.040573
C5    C     C_R   0.499623 0.051231 0.325585 0.041094
C6    C     C_R   0.499613 0.066848 0.697893 0.051524
C7    C     C_R   0.497056 0.325259 0.052548 0.053789
C8    C     C_R   0.503798 0.702384 0.075146 0.070946
C9    C     C_R   0.089167 0.250779 0.938715 -0.022401
C10   C     C_R   0.818096 0.915774 0.414158 -0.028117
C11   C     C_R   0.191716 0.321347 0.956605 -0.232652
C12   C     C_R   0.717390 0.816816 0.339641 -0.213097
C13   C     C_R   0.291095 0.347420 0.042769 0.089220
C14   C     C_R   0.710435 0.729330 0.257232 0.100283
C15   C     C_R   0.286783 0.297071 0.107558 -0.132510
C16   C     C_R   0.805708 0.740470 0.251131 -0.163834
C17   C     C_R   0.185052 0.224421 0.088342 -0.104638
C18   C     C_R   0.905943 0.838469 0.324913 -0.130406
C19   C     C_R   0.086830 0.202977 0.005954 -0.169999
C20   C     C_R   0.912294 0.925806 0.405766 -0.163714
C21   C     C_R   0.404112 0.532934 0.076568 -0.228287
C22   C     C_R   0.598129 0.527702 0.168256 -0.229661
C23   C     C_R   0.804494 0.208236 0.300300 -0.146544
C24   C     C_R   0.251639 0.777337 0.685396 -0.119562
C25   C     C_R   0.505088 0.623486 0.115395 0.050998
C26   C     C_R   0.496710 0.429258 0.102626 0.051461
C27   C     C_R   0.603345 0.626413 0.178219 0.040981
C28   C     C_R   0.398410 0.435554 0.072292 0.047378
C29   C     C_R   0.037509 0.476400 0.377812 -0.164497
C30   C     C_R   0.128571 0.470323 0.571859 -0.156358
C31   C     C_R   0.129079 0.569913 0.471413 -0.161412
C32   C     C_R   0.036972 0.376785 0.478335 -0.163997
C33   C     C_R   0.166859 0.570240 0.571611 0.133569
C34   C     C_R   0.984469 0.382910 0.384215 0.129150
C35   C     C_R   0.599358 0.159764 0.622399 -0.166888
C36   C     C_R   0.399339 0.058157 0.428821 -0.171326
C37   C     C_R   0.599242 0.157933 0.528802 -0.152360
C38   C     C_R   0.399318 0.060142 0.522406 -0.166548
C39   C     C_R   0.499360 0.095811 0.428765 0.149446
C40   C     C_R   0.499403 0.100851 0.616170 0.145119
C41   C     C_R   0.963560 0.839082 0.941807 -0.172056
C42   C     C_R   0.861912 0.929308 0.833147 -0.171590
C43   C     C_R   0.870596 0.839278 0.942578 -0.159723
C44   C     C_R   0.955723 0.929925 0.832897 -0.162166
C45   C     C_R   0.407411 0.973757 0.222365 -0.128723
C46   C     C_R   0.591342 0.095910 0.791331 -0.132883
C47   C     C_R   0.828282 0.897029 0.900180 0.128134
C48   C     C_R   0.013503 0.895505 0.897473 0.134397
C49   C     C_R   0.590495 0.314376 0.067396 -0.120155
C50   C     C_R   0.410847 0.702404 0.009591 -0.130889
C51   C     C_R   0.592161 0.065945 0.314684 -0.093481
C52   C     C_R   0.408179 0.004329 0.699693 -0.137044
C53   C     C_R   0.406179 0.222105 0.972191 -0.132004
C54   C     C_R   0.593358 0.792928 0.097590 -0.149561
C55   C     C_R   0.804596 0.299925 0.208728 -0.137433
C56   C     C_R   0.251901 0.685131 0.778070 -0.121394
C57   C     C_R   0.195532 0.903923 0.995598 -0.147081
C58   C     C_R   0.746603 0.023456 0.932063 -0.134145
C59   C     C_R   0.130281 0.932407 0.932742 0.047069
C60   C     C_R   0.771289 0.944598 0.946100 0.032644
H1    H     H_    0.166185 0.019335 0.843312 0.093751
H2    H     H_    0.756882 0.878352 0.057213 0.095147
H3    H     H_    0.194584 0.358529 0.905230 0.164002
H4    H     H_    0.643827 0.807632 0.344525 0.168241
H5    H     H_    0.362079 0.316200 0.174675 0.118606
H6    H     H_    0.801935 0.674001 0.188170 0.109477
H7    H     H_    0.182297 0.186692 0.139236 0.122988
H8    H     H_    0.978930 0.846920 0.319245 0.113098
H9    H     H_    0.328856 0.536731 0.046837 0.124285
H10   H     H_    0.674223 0.527923 0.208599 0.124505
H11   H     H_    0.003164 0.482028 0.304507 0.108364
H12   H     H_    0.160833 0.465870 0.646229 0.123994
H13   H     H_    0.161799 0.643963 0.466661 0.109675
H14   H     H_    0.002171 0.303925 0.484345 0.135783
H15   H     H_    0.678282 0.198008 0.695418 0.121592
H16   H     H_    0.320567 0.016633 0.354619 0.106221
H17   H     H_    0.677989 0.195013 0.533355 0.110664
H18   H     H_    0.320486 0.019987 0.516667 0.105718
H19   H     H_    0.001457 0.804781 0.986192 0.107363
H20   H     H_    0.824535 0.965755 0.791461 0.166768
H21   H     H_    0.831987 0.174599 0.351493 0.100785
H22   H     H_    0.241539 0.799669 0.622061 0.094064
H23   H     H_    0.841119 0.805359 0.987594 0.109066
H24   H     H_    0.988035 0.967480 0.791488 0.124107
H25   H     H_    0.321671 0.941286 0.199954 0.093601
H26   H     H_    0.675740 0.156757 0.824685 0.118821
H27   H     H_    0.675877 0.377466 0.122102 0.094268
H28   H     H_    0.326557 0.652057 0.986851 0.091627
H29   H     H_    0.677829 0.118835 0.377890 0.102706
H30   H     H_    0.323444 0.980636 0.648376 0.086172
H31   H     H_    0.320126 0.198602 0.935621 0.120680
H32   H     H_    0.679119 0.827094 0.154186 0.118910
H33   H     H_    0.832131 0.351133 0.175487 0.087894
H34   H     H_    0.242557 0.622203 0.801122 0.100242
H35   H     H_    0.168718 0.842429 0.018676 0.089192
H36   H     H_    0.755323 0.054189 0.877509 0.154455
H37   H     H_    0.009260 0.149948 0.995708 0.153119
H38   H     H_    0.991007 0.000989 0.461950 0.147208
N1    N     N_R   0.293810 0.002730 0.945950 -0.041398
N2    N     N_R   0.706190 0.997270 0.054050 -0.040290
N3    N     N_R   0.706160 0.152130 0.208910 -0.041117
N4    N     N_R   0.293840 0.847870 0.791090 -0.040951
N5    N     N_R   0.443140 0.945920 0.152090 -0.040808
N6    N     N_R   0.556860 0.054080 0.847910 -0.041339
N7    N     N_R   0.556830 0.208940 0.002760 -0.042203
N8    N     N_R   0.443170 0.791060 0.997240 -0.040204
N9    N     N_R   0.556790 0.002750 0.208910 -0.043943
N10   N     N_R   0.443210 0.997250 0.791090 -0.038323
N11   N     N_R   0.443180 0.152110 0.945950 -0.043394
N12   N     N_R   0.556820 0.847890 0.054050 -0.041044
N13   N     N_R   0.706170 0.208950 0.152090 -0.038911
N14   N     N_R   0.293830 0.791050 0.847910 -0.040315
N15   N     N_R   0.293800 0.945910 0.002760 -0.038648
N16   N     N_R   0.706200 0.054090 0.997240 -0.040757
Ni1   Ni    Ni4+2 0.369690 0.999990 0.869700 0.212297
Ni2   Ni    Ni4+2 0.630310 0.000010 0.130300 0.216739
Ni3   Ni    Ni4+2 0.369670 0.869670 0.000000 0.212640
Ni4   Ni    Ni4+2 0.630330 0.130330 0.000000 0.217256
C61   C     C_2   0.985701 0.231054 0.852681 0.993157
O1    O     O_2   0.896256 0.172266 0.838706 -0.715427
O2    O     O_R   0.990219 0.281242 0.788213 -0.786519
H39   H     H_    0.914441 0.262872 0.733759 0.326249
C62   C     C_2   0.824567 0.007939 0.500344 0.958908
O3    O     O_2   0.910647 0.096035 0.561178 -0.651465
O4    O     O_R   0.732254 0.994285 0.512618 -0.808459
H40   H     H_    0.747721 0.062316 0.575489 0.328462

loop_
_geom_bond_atom_site_label_1
_geom_bond_atom_site_label_2
_ccdc_geom_bond_type
C38   C40   A    
C42   H20   S    
C8    C50   A    
C43   H23   S    
C49   H27   S    
N4    N14   A    
N2    Ni2   S    
C55   H33   S    
C1    N1    A    
C19   H37   S    
C62   O3    D    
C56   H34   S    
C35   H15   S    
C7    C26   S    
C21   C25   A    
N13   Ni4   S    
N10   Ni1   S    
C35   C37   A    
C11   H3    S    
C1    C59   A    
N1    Ni1   S    
N14   Ni3   S    
C4    C24   A    
C2    C60   A    
C31   H13   S    
C58   C60   A    
C15   H5    S    
C54   N12   A    
C24   H22   S    
C58   H36   S    
N4    Ni1   S    
C45   N5    A    
C47   C60   S    
C3    C23   A    
C9    C19   A    
C10   C20   A    
C53   H31   S    
C31   C33   A    
C13   C28   S    
C14   C27   S    
C36   H16   S    
C24   N4    A    
C50   H28   S    
C2    N2    A    
C4    C56   A    
C46   H26   S    
C8    C25   S    
C41   C43   A    
C6    C46   A    
N5    Ni3   S    
C42   C44   A    
N6    Ni4   S    
C61   O2    S    
C17   H7    S    
C6    C40   S    
N2    N16   A    
C7    C49   A    
C10   C62   S    
C8    C54   A    
C57   N15   A    
C38   H18   S    
C3    C34   S    
C5    C45   A    
C29   C34   A    
C21   H9    S    
C32   C34   A    
C45   H25   S    
C54   H32   S    
C30   H12   S    
C29   C31   A    
C20   H38   S    
C9    C11   A    
O2    H39   S    
N16   Ni4   S    
C10   C12   A    
N15   Ni3   S    
C16   C18   A    
C21   C28   A    
C12   C14   A    
C22   C27   A    
C13   C15   A    
N8    Ni3   S    
C57   H35   S    
O4    H40   S    
C9    C61   S    
C14   C16   A    
N7    Ni4   S    
C57   C59   A    
C16   H6    S    
C7    C53   A    
N12   Ni2   S    
N6    N10   A    
C48   C59   S    
C58   N16   A    
C41   H19   S    
N8    N12   A    
C53   N11   A    
C15   C17   A    
C52   H30   S    
N7    N11   A    
C4    C33   S    
C32   H14   S    
C23   H21   S    
C30   C33   A    
C55   N13   A    
C26   C28   A    
C36   C39   A    
C43   C47   A    
C44   H24   S    
C1    H1    S    
N1    N15   A    
C49   N7    A    
C61   O1    D    
C25   C27   A    
C3    C55   A    
C5    C39   S    
C35   C40   A    
C37   C39   A    
C51   H29   S    
C30   C32   A    
C11   C13   A    
C23   N3    A    
C46   N6    A    
C12   H4    S    
N3    N13   A    
C36   C38   A    
C17   C19   A    
C41   C48   A    
C56   N14   A    
C18   C20   A    
C42   C47   A    
N9    Ni2   S    
C62   O4    S    
N11   Ni1   S    
C2    H2    S    
C37   H17   S    
C52   N10   A    
C51   N9    A    
C22   C26   A    
C50   N8    A    
N3    Ni2   S    
C5    C51   A    
N5    N9    A    
C6    C52   A    
C18   H8    S    
C22   H10   S    
C44   C48   A    
C29   H11   S    
