data_mof_unit_45129.cif
_audit_creation_date              2012-12-10T17:00:03-0500
_audit_creation_method            fapswitch 2.2
_symmetry_space_group_name_H-M    P1
_symmetry_Int_Tables_number       1
_space_group_crystal_system       triclinic
_cell_length_a                    23.497517
_cell_length_b                    10.922698
_cell_length_c                    9.70387
_cell_angle_alpha                 90.262899
_cell_angle_beta                  90.403507
_cell_angle_gamma                 90.842476
_cell_volume                      2490.20078759

loop_
_atom_site_label
_atom_site_type_symbol
_atom_type_description
_atom_site_fract_x
_atom_site_fract_y
_atom_site_fract_z
_atom_type_partial_charge
C1    C     C_R   0.498933 0.265357 0.499822 0.866066
C2    C     C_R   0.969522 0.293124 0.422932 -0.161297
C3    C     C_R   0.028891 0.293844 0.422176 -0.165301
C4    C     C_R   0.059822 0.399610 0.461144 -0.018346
C5    C     C_R   0.030523 0.505432 0.501273 -0.017474
C6    C     C_R   0.061138 0.612035 0.540414 -0.036710
C7    C     C_R   0.031486 0.716912 0.580647 -0.170220
C8    C     C_R   0.972102 0.716075 0.581749 -0.157582
C9    C     C_R   0.119501 0.402570 0.460943 0.526002
C10   C     C_R   0.120808 0.610680 0.538347 0.582951
C11   C     C_R   0.239394 0.568650 0.392993 0.393323
C12   C     C_R   0.391124 0.501419 0.499572 0.846152
C13   C     C_R   0.299209 0.572503 0.395912 0.340450
C14   C     C_R   0.328769 0.506705 0.498664 -0.184285
C15   C     C_R   0.298277 0.445745 0.602042 -0.279119
C16   C     C_R   0.239106 0.446164 0.601483 -0.190544
C17   C     C_R   0.209546 0.507664 0.497939 0.224329
C18   C     C_R   0.761552 0.507528 0.627153 -0.100220
C19   C     C_R   0.702193 0.506526 0.626596 -0.210910
C20   C     C_R   0.671813 0.500958 0.501297 -0.040417
C21   C     C_R   0.701948 0.496319 0.376755 -0.210153
C22   C     C_R   0.761285 0.497088 0.377640 -0.101150
C23   C     C_R   0.500449 0.734674 0.500301 0.829036
C24   C     C_R   0.791277 0.502731 0.502743 0.355564
C25   C     C_2   0.497136 0.932402 0.387055 -0.174079
C26   C     C_2   0.502757 0.866866 0.502663 -0.311399
C27   C     C_2   0.499898 0.066442 0.386550 -0.134793
C28   C     C_2   0.495136 0.133307 0.501757 -0.305881
C29   C     C_2   0.462790 0.439967 0.920303 -0.086162
C30   C     C_2   0.465312 0.432405 0.074912 0.259710
C31   C     C_R   0.609094 0.500292 0.500389 0.801879
C32   C     C_R   0.881421 0.607488 0.542279 0.532848
C33   C     C_R   0.880186 0.399578 0.464209 0.533796
C34   C     C_R   0.939863 0.398143 0.462728 -0.016327
C35   C     C_R   0.970463 0.504633 0.502246 -0.015618
C36   C     C_R   0.941145 0.610338 0.542634 -0.015352
Cu1   Cu    Cu3+1 0.500010 0.500020 0.638630 0.950303
Cu2   Cu    Cu3+1 0.499990 0.499980 0.361370 0.979518
H1    H     H_    0.946990 0.210084 0.392202 0.191244
H2    H     H_    0.680177 0.510260 0.724152 0.159987
H3    H     H_    0.679758 0.491983 0.278631 0.160913
H4    H     H_    0.784048 0.493619 0.281090 0.142303
H5    H     H_    0.491531 0.886946 0.287977 0.167328
H6    H     H_    0.510609 0.908775 0.602341 0.154872
H7    H     H_    0.505453 0.110674 0.287427 0.186862
H8    H     H_    0.487136 0.092502 0.601263 0.148289
H9    H     H_    0.428893 0.389963 0.867243 0.174657
H10   H     H_    0.533503 0.540408 0.895292 0.188149
H11   H     H_    0.050424 0.211344 0.390907 0.190213
H12   H     H_    0.524555 0.564044 0.107161 0.169344
H13   H     H_    0.054036 0.799945 0.611325 0.189195
H14   H     H_    0.950574 0.798522 0.613203 0.190284
H15   H     H_    0.320290 0.395994 0.682172 0.184880
H16   H     H_    0.216017 0.398027 0.681319 0.173172
H17   H     H_    0.784520 0.511581 0.724242 0.142553
N1    N     N_R   0.852314 0.503238 0.503335 -0.470316
N2    N     N_R   0.148567 0.507058 0.498888 -0.439532
N3    N     N_2   0.499380 0.498660 0.846910 -0.295368
N4    N     N_2   0.499370 0.498630 0.153040 -0.297297
O1    O     O_R   0.500010 0.321960 0.617040 -0.577798
O2    O     O_2   0.850195 0.298065 0.427735 -0.530641
O3    O     O_2   0.148330 0.302237 0.422425 -0.546517
O4    O     O_2   0.150918 0.711680 0.576060 -0.536026
O5    O     O_R   0.499990 0.321920 0.382900 -0.550669
O6    O     O_R   0.417890 0.499980 0.617100 -0.588748
O7    O     O_R   0.417870 0.499940 0.382950 -0.515422
O8    O     O_R   0.500010 0.678080 0.617100 -0.572739
O9    O     O_R   0.499990 0.678040 0.382960 -0.586198
O10   O     O_R   0.582130 0.500060 0.617050 -0.581070
O11   O     O_R   0.582110 0.500020 0.382900 -0.580982
O12   O     O_2   0.852622 0.708279 0.579346 -0.531373
I1    I     I_    0.406246 0.302871 0.155809 -0.380486
O13   O     O_3   0.209767 0.632187 0.293450 -0.596630
C37   C     C_3   0.204618 0.558247 0.174221 0.064972
H18   H     H_    0.182783 0.469607 0.198121 0.158985
H19   H     H_    0.247313 0.539767 0.130105 0.187057
C38   C     C_3   0.169172 0.625666 0.066838 -0.315748
H20   H     H_    0.125842 0.641162 0.108144 0.228245
H21   H     H_    0.189377 0.716206 0.045394 0.238143
C39   C     C_3   0.164260 0.552988 0.932485 -0.890656
H22   H     H_    0.207085 0.540245 0.887411 0.261512
H23   H     H_    0.137649 0.603644 0.857592 0.275130
H24   H     H_    0.144050 0.462031 0.951028 0.254963
O14   O     O_3   0.327942 0.634850 0.292925 -0.589845
C40   C     C_3   0.350657 0.747002 0.344531 0.091002
H25   H     H_    0.390273 0.767182 0.286584 0.175564
H26   H     H_    0.363093 0.743965 0.455661 0.100954
C41   C     C_3   0.308892 0.851150 0.320254 -0.338274
H27   H     H_    0.295372 0.851397 0.210244 0.242694
H28   H     H_    0.270589 0.836706 0.384998 0.254843
C42   C     C_3   0.335962 0.975204 0.356547 -0.858360
H29   H     H_    0.350031 0.976952 0.466093 0.258003
H30   H     H_    0.304396 0.048558 0.340655 0.279260
H31   H     H_    0.373176 0.993921 0.289478 0.266535

loop_
_geom_bond_atom_site_label_1
_geom_bond_atom_site_label_2
_ccdc_geom_bond_type
Cu2   O11   S    
Cu1   O10   S    
O13   C37   S    
C10   O4    S    
C25   H5    S    
C3    H11   S    
C26   H6    S    
C7    C8    A    
C38   H20   S    
C13   O14   S    
C28   H8    S    
Cu1   Cu2   S    
C37   H19   S    
C29   H9    S    
C18   C24   A    
H12   N4    S    
C32   C36   A    
C34   C35   A    
C5    C6    A    
C40   C41   S    
C15   C16   A    
Cu1   O8    S    
C18   C19   A    
C8    C36   A    
C23   C26   S    
C23   O8    A    
C2    H1    S    
C31   O11   A    
Cu2   O7    S    
C16   C17   A    
C37   C38   S    
Cu1   O6    S    
C1    C28   S    
C8    H14   S    
Cu1   N3    S    
C2    C34   A    
C33   N1    A    
C38   H21   S    
C21   C22   A    
C39   H24   S    
C32   O12   S    
Cu2   O5    S    
C40   H26   S    
C37   H18   S    
C9    O3    S    
C10   N2    A    
O14   C40   S    
C39   H23   S    
C11   O13   S    
C1    O1    A    
C42   H29   S    
C39   H22   S    
C25   C26   D    
C40   H25   S    
C12   O7    A    
C35   C36   A    
C23   O9    A    
C29   C30   S    
C42   H30   S    
C41   C42   S    
C30   N4    D    
C20   C21   A    
C33   C34   A    
C41   H27   S    
C18   H17   S    
C21   H3    S    
Cu2   O9    S    
C22   C24   A    
C25   C27   S    
C3    C4    A    
C1    O5    A    
C15   H15   S    
C38   C39   S    
C11   C17   A    
C41   H28   S    
C4    C5    A    
C6    C10   A    
C30   I1    S    
H10   N3    S    
C6    C7    A    
C24   N1    S    
C12   O6    A    
C19   C20   A    
C2    C3    A    
C12   C14   S    
C7    H13   S    
C42   H31   S    
C11   C13   A    
C27   H7    S    
C22   H4    S    
C5    C35   A    
C9    N2    A    
C16   H16   S    
Cu1   O1    S    
C19   H2    S    
Cu2   N4    S    
C31   O10   A    
C29   N3    D    
C33   O2    S    
C27   C28   D    
C14   C15   A    
C4    C9    A    
C13   C14   A    
C32   N1    A    
C17   N2    S    
C20   C31   S    
