data_mof_unit_55549.cif
_audit_creation_date              2012-12-11T17:15:58-0500
_audit_creation_method            fapswitch 2.2
_symmetry_space_group_name_H-M    P1
_symmetry_Int_Tables_number       1
_space_group_crystal_system       triclinic
_cell_length_a                    14.553626
_cell_length_b                    7.448478
_cell_length_c                    13.833358
_cell_angle_alpha                 90.002896
_cell_angle_beta                  100.570397
_cell_angle_gamma                 89.999432
_cell_volume                      1474.12140386

loop_
_atom_site_label
_atom_site_type_symbol
_atom_type_description
_atom_site_fract_x
_atom_site_fract_y
_atom_site_fract_z
_atom_type_partial_charge
O1    O     O_R   0.398210 0.494340 0.401550 -0.540193
O2    O     O_R   0.601790 0.994340 0.598450 -0.540194
O3    O     O_R   0.586310 0.821730 0.403360 -0.507405
O4    O     O_R   0.413690 0.321730 0.596640 -0.507430
C1    C     C_R   0.619673 0.655013 0.387404 0.842515
C2    C     C_R   0.380328 0.155018 0.612600 0.842565
O5    O     O_R   0.397970 0.823900 0.389580 -0.526294
O6    O     O_R   0.602030 0.323900 0.610420 -0.526304
O7    O     O_R   0.412100 0.996500 0.584560 -0.554725
O8    O     O_R   0.587900 0.496500 0.415440 -0.554746
C3    C     C_R   0.366378 0.655154 0.362648 0.705870
C4    C     C_R   0.633622 0.155157 0.637352 0.705875
O9    O     O_3   0.504860 0.661550 0.563990 -0.401274
O10   O     O_3   0.495140 0.161550 0.436010 -0.401265
V1    V     V_3+5 0.499100 0.935510 0.488130 1.458750
V2    V     V_3+5 0.500900 0.435510 0.511870 1.458711
C5    C     C_1   0.715662 0.144623 0.716981 -0.122526
C6    C     C_1   0.284338 0.644619 0.283019 -0.122527
C7    C     C_1   0.784404 0.134051 0.782952 -0.121865
C8    C     C_1   0.215596 0.634054 0.217048 -0.121860
C9    C     C_3   0.283693 0.224009 0.860208 -0.045930
C10   C     C_3   0.716313 0.724003 0.139804 -0.045967
H1    H     H_    0.332159 0.141022 0.911529 0.192327
H2    H     H_    0.667849 0.641007 0.088482 0.192322
C11   C     C_3   0.340336 0.264622 0.777185 0.623537
C12   C     C_3   0.659674 0.764617 0.222831 0.623541
H3    H     H_    0.121063 0.328528 0.734963 0.186369
H4    H     H_    0.878916 0.828596 0.265064 0.186381
C13   C     C_3   0.140991 0.189950 0.716955 0.136157
C14   C     C_3   0.859011 0.690001 0.283060 0.136176
C15   C     C_3   0.235049 0.915047 0.804387 0.552112
C16   C     C_3   0.764966 0.415056 0.195622 0.552082
C17   C     C_3   0.192979 0.112504 0.819014 -0.274600
C18   C     C_3   0.807030 0.612519 0.180998 -0.274537
C19   C     C_3   0.306613 0.139313 0.682110 -0.331155
C20   C     C_3   0.693393 0.639298 0.317902 -0.331149
C21   C     C_3   0.201336 0.205096 0.632494 0.466612
C22   C     C_3   0.798663 0.705083 0.367526 0.466686
C23   C     C_3   0.297371 0.929782 0.716850 0.415956
C24   C     C_3   0.702646 0.429771 0.283161 0.415996
O11   O     O_R   0.912140 0.786650 0.084610 -0.534055
O12   O     O_R   0.087860 0.286650 0.915390 -0.534056
O13   O     O_R   0.102040 0.454810 0.110430 -0.520053
O14   O     O_R   0.897960 0.954810 0.889570 -0.520043
C25   C     C_R   0.133767 0.623471 0.137128 0.723326
C26   C     C_R   0.866233 0.123468 0.862872 0.723306
O15   O     O_R   0.913690 0.457060 0.096650 -0.495015
O16   O     O_R   0.086310 0.957060 0.903350 -0.495022
O17   O     O_R   0.898200 0.284560 0.901540 -0.545671
O18   O     O_R   0.101800 0.784560 0.098460 -0.545668
C27   C     C_R   0.880834 0.621497 0.111893 0.835703
C28   C     C_R   0.119172 0.121491 0.888114 0.835632
O19   O     O_3   0.995160 0.617270 0.936040 -0.369168
O20   O     O_3   0.004840 0.117270 0.063960 -0.369165
V3    V     V_3+5 0.000900 0.343280 0.011870 1.575348
V4    V     V_3+5 0.999100 0.843280 0.988130 1.575403
N1    N     N_2   0.265186 0.376957 0.919263 -0.484530
H5    H     H_    0.223766 0.479309 0.886715 0.342369
C29   C     C_3   0.331234 0.415667 0.008571 -0.485526
H6    H     H_    0.298147 0.503084 0.056812 0.168693
H7    H     H_    0.394222 0.482178 0.990591 0.251355
H8    H     H_    0.351567 0.290863 0.050947 0.187052
N2    N     N_2   0.734815 0.876948 0.080750 -0.484525
H9    H     H_    0.776242 0.979299 0.113293 0.342366
C30   C     C_3   0.668769 0.915640 0.991441 -0.485513
H10   H     H_    0.701857 0.003041 0.943198 0.168690
H11   H     H_    0.605782 0.982159 0.009418 0.251356
H12   H     H_    0.648435 0.790828 0.949070 0.187053
N3    N     N_2   0.245375 0.821966 0.634040 -0.444666
H13   H     H_    0.174528 0.836367 0.621431 0.339424
C31   C     C_3   0.275101 0.764842 0.544021 -0.301245
H14   H     H_    0.283337 0.878350 0.495581 0.215253
H15   H     H_    0.218515 0.690108 0.496996 0.146035
H16   H     H_    0.336361 0.675828 0.558619 0.199218
N4    N     N_2   0.754641 0.321951 0.365971 -0.444681
H17   H     H_    0.825496 0.336267 0.378591 0.339413
C32   C     C_3   0.724896 0.264860 0.455981 -0.301031
H18   H     H_    0.716658 0.378381 0.504417 0.215203
H19   H     H_    0.781474 0.190155 0.503016 0.145951
H20   H     H_    0.663643 0.175830 0.441378 0.199224
Cl1   Cl    Cl    0.029906 0.081946 0.676824 -0.621669
Cl2   Cl    Cl    0.970120 0.582079 0.323179 -0.621887
Cl3   Cl    Cl    0.150737 0.095049 0.516780 -0.681213
Cl4   Cl    Cl    0.849283 0.595033 0.483222 -0.681029
Cl5   Cl    Cl    0.463946 0.265158 0.823836 -0.719884
Cl6   Cl    Cl    0.536064 0.765183 0.176178 -0.719869
Cl7   Cl    Cl    0.329848 0.491734 0.748825 -0.633506
Cl8   Cl    Cl    0.670183 0.991726 0.251204 -0.633509
N5    N     N_2   0.197073 0.390464 0.598671 -0.481318
H21   H     H_    0.245781 0.414737 0.555020 0.271381
C33   C     C_3   0.105278 0.463235 0.555134 -0.233580
H22   H     H_    0.099871 0.473408 0.474530 0.236832
H23   H     H_    0.094762 0.596487 0.585329 0.234045
H24   H     H_    0.046287 0.379311 0.568839 0.257008
N6    N     N_2   0.802897 0.890420 0.401396 -0.481333
H25   H     H_    0.754233 0.914618 0.445114 0.271395
C34   C     C_3   0.894694 0.963360 0.444783 -0.233956
H26   H     H_    0.899961 0.974859 0.525319 0.236381
H27   H     H_    0.905367 0.096025 0.413959 0.234451
H28   H     H_    0.953678 0.878809 0.431646 0.257321
Cl9   Cl    Cl    0.143538 0.742632 0.777611 -0.586516
Cl10  Cl    Cl    0.856481 0.242667 0.222379 -0.586946
N7    N     N_2   0.294528 0.846601 0.894582 -0.554381
H29   H     H_    0.323346 0.723833 0.885591 0.344931
C35   C     C_3   0.268908 0.853237 0.990572 -0.528532
H30   H     H_    0.329643 0.810885 0.046704 0.219893
H31   H     H_    0.211319 0.758003 0.991650 0.227550
H32   H     H_    0.251418 0.990075 0.012054 0.180281
N8    N     N_2   0.705485 0.346592 0.105429 -0.554361
H33   H     H_    0.676669 0.223825 0.114422 0.344943
C36   C     C_3   0.731099 0.353213 0.009436 -0.528477
H34   H     H_    0.670361 0.310856 0.953307 0.219886
H35   H     H_    0.788686 0.257975 0.008353 0.227556
H36   H     H_    0.748589 0.490047 0.987954 0.180274
N9    N     N_2   0.391633 0.846421 0.745323 -0.446725
H37   H     H_    0.415213 0.766739 0.694699 0.337737
C37   C     C_3   0.465339 0.868446 0.830659 -0.458385
H38   H     H_    0.485641 0.734141 0.862403 0.228488
H39   H     H_    0.445870 0.950274 0.889811 0.238750
H40   H     H_    0.528035 0.926174 0.807122 0.210914
N10   N     N_2   0.608387 0.346402 0.254678 -0.446736
H41   H     H_    0.584801 0.266732 0.305300 0.337740
C38   C     C_3   0.534671 0.368469 0.169354 -0.458427
H42   H     H_    0.514345 0.234171 0.137603 0.228475
H43   H     H_    0.554146 0.450278 0.110201 0.238751
H44   H     H_    0.471988 0.426236 0.192906 0.210925

loop_
_geom_bond_atom_site_label_1
_geom_bond_atom_site_label_2
_ccdc_geom_bond_type
N2    C30   S    
C3    C6    S    
O4    V2    S    
H3    C13   S    
N6    H25   S    
O1    C3    A    
O2    C4    A    
C2    O7    A    
C34   H26   S    
C7    C26   S    
C38   H42   S    
C32   H18   S    
C17   C28   S    
O5    C3    A    
C24   N10   S    
C35   H31   S    
C26   O17   A    
C18   C27   S    
C15   Cl9   S    
C19   C21   S    
C37   H39   S    
C38   H43   S    
C9    C17   S    
N9    H37   S    
C1    C20   S    
C13   C17   S    
C11   Cl7   S    
C2    C19   S    
C14   C22   S    
N3    C31   S    
N8    C36   S    
C10   N2    S    
C36   H34   S    
C30   H11   S    
C22   N6    S    
C15   C17   S    
N5    C33   S    
C6    C8    T    
C8    C25   S    
O6    C4    A    
O5    V1    S    
C29   H6    S    
O6    V2    S    
C1    O8    A    
O12   C28   A    
C34   H27   S    
O14   C26   A    
C32   H19   S    
C10   C18   S    
C35   H32   S    
C29   H7    S    
C16   N8    S    
C14   C18   S    
C20   C24   S    
C36   H35   S    
C37   H40   S    
C33   H22   S    
C31   H15   S    
C38   H44   S    
O15   C27   A    
N9    C37   S    
O17   V3    S    
O18   V4    S    
C16   C18   S    
C14   Cl2   S    
C19   C23   S    
N4    H17   S    
O11   V4    S    
C9    N1    S    
O12   V3    S    
C33   H23   S    
O13   C25   A    
O14   V4    S    
C12   Cl6   S    
C30   H12   S    
C11   Cl5   S    
C23   N3    S    
N7    C35   S    
O1    V2    S    
O2    V1    S    
N4    C32   S    
N10   H41   S    
C11   C19   S    
C12   C20   S    
C13   Cl1   S    
C23   N9    S    
C9    H1    S    
C10   H2    S    
O4    C2    A    
C34   H28   S    
O3    V1    S    
O15   V3    S    
O19   V4    S    
O13   V3    S    
O16   V4    S    
C9    C11   S    
O20   V3    S    
C29   H8    S    
C22   Cl4   S    
O3    C1    A    
C31   H16   S    
N6    C34   S    
C35   H30   S    
C24   N4    S    
C21   N5    S    
C20   C22   S    
O7    V1    S    
C31   H14   S    
O8    V2    S    
C37   H38   S    
C4    C5    S    
C32   H20   S    
N1    H5    S    
C25   O18   A    
H4    C14   S    
C5    C7    T    
C15   C23   S    
C36   H36   S    
C16   Cl10  S    
C16   C24   S    
N3    H13   S    
N10   C38   S    
N1    C29   S    
N2    H9    S    
O16   C28   A    
C12   Cl8   S    
C30   H10   S    
C10   C12   S    
O9    V2    S    
C13   C21   S    
N7    H29   S    
O10   V1    S    
C21   Cl3   S    
N5    H21   S    
N8    H33   S    
O11   C27   A    
C15   N7    S    
C33   H24   S    
