data_mof_unit_32851.cif
_audit_creation_date              2013-03-05T16:22:59-0500
_audit_creation_method            fapswitch 2.2
_symmetry_space_group_name_H-M    P1
_symmetry_Int_Tables_number       1
_space_group_crystal_system       triclinic
_cell_length_a                    23.39743
_cell_length_b                    10.497613
_cell_length_c                    9.778724
_cell_angle_alpha                 90.693458
_cell_angle_beta                  90.139399
_cell_angle_gamma                 90.003194
_cell_volume                      2401.63943856

loop_
_atom_site_label
_atom_site_type_symbol
_atom_site_description
_atom_site_fract_x
_atom_site_fract_y
_atom_site_fract_z
_atom_type_partial_charge
O1    O     O_R   0.500000 0.313960 0.616610 -0.629291
O2    O     O_R   0.500000 0.686040 0.383390 -0.629519
O3    O     O_R   0.500030 0.313950 0.383350 -0.549292
O4    O     O_R   0.499970 0.686050 0.616650 -0.552618
C1    C     C_R   0.502882 0.258167 0.499317 0.927111
C2    C     C_R   0.497204 0.741804 0.500710 0.923044
O5    O     O_R   0.416140 0.499970 0.616650 -0.612738
O6    O     O_R   0.583860 0.500030 0.383350 -0.611864
O7    O     O_R   0.416170 0.499960 0.383400 -0.605253
O8    O     O_R   0.583830 0.500040 0.616600 -0.604758
C3    C     C_R   0.389469 0.500954 0.499822 0.894437
C4    C     C_R   0.610423 0.500937 0.500134 0.889034
Zn1   Zn    Zn3+2 0.499980 0.500010 0.655740 1.025010
Zn2   Zn    Zn3+2 0.500020 0.499990 0.344260 1.024296
C5    C     C_R   0.879416 0.621822 0.446918 0.577757
C6    C     C_R   0.120226 0.425239 0.549405 0.549683
N1    N     N_R   0.852143 0.520370 0.503909 -0.334936
N2    N     N_R   0.147637 0.529254 0.498284 -0.338837
C7    C     C_R   0.881193 0.420647 0.559691 0.537002
C8    C     C_R   0.118632 0.632099 0.449009 0.562425
C9    C     C_R   0.940817 0.419706 0.558463 -0.017146
C10   C     C_R   0.058958 0.631864 0.447351 -0.021184
C11   C     C_R   0.969858 0.524156 0.501864 -0.016184
C12   C     C_R   0.029873 0.526061 0.500895 -0.016714
C13   C     C_R   0.939039 0.626677 0.446243 -0.016085
C14   C     C_R   0.060650 0.422119 0.553481 -0.013245
C15   C     C_R   0.971876 0.317237 0.611803 -0.155046
C16   C     C_R   0.027878 0.734077 0.393437 -0.142972
C17   C     C_R   0.031328 0.318079 0.608568 -0.151948
C18   C     C_R   0.968386 0.731134 0.392090 -0.142551
O9    O     O_2   0.848741 0.717774 0.392693 -0.562004
O10   O     O_2   0.150745 0.325614 0.596177 -0.565979
O11   O     O_2   0.852235 0.322808 0.615072 -0.561794
O12   O     O_2   0.147662 0.733329 0.401282 -0.548741
H1    H     H_    0.950389 0.235932 0.655463 0.197616
H2    H     H_    0.049379 0.816161 0.351502 0.194259
H3    H     H_    0.054176 0.237393 0.649834 0.197742
H4    H     H_    0.945525 0.811062 0.349226 0.195330
C19   C     C_R   0.237622 0.495395 0.375128 0.085458
C20   C     C_R   0.762700 0.458100 0.391885 0.108277
C21   C     C_R   0.297018 0.486582 0.377766 -0.225071
C22   C     C_R   0.703196 0.454768 0.391211 -0.213298
H5    H     H_    0.319544 0.461507 0.284569 0.208405
H6    H     H_    0.680886 0.409026 0.306588 0.189044
C23   C     C_R   0.327284 0.508391 0.499224 -0.133288
C24   C     C_R   0.672458 0.506041 0.500775 -0.122298
C25   C     C_R   0.298221 0.541571 0.619216 -0.258522
C26   C     C_R   0.700865 0.563180 0.611198 -0.301913
H7    H     H_    0.321893 0.560733 0.712552 0.217437
H8    H     H_    0.676313 0.603626 0.694444 0.244399
C27   C     C_R   0.238914 0.554071 0.619400 0.341132
C28   C     C_R   0.760364 0.571296 0.614129 0.312931
C29   C     C_R   0.208514 0.529792 0.496620 0.177960
C30   C     C_R   0.791341 0.517319 0.503282 0.191641
C31   C     C_3   0.523706 0.042512 0.619836 -0.234221
C32   C     C_3   0.476731 0.957317 0.380373 -0.235615
C33   C     C_3   0.552998 0.952668 0.514249 -0.021656
C34   C     C_3   0.447419 0.047042 0.485977 -0.026660
H9    H     H_    0.542460 0.079528 0.716881 0.207768
H10   H     H_    0.457995 0.920321 0.283296 0.208178
C35   C     C_3   0.497304 0.876306 0.501708 -0.201510
C36   C     C_3   0.503064 0.123580 0.498475 -0.200751
C37   C     C_3   0.468173 0.965214 0.604497 0.359795
C38   C     C_3   0.532268 0.034602 0.395739 0.364174
C39   C     C_3   0.477185 0.399449 0.045171 0.419955
C40   C     C_3   0.522718 0.600604 0.954990 0.420053
C41   C     C_3   0.528484 0.403138 0.949750 -0.169476
C42   C     C_3   0.471448 0.596737 0.050345 -0.165512
H11   H     H_    0.551560 0.321238 0.902825 0.183584
H12   H     H_    0.448338 0.678552 0.097356 0.184803
N3    N     N_3   0.499960 0.500030 0.863290 -0.140855
N4    N     N_3   0.500040 0.499970 0.136710 -0.140513
C43   C     C_3   0.448113 0.493768 0.950642 -0.189234
C44   C     C_3   0.551862 0.506269 0.049393 -0.188881
H13   H     H_    0.404758 0.486320 0.904856 0.184040
H14   H     H_    0.595214 0.513705 0.095226 0.179307
N5    N     N_R   0.450173 0.286255 0.099832 0.230275
O13   O     O_R   0.472164 0.174361 0.076542 -0.315659
O14   O     O_R   0.401198 0.295835 0.161504 -0.435100
N6    N     N_R   0.549009 0.714969 0.901175 0.230813
O15   O     O_R   0.526045 0.825878 0.924514 -0.314317
O16   O     O_R   0.598742 0.707923 0.842924 -0.414463
C45   C     C_3   0.206715 0.466390 0.241867 -0.359570
C46   C     C_3   0.209552 0.323950 0.206101 -0.400269
C47   C     C_3   0.175989 0.293326 0.075783 -0.727550
H15   H     H_    0.130239 0.318788 0.089112 0.253222
H16   H     H_    0.193779 0.346653 0.988194 0.301205
H17   H     H_    0.178995 0.189757 0.052507 0.258220
H18   H     H_    0.254742 0.294828 0.190441 0.247812
H19   H     H_    0.191470 0.267942 0.291576 0.249713
H20   H     H_    0.161231 0.495422 0.245997 0.209508
H21   H     H_    0.226705 0.522349 0.158831 0.251325
C48   C     C_3   0.794416 0.393770 0.275114 -0.434459
C49   C     C_3   0.791138 0.472508 0.144347 -0.323942
C50   C     C_3   0.823093 0.406406 0.027503 -0.729206
H22   H     H_    0.868804 0.393250 0.055008 0.250310
H23   H     H_    0.803602 0.312032 0.004334 0.262496
H24   H     H_    0.820737 0.465314 0.934326 0.301422
H25   H     H_    0.745791 0.485878 0.113435 0.243858
H26   H     H_    0.810474 0.567882 0.163224 0.271085
H27   H     H_    0.840006 0.377594 0.300970 0.205903
H28   H     H_    0.775452 0.297963 0.256130 0.225347
N7    N     N_R   0.210278 0.589964 0.744569 0.220960
O17   O     O_R   0.161699 0.650206 0.742318 -0.369125
O18   O     O_R   0.235134 0.572424 0.862074 -0.408704
N8    N     N_R   0.787894 0.633291 0.729865 0.197873
O19   O     O_R   0.842502 0.656292 0.731618 -0.387287
O20   O     O_R   0.757794 0.670328 0.834858 -0.388675
C51   C     C_3   0.612160 0.891850 0.527669 -0.369257
C52   C     C_3   0.658967 0.992187 0.548725 -0.365173
C53   C     C_3   0.717361 0.929447 0.565486 -0.709501
H29   H     H_    0.717627 0.868112 0.657209 0.289464
H30   H     H_    0.727852 0.870576 0.473745 0.272410
H31   H     H_    0.750660 0.004011 0.578510 0.266576
H32   H     H_    0.660423 0.056480 0.459455 0.259561
H33   H     H_    0.649647 0.050400 0.641726 0.239437
H34   H     H_    0.611716 0.826682 0.616016 0.252722
H35   H     H_    0.621069 0.834518 0.433826 0.218926
C54   C     C_3   0.387876 0.105868 0.472583 -0.371027
C55   C     C_3   0.341807 0.003472 0.453089 -0.334906
C56   C     C_3   0.282855 0.063500 0.436990 -0.760654
H36   H     H_    0.272120 0.122423 0.528516 0.278976
H37   H     H_    0.281910 0.124152 0.344919 0.253594
H38   H     H_    0.250175 0.987456 0.424869 0.277322
H39   H     H_    0.351298 0.945051 0.360335 0.235138
H40   H     H_    0.341110 0.939645 0.542760 0.264185
H41   H     H_    0.378756 0.163639 0.565994 0.219708
H42   H     H_    0.387694 0.170206 0.383534 0.254797
N9    N     N_R   0.432135 0.929853 0.719554 0.232726
O21   O     O_R   0.416163 0.016973 0.807047 -0.323792
O22   O     O_R   0.410660 0.815943 0.727355 -0.394195
N10   N     N_R   0.568356 0.070206 0.280892 0.231594
O23   O     O_R   0.584233 0.983353 0.192994 -0.323670
O24   O     O_R   0.590126 0.183898 0.273989 -0.411094

loop_
_geom_bond_atom_site_label_1
_geom_bond_atom_site_label_2
_geom_bond_distance
_ccdc_geom_bond_type
C34   C36   1.533720 S    
C40   C42   1.521998 S    
C22   H6    1.084460 S    
C48   C49   1.532758 S    
C31   H9    1.110457 S    
C15   C17   1.391493 A    
C50   H22   1.111217 S    
C43   H13   1.110179 S    
C53   H29   1.110430 S    
C20   C48   1.515286 S    
C50   H24   1.108620 S    
C51   H34   1.108519 S    
C25   H7    1.083205 S    
N5    O13   1.300205 A    
O5    C3    1.300566 A    
C45   H21   1.111985 S    
C44   H14   1.110298 S    
O1    C1    1.283452 A    
C2    C35   1.411863 S    
C7    C9    1.395161 A    
C12   C14   1.409062 A    
C26   C28   1.394930 A    
C55   H40   1.110133 S    
C5    C13   1.395983 A    
N8    O19   1.300335 A    
C27   N7    1.442886 S    
C40   C44   1.522163 S    
C31   C36   1.545180 S    
C13   C18   1.403588 A    
C39   C43   1.522056 S    
C18   H4    1.083176 S    
C22   C24   1.394506 A    
C23   C25   1.398035 A    
O4    Zn1   1.994567 S    
C35   C37   1.525349 S    
C52   C53   1.526101 S    
C56   H38   1.110473 S    
C36   C38   1.526206 S    
N2    C29   1.424498 S    
C33   C51   1.530439 S    
C53   H30   1.111152 S    
C45   C46   1.532990 S    
N10   O23   1.300259 A    
C39   C41   1.522861 S    
C31   C37   1.537913 S    
C11   C12   1.404399 A    
C32   C38   1.537953 S    
N2    C8    1.367271 A    
O6    C4    1.298771 A    
C8    O12   1.349792 S    
C54   H42   1.108453 S    
C26   H8    1.080214 S    
C9    C15   1.403231 A    
C28   N8    1.448405 S    
C10   C16   1.403555 A    
C21   H5    1.083591 S    
O2    C2    1.283447 A    
C46   H19   1.112154 S    
C28   C30   1.417861 A    
C51   H35   1.111463 S    
N5    O14   1.299532 A    
C6    C14   1.394977 A    
C24   C26   1.395801 A    
C39   N5    1.453979 S    
C47   H16   1.110651 S    
C38   N10   1.458995 S    
C46   C47   1.526155 S    
N6    O16   1.298510 A    
C7    O11   1.349960 S    
C48   H27   1.109215 S    
N3    C43   1.487259 S    
C55   H39   1.111598 S    
C25   C27   1.393833 A    
Zn1   N3    2.029573 S    
C15   H1    1.083196 S    
C42   C43   1.545597 S    
C47   H15   1.110918 S    
C32   H10   1.110480 S    
C41   H11   1.110393 S    
C4    C24   1.452457 S    
O7    Zn2   1.999772 S    
C20   C22   1.392668 A    
C40   N3    1.475469 S    
C49   H26   1.111851 S    
C42   N4    1.486863 S    
N7    O18   1.301662 A    
C41   C44   1.546765 S    
C33   C35   1.533741 S    
O7    C3    1.299870 A    
C16   H2    1.083181 S    
C56   H36   1.111060 S    
O3    Zn2   1.994568 S    
O8    C4    1.299230 A    
N10   O24   1.300184 A    
N4    C44   1.486608 S    
C8    C10   1.396279 A    
C20   C30   1.414981 A    
C31   C33   1.550888 S    
C10   C12   1.409462 A    
C3    C23   1.457087 S    
O4    C2    1.283678 A    
O1    Zn1   1.985662 S    
C46   H18   1.111116 S    
C52   H33   1.111567 S    
C45   H20   1.107699 S    
C55   C56   1.525056 S    
C33   C38   1.529535 S    
N9    O21   1.300265 A    
C47   H17   1.110369 S    
C34   C37   1.529148 S    
C5    N1    1.366763 A    
O6    Zn2   1.997623 S    
Zn2   N4    2.029572 S    
C6    N2    1.366816 A    
N6    O15   1.300224 A    
O3    C1    1.284158 A    
O8    Zn1   1.999774 S    
C48   H28   1.112594 S    
C54   C55   1.532167 S    
C50   H23   1.111220 S    
C5    O9    1.349828 S    
C6    O10   1.350146 S    
C39   N4    1.474951 S    
C40   N6    1.453784 S    
C9    C11   1.409512 A    
C19   C45   1.516423 S    
C51   C52   1.531245 S    
C19   C29   1.413932 A    
N8    O20   1.301976 A    
C49   H25   1.111890 S    
C52   H32   1.110460 S    
C16   C18   1.392318 A    
C34   C54   1.529894 S    
N1    C7    1.366572 A    
C32   C34   1.550449 S    
C1    C36   1.412771 S    
C53   H31   1.110369 S    
C41   N3    1.487592 S    
C37   N9    1.459239 S    
C49   C50   1.526782 S    
O2    Zn2   1.985661 S    
C56   H37   1.109174 S    
O5    Zn1   1.997620 S    
C11   C13   1.409398 A    
C19   C21   1.393002 A    
C14   C17   1.403452 A    
C42   H12   1.110427 S    
C17   H3    1.083203 S    
N7    O17   1.301004 A    
C21   C23   1.397789 A    
C32   C35   1.544155 S    
C27   C29   1.414513 A    
N1    C30   1.422975 S    
N9    O22   1.300194 A    
C54   H41   1.111421 S    
