data_mof_unit_50523.cif
_audit_creation_date              2012-12-11T15:23:34-0500
_audit_creation_method            fapswitch 2.2
_symmetry_space_group_name_H-M    P1
_symmetry_Int_Tables_number       1
_space_group_crystal_system       triclinic
_cell_length_a                    6.92475
_cell_length_b                    17.523774
_cell_length_c                    19.313889
_cell_angle_alpha                 109.588944
_cell_angle_beta                  90.029938
_cell_angle_gamma                 90.732226
_cell_volume                      2207.83988631

loop_
_atom_site_label
_atom_site_type_symbol
_atom_type_description
_atom_site_fract_x
_atom_site_fract_y
_atom_site_fract_z
_atom_type_partial_charge
O1    O     O_R   0.505810 0.439670 0.562310 -0.537451
O2    O     O_R   0.169070 0.404920 0.411210 -0.542315
O3    O     O_R   0.005550 0.560330 0.437690 -0.539210
C1    C     C_R   0.338644 0.381378 0.382983 0.675624
O4    O     O_R   0.175650 0.430000 0.560110 -0.546272
O5    O     O_R   0.012170 0.585580 0.587650 -0.538369
C2    C     C_R   0.343817 0.413158 0.580509 0.711271
O6    O     O_R   0.499180 0.414420 0.412350 -0.538818
O7    O     O_3   0.341430 0.551020 0.508860 -0.366570
V1    V     V_3+5 0.063930 0.490540 0.498360 1.386935
O8    O     O_R   0.682850 0.595080 0.588790 -0.542508
C3    C     C_R   0.852990 0.618431 0.616913 0.678634
O9    O     O_R   0.676280 0.570000 0.439890 -0.542779
C4    C     C_R   0.845502 0.585052 0.418170 0.711479
V2    V     V_3+5 0.564760 0.509460 0.501640 1.396388
O10   O     O_3   0.837130 0.448980 0.491140 -0.369312
C5    C     C_R   0.759159 0.885357 0.189275 0.168494
C6    C     C_R   0.913242 0.872997 0.137748 -0.121862
C7    C     C_R   0.058143 0.817304 0.137294 -0.254603
C8    C     C_R   0.049188 0.771326 0.184235 0.086205
C9    C     C_R   0.889038 0.778355 0.230938 0.007600
C10   C     C_R   0.740945 0.833804 0.232361 0.059317
C11   C     C_R   0.197091 0.717271 0.184342 -0.165643
C12   C     C_R   0.187867 0.670977 0.230850 -0.195592
C13   C     C_R   0.029101 0.676913 0.277339 0.090809
C14   C     C_R   0.877865 0.730011 0.276785 0.068349
C15   C     C_R   0.715738 0.734871 0.322148 0.094852
C16   C     C_R   0.566495 0.787682 0.321443 -0.196692
C17   C     C_R   0.578390 0.836320 0.277175 -0.180608
C18   C     C_R   0.018809 0.630567 0.324222 -0.223629
C19   C     C_R   0.856784 0.634877 0.369375 -0.086562
C20   C     C_R   0.705013 0.686717 0.367348 -0.227285
H1    H     H_    0.178407 0.809195 0.099679 0.147216
H2    H     H_    0.321183 0.711294 0.148833 0.132561
H3    H     H_    0.305121 0.630447 0.230403 0.130344
H4    H     H_    0.135770 0.590196 0.324722 0.123836
H5    H     H_    0.579591 0.690635 0.401899 0.128737
H6    H     H_    0.439540 0.791326 0.355145 0.134789
H7    H     H_    0.456687 0.874516 0.277505 0.151753
C21   C     C_3   0.709273 0.777686 0.773363 -0.108806
C22   C     C_3   0.799147 0.775027 0.699181 -0.142972
H8    H     H_    0.727460 0.795136 0.656962 0.102062
H9    H     H_    0.563388 0.800628 0.792861 0.111058
C23   C     C_3   0.868957 0.688678 0.687564 -0.007149
C24   C     C_3   0.779238 0.690520 0.760937 -0.146599
C25   C     C_3   0.971937 0.725070 0.800753 -0.145744
C26   C     C_3   0.061813 0.722418 0.726575 -0.111389
C27   C     C_3   0.991842 0.809589 0.739006 -0.143859
C28   C     C_3   0.902125 0.811413 0.812379 -0.006068
H10   H     H_    0.690993 0.641100 0.769445 0.099137
H11   H     H_    0.043639 0.704969 0.842973 0.101562
H12   H     H_    0.207701 0.699482 0.707077 0.111858
H13   H     H_    0.080010 0.859039 0.730509 0.099134
C29   C     C_3   0.556836 0.281936 0.277528 -0.103856
C30   C     C_3   0.493067 0.192981 0.263562 -0.141037
H14   H     H_    0.583213 0.146336 0.274535 0.097770
H15   H     H_    0.699571 0.308317 0.300100 0.113977
C31   C     C_3   0.413506 0.188888 0.188019 -0.012419
C32   C     C_3   0.476703 0.277097 0.201276 -0.152073
C33   C     C_3   0.278073 0.306758 0.236625 -0.146885
C34   C     C_3   0.214305 0.217805 0.222666 -0.101770
C35   C     C_3   0.294445 0.222658 0.298926 -0.144743
C36   C     C_3   0.357647 0.310870 0.312161 -0.010281
H16   H     H_    0.553262 0.299311 0.161110 0.101419
H17   H     H_    0.187971 0.353506 0.225780 0.099631
H18   H     H_    0.071579 0.191397 0.200104 0.110492
H19   H     H_    0.217911 0.200461 0.339112 0.101273
C37   C     C_R   0.253458 0.124347 0.821903 -0.203337
C38   C     C_R   0.416997 0.132118 0.867051 -0.108946
C39   C     C_R   0.568653 0.184417 0.862819 -0.184309
C40   C     C_R   0.555641 0.229821 0.815268 0.118363
C41   C     C_R   0.390850 0.221487 0.769864 0.004000
C42   C     C_R   0.239451 0.167670 0.772554 0.077678
C43   C     C_R   0.704884 0.283548 0.812388 -0.162945
C44   C     C_R   0.691715 0.328714 0.765122 -0.183432
C45   C     C_R   0.528866 0.321167 0.719882 0.106685
C46   C     C_R   0.377775 0.267227 0.721945 -0.008589
C47   C     C_R   0.213938 0.259041 0.676365 0.063579
C48   C     C_R   0.065877 0.204164 0.678776 -0.196635
C49   C     C_R   0.077092 0.158444 0.726054 0.168424
C50   C     C_R   0.514879 0.367246 0.673157 -0.246011
C51   C     C_R   0.351525 0.361240 0.628083 -0.133004
C52   C     C_R   0.200199 0.305705 0.629291 0.150492
H20   H     H_    0.137663 0.083449 0.824897 0.157144
H21   H     H_    0.695475 0.190769 0.897349 0.129139
H22   H     H_    0.832448 0.290479 0.846595 0.129812
H23   H     H_    0.809428 0.369594 0.763901 0.125398
H24   H     H_    0.631200 0.409131 0.672799 0.128258
H25   H     H_    0.939422 0.196622 0.643992 0.171735
O11   O     O_R   0.271890 0.085690 0.087580 -0.539911
O12   O     O_R   0.595690 0.070020 0.939870 -0.541370
O13   O     O_R   0.758900 0.914390 0.912370 -0.539057
C53   C     C_R   0.427199 0.084741 0.917851 0.706894
O14   O     O_R   0.602020 0.095100 0.088770 -0.544875
O15   O     O_R   0.765280 0.939660 0.062330 -0.524906
C54   C     C_R   0.432469 0.118531 0.117085 0.688760
O16   O     O_R   0.265520 0.060430 0.937620 -0.542450
O17   O     O_3   0.429560 0.949050 0.991100 -0.362168
V3    V     V_3+5 0.707160 0.009450 0.001650 1.416097
O18   O     O_R   0.094540 0.929890 0.060190 -0.539441
C55   C     C_R   0.925512 0.917798 0.084345 0.716260
O19   O     O_R   0.088200 0.904800 0.911290 -0.544543
C56   C     C_R   0.918084 0.881568 0.883089 0.679572
V4    V     V_3+5 0.206300 0.990390 0.998440 1.416821
O20   O     O_3   0.934030 0.050940 0.008900 -0.373404
N1    N     N_3   0.626964 0.951529 0.200020 -0.649917
H26   H     H_    0.597968 0.977165 0.256083 0.201112
H27   H     H_    0.699283 0.999769 0.190652 0.211020
N2    N     N_3   0.034101 0.294069 0.582089 -0.685287
H28   H     H_    0.950995 0.346391 0.598781 0.247681
H29   H     H_    0.079275 0.281350 0.527780 0.231366
N3    N     N_3   0.923375 0.102816 0.727076 -0.676806
H30   H     H_    0.975328 0.044188 0.702463 0.217211
H31   H     H_    0.806671 0.108805 0.694985 0.235001

loop_
_geom_bond_atom_site_label_1
_geom_bond_atom_site_label_2
_ccdc_geom_bond_type
C9    C14   A    
C10   C17   A    
C22   H8    S    
C5    N1    S    
C7    C8    A    
C4    C19   S    
C1    O6    A    
N3    H31   S    
C50   C51   A    
C46   C47   A    
C1    C36   S    
C32   H16   S    
C35   C36   S    
C35   H19   S    
C33   C36   S    
C50   H24   S    
C24   H10   S    
C16   C17   A    
C38   C53   S    
C38   C39   A    
N2    H29   S    
O5    C3    A    
C18   C19   A    
O19   V4    S    
O15   V3    S    
N1    H26   S    
V2    O10   S    
C30   C35   S    
O18   V4    S    
C6    C7    A    
C31   C54   S    
N3    H30   S    
O13   C56   A    
C29   C30   S    
O8    V2    S    
C34   H18   S    
C42   C49   A    
C21   H9    S    
C26   C27   S    
C37   C38   A    
C11   C12   A    
C52   N2    S    
C39   C40   A    
O1    V2    S    
O7    V1    S    
C23   C26   S    
C31   C34   S    
C32   C33   S    
O9    C4    A    
C17   H7    S    
C21   C24   S    
C47   C52   A    
V4    O20   S    
C29   C32   S    
C27   H13   S    
V3    O20   S    
C12   H3    S    
C43   C44   A    
O19   C56   A    
C37   H20   S    
C12   C13   A    
C7    H1    S    
O4    C2    A    
C47   C48   A    
C37   C42   A    
C24   C25   S    
C25   H11   S    
C33   C34   S    
C6    C55   S    
O2    C1    A    
C44   C45   A    
C28   C56   S    
C41   C46   A    
O12   C53   A    
C19   C20   A    
C25   C28   S    
C8    C11   A    
C16   H6    S    
C11   H2    S    
C49   N3    S    
C30   H14   S    
C5    C6    A    
C14   C15   A    
C20   H5    S    
C43   H22   S    
O14   C54   A    
O11   V4    S    
O3    C4    A    
C44   H23   S    
C21   C22   S    
C33   H17   S    
O17   V3    S    
O6    V2    S    
O9    V2    S    
C22   C23   S    
C31   C32   S    
O2    V1    S    
C53   O16   A    
C23   C24   S    
C13   C18   A    
C25   C26   S    
C27   C28   S    
C15   C20   A    
O1    C2    A    
C41   C42   A    
C45   C50   A    
O5    V1    S    
C40   C43   A    
O8    C3    A    
O11   C54   A    
C26   H12   S    
C5    C10   A    
C18   H4    S    
C13   C14   A    
O4    V1    S    
C3    C23   S    
O3    V1    S    
V1    O10   S    
N2    H28   S    
C45   C46   A    
N1    H27   S    
O14   V3    S    
O17   V4    S    
O18   C55   A    
C22   C27   S    
O7    V2    S    
C34   C35   S    
C48   H25   S    
O16   V4    S    
C48   C49   A    
O15   C55   A    
C40   C41   A    
C2    C51   S    
C8    C9    A    
C51   C52   A    
C29   C36   S    
C30   C31   S    
C15   C16   A    
O12   V3    S    
C9    C10   A    
C39   H21   S    
C21   C28   S    
O13   V3    S    
C29   H15   S    
