data_mof_unit_33255.cif
_audit_creation_date              2012-12-10T19:35:24-0500
_audit_creation_method            fapswitch 2.2
_symmetry_space_group_name_H-M    P1
_symmetry_Int_Tables_number       1
_space_group_crystal_system       triclinic
_cell_length_a                    13.481332
_cell_length_b                    15.844346
_cell_length_c                    17.047735
_cell_angle_alpha                 85.910523
_cell_angle_beta                  89.22319
_cell_angle_gamma                 109.563176
_cell_volume                      3419.78282369

loop_
_atom_site_label
_atom_site_type_symbol
_atom_type_description
_atom_site_fract_x
_atom_site_fract_y
_atom_site_fract_z
_atom_type_partial_charge
C1    C     C_R   0.502287 0.509433 0.348751 0.782694
C2    C     C_R   0.982152 0.540959 0.477381 0.067073
C3    C     C_R   0.873183 0.518202 0.464456 0.053345
C4    C     C_R   0.030990 0.474715 0.470059 0.059368
C5    C     C_R   0.973697 0.391069 0.441141 0.103421
C6    C     C_R   0.868250 0.373344 0.419982 0.068077
C7    C     C_R   0.821045 0.438092 0.429357 -0.221602
C8    C     C_R   0.134515 0.488402 0.493135 -0.267365
C9    C     C_R   0.124907 0.339720 0.457982 0.083969
C10   C     C_R   0.819537 0.576977 0.486011 -0.133859
C11   C     C_R   0.511645 0.513584 0.263084 -0.018883
C12   C     C_R   0.703072 0.547883 0.493333 0.796196
C13   C     C_R   0.474598 0.434582 0.224129 -0.256023
C14   C     C_R   0.487192 0.438230 0.142737 -0.156088
C15   C     C_R   0.538421 0.520984 0.099697 0.380167
C16   C     C_R   0.577547 0.599267 0.138753 -0.195007
C17   C     C_R   0.562941 0.596007 0.219983 -0.222292
C18   C     C_R   0.535348 0.569560 0.855744 0.105061
C19   C     C_R   0.544646 0.567978 0.774037 -0.270817
C20   C     C_R   0.485246 0.486600 0.901593 0.356010
C21   C     C_R   0.498732 0.488719 0.737205 -0.044784
C22   C     C_R   0.447660 0.408356 0.782594 -0.228237
C23   C     C_R   0.500229 0.491097 0.651289 0.813108
C24   C     C_R   0.441064 0.407608 0.864043 -0.221374
C25   C     C_R   0.517134 0.254748 0.443072 0.018783
C26   C     C_R   0.509594 0.164352 0.439545 -0.307003
C27   C     C_R   0.474264 0.103704 0.506462 0.383514
C28   C     C_R   0.442764 0.135952 0.573863 -0.324317
C29   C     C_R   0.448726 0.226322 0.574258 0.042403
C30   C     C_R   0.462704 0.839468 0.532181 -0.328644
C31   C     C_R   0.469938 0.753267 0.547210 0.241052
C32   C     C_R   0.503894 0.892986 0.462680 0.317923
C33   C     C_R   0.553808 0.766602 0.421769 -0.004590
C34   C     C_R   0.297219 0.451862 0.498856 0.783367
C35   C     C_R   0.549144 0.854567 0.405635 -0.030050
C36   C     C_R   0.022805 0.326325 0.434025 -0.241594
C37   C     C_R   0.183309 0.423932 0.485480 -0.078681
C38   C     C_R   0.877976 0.663873 0.505581 -0.200789
C39   C     C_R   0.988098 0.692060 0.507419 0.145348
C40   C     C_R   0.038655 0.629723 0.495634 -0.228168
Cu1   Cu    Cu3+1 0.505120 0.585970 0.496130 0.926444
Cu2   Cu    Cu3+1 0.494880 0.414030 0.503870 0.928400
H1    H     H_    0.617988 0.663013 0.105946 0.135342
H2    H     H_    0.593880 0.657436 0.249220 0.140386
H3    H     H_    0.411288 0.346420 0.755057 0.148851
H4    H     H_    0.458173 0.376708 0.113394 0.145265
H5    H     H_    0.401142 0.344821 0.898486 0.145393
H6    H     H_    0.426376 0.865915 0.577031 0.166395
H7    H     H_    0.413918 0.091061 0.626358 0.140643
H8    H     H_    0.422456 0.249038 0.626409 0.124614
H9    H     H_    0.590973 0.739743 0.378063 0.140818
H10   H     H_    0.532977 0.143114 0.385482 0.155808
H11   H     H_    0.546722 0.300580 0.391499 0.132028
H12   H     H_    0.982163 0.263481 0.409577 0.154102
H13   H     H_    0.123342 0.654129 0.497876 0.123001
H14   H     H_    0.743271 0.425328 0.407114 0.160946
H15   H     H_    0.587302 0.629212 0.738739 0.136896
N1    N     N_2   0.552206 0.527429 0.017141 -0.270813
N2    N     N_2   0.473721 0.479028 0.984664 -0.274757
N3    N     N_R   0.487180 0.284900 0.509690 -0.158401
N4    N     N_2   0.471643 0.012004 0.510830 -0.247569
N5    N     N_2   0.504320 0.984753 0.451511 -0.251318
N6    N     N_R   0.512820 0.715120 0.490310 -0.181719
O1    O     O_R   0.504790 0.580580 0.382450 -0.590989
O2    O     O_R   0.496140 0.435390 0.388990 -0.608730
O3    O     O_R   0.657420 0.608020 0.495150 -0.586460
O4    O     O_R   0.648770 0.462830 0.501690 -0.573621
O5    O     O_R   0.503860 0.564610 0.611010 -0.593626
O6    O     O_R   0.495210 0.419420 0.617550 -0.585238
O7    O     O_R   0.351230 0.537170 0.498310 -0.585716
O8    O     O_R   0.342580 0.391980 0.504850 -0.583933
C41   C     C_3   0.165184 0.261441 0.452172 -0.383257
C42   C     C_3   0.227145 0.269654 0.374273 -0.323556
C43   C     C_3   0.257170 0.186059 0.365217 -0.849617
H16   H     H_    0.299248 0.172043 0.417328 0.270234
H17   H     H_    0.185398 0.126937 0.359144 0.246971
H18   H     H_    0.309321 0.196558 0.311834 0.234009
H19   H     H_    0.178398 0.278015 0.324168 0.208487
H20   H     H_    0.299619 0.329468 0.371441 0.240991
H21   H     H_    0.211041 0.252980 0.503793 0.215925
H22   H     H_    0.097348 0.197336 0.455266 0.180073
C44   C     C_3   0.575177 0.660690 0.889694 -0.387773
C45   C     C_3   0.484542 0.686079 0.924914 -0.328314
C46   C     C_3   0.525385 0.777527 0.958775 -0.866836
H23   H     H_    0.580604 0.776485 0.006296 0.252085
H24   H     H_    0.566537 0.830636 0.911900 0.252765
H25   H     H_    0.458246 0.793965 0.983845 0.242361
H26   H     H_    0.428573 0.688786 0.878335 0.214029
H27   H     H_    0.440782 0.635261 0.972531 0.243641
H28   H     H_    0.635795 0.662613 0.933476 0.213529
H29   H     H_    0.616225 0.714036 0.842810 0.179416
H30   H     H_    0.435876 0.370199 0.256504 0.149065
C47   C     C_3   0.439969 0.714181 0.631677 -0.348263
C48   C     C_3   0.327991 0.645703 0.643005 -0.308991
C49   C     C_3   0.290851 0.629021 0.729513 -0.898972
H31   H     H_    0.343883 0.602129 0.764715 0.266315
H32   H     H_    0.289241 0.692199 0.752969 0.252081
H33   H     H_    0.210023 0.578988 0.735414 0.248465
H34   H     H_    0.272314 0.670694 0.608905 0.197732
H35   H     H_    0.325019 0.580445 0.622994 0.250844
H36   H     H_    0.501391 0.691568 0.657493 0.201747
H37   H     H_    0.443344 0.769381 0.669602 0.159173
C50   C     C_3   0.802609 0.284293 0.390541 -0.413253
C51   C     C_3   0.774812 0.208396 0.457452 -0.321601
C52   C     C_3   0.751711 0.116869 0.425008 -0.847350
H38   H     H_    0.691483 0.107441 0.379857 0.255520
H39   H     H_    0.824570 0.111744 0.397755 0.237126
H40   H     H_    0.722558 0.062936 0.473456 0.260122
H41   H     H_    0.839221 0.217288 0.499285 0.216834
H42   H     H_    0.705560 0.209595 0.492563 0.234020
H43   H     H_    0.728011 0.287943 0.366148 0.176153
H44   H     H_    0.845761 0.269294 0.340341 0.194573
C53   C     C_3   0.592485 0.904552 0.326921 -0.423772
C54   C     C_3   0.524849 0.859743 0.259763 -0.334149
C55   C     C_3   0.569318 0.908881 0.180011 -0.858087
H45   H     H_    0.571152 0.979619 0.178079 0.253760
H46   H     H_    0.650322 0.907948 0.168929 0.250919
H47   H     H_    0.518766 0.874984 0.132755 0.244364
H48   H     H_    0.521652 0.788827 0.258954 0.213852
H49   H     H_    0.443165 0.860101 0.268876 0.227327
H50   H     H_    0.594929 0.975278 0.325252 0.217773
H51   H     H_    0.674778 0.905782 0.317655 0.191649
H52   H     H_    0.178962 0.548788 0.519189 0.147013
H53   H     H_    0.836742 0.708925 0.520176 0.149458
C56   C     C_3   0.056125 0.786712 0.523621 -0.406361
C57   C     C_3   0.998360 0.855263 0.526919 -0.359045
C58   C     C_3   0.075656 0.949536 0.535777 -0.844013
H54   H     H_    0.119306 0.950410 0.590688 0.253788
H55   H     H_    0.132778 0.971981 0.484605 0.256984
H56   H     H_    0.031815 0.997461 0.538632 0.236254
H57   H     H_    0.955524 0.856931 0.471866 0.219129
H58   H     H_    0.940988 0.835984 0.578008 0.214840
H59   H     H_    0.095135 0.783205 0.580233 0.195116
H60   H     H_    0.118973 0.811805 0.476249 0.203543

loop_
_geom_bond_atom_site_label_1
_geom_bond_atom_site_label_2
_ccdc_geom_bond_type
C56   H60   S    
C30   C32   A    
C47   C48   S    
C39   C56   S    
C34   C37   S    
Cu1   Cu2   S    
C23   O6    A    
C49   H31   S    
C1    C11   S    
C46   H25   S    
C4    C8    A    
C54   C55   S    
C49   H33   S    
C14   H4    S    
C19   H15   S    
C52   H39   S    
C26   C27   A    
C57   C58   S    
C56   C57   S    
C43   H17   S    
C48   H34   S    
C30   H6    S    
C28   C29   A    
C19   C21   A    
C46   H24   S    
C3    C7    A    
C30   C31   A    
C55   H45   S    
C5    C36   A    
C50   H43   S    
C18   C19   A    
C42   C43   S    
C27   N4    S    
C18   C44   S    
C53   H51   S    
C20   C24   A    
C16   C17   A    
C55   H46   S    
C43   H18   S    
Cu2   O2    S    
C1    O2    A    
C42   H19   S    
C9    C41   S    
C25   N3    A    
C57   H58   S    
C34   O7    A    
C41   H22   S    
C40   H13   S    
C45   H26   S    
C21   C22   A    
N4    N5    D    
C7    H14   S    
C51   C52   S    
C12   O4    A    
Cu1   O5    S    
C29   H8    S    
C38   C39   A    
C45   H27   S    
C52   H40   S    
C43   H16   S    
C32   C35   A    
C31   N6    A    
C46   H23   S    
C47   H36   S    
C39   C40   A    
C41   C42   S    
N1    N2    D    
C31   C47   S    
C12   O3    A    
Cu2   O6    S    
C44   H29   S    
C50   H44   S    
C23   O5    A    
C2    C4    A    
C58   H55   S    
C26   H10   S    
C9    C36   A    
C28   H7    S    
C45   C46   S    
C29   N3    A    
C48   H35   S    
C33   N6    A    
C55   H47   S    
C9    C37   A    
C42   H20   S    
C6    C50   S    
C20   N2    S    
C16   H1    S    
C6    C7    A    
C10   C12   S    
C21   C23   S    
C13   H30   S    
Cu2   O4    S    
C15   N1    S    
C22   C24   A    
C8    C37   A    
Cu1   N6    S    
Cu2   N3    S    
C58   H54   S    
C1    O1    A    
C50   C51   S    
C53   C54   S    
C56   H59   S    
C11   C17   A    
C14   C15   A    
C24   H5    S    
C54   H48   S    
C25   H11   S    
C4    C5    A    
C47   H37   S    
C49   H32   S    
C8    H52   S    
Cu1   O3    S    
C33   H9    S    
C52   H38   S    
C44   H28   S    
C10   C38   A    
C2    C3    A    
C25   C26   A    
C17   H2    S    
C32   N5    S    
C41   H21   S    
C3    C10   A    
C51   H42   S    
C11   C13   A    
C5    C6    A    
C57   H57   S    
Cu2   O8    S    
C33   C35   A    
C35   C53   S    
C18   C20   A    
C48   C49   S    
C38   H53   S    
C58   H56   S    
C36   H12   S    
C2    C40   A    
C22   H3    S    
C53   H50   S    
C44   C45   S    
C27   C28   A    
C51   H41   S    
Cu1   O1    S    
C13   C14   A    
C34   O8    A    
C54   H49   S    
C15   C16   A    
Cu1   O7    S    
