data_mof_unit_24512.cif
_audit_creation_date              2012-12-10T20:46:48-0500
_audit_creation_method            fapswitch 2.2
_symmetry_space_group_name_H-M    P1
_symmetry_Int_Tables_number       1
_space_group_crystal_system       triclinic
_cell_length_a                    12.94767
_cell_length_b                    8.919786
_cell_length_c                    8.155241
_cell_angle_alpha                 89.998152
_cell_angle_beta                  94.970703
_cell_angle_gamma                 89.997423
_cell_volume                      938.310233933

loop_
_atom_site_label
_atom_site_type_symbol
_atom_type_description
_atom_site_fract_x
_atom_site_fract_y
_atom_site_fract_z
_atom_type_partial_charge
C1    C     C_R   0.499988 0.218219 0.499999 0.955506
C2    C     C_R   0.863999 0.591056 0.681194 -0.116086
C3    C     C_R   0.129762 0.488132 0.595990 0.322273
C4    C     C_R   0.870262 0.488282 0.403847 0.400218
C5    C     C_R   0.024833 0.519486 0.578822 -0.066072
C6    C     C_R   0.975198 0.519646 0.421067 -0.080804
C7    C     C_1   0.499980 0.065267 0.499995 -0.140679
C8    C     C_1   0.499982 0.934735 0.499992 -0.147735
C9    C     C_1   0.805973 0.683902 0.786832 0.303654
C10   C     C_1   0.194137 0.684167 0.213284 0.296248
C11   C     C_1   0.970686 0.695423 0.193731 0.235558
C12   C     C_R   0.499992 0.781783 0.499997 0.897285
C13   C     C_1   0.029404 0.694925 0.806407 0.236978
C14   C     C_R   0.297968 0.501707 0.471474 0.908895
C15   C     C_R   0.702040 0.501711 0.528513 0.934277
C16   C     C_R   0.813308 0.519950 0.540694 -0.250581
C17   C     C_R   0.186722 0.519999 0.459245 -0.256782
C18   C     C_R   0.027485 0.587140 0.297620 0.025888
C19   C     C_R   0.972573 0.586773 0.702414 0.031266
C20   C     C_R   0.136062 0.591329 0.318858 -0.096488
H1    H     H_    0.711483 0.210630 0.168464 0.384640
H2    H     H_    0.210196 0.186691 0.645483 0.343140
N1    N     N_1   0.500020 0.500000 0.073640 0.024419
N2    N     N_1   0.499980 0.500000 0.926360 0.029920
N3    N     N_1   0.757853 0.758519 0.867903 -0.134069
N4    N     N_1   0.242302 0.758753 0.132251 -0.128467
N5    N     N_1   0.924286 0.785844 0.117304 -0.142308
N6    N     N_1   0.075842 0.785261 0.882887 -0.145578
O1    O     O_R   0.499990 0.285340 0.636850 -0.595838
O2    O     O_2   0.908976 0.330042 0.133116 -0.242885
O3    O     O_3   0.746587 0.246414 0.274029 -0.548047
O4    O     O_2   0.241749 0.494499 0.889769 -0.266504
O5    O     O_2   0.091133 0.328701 0.866563 -0.242826
O6    O     O_3   0.254189 0.246060 0.726963 -0.516573
O7    O     O_R   0.500010 0.714660 0.363150 -0.621535
O8    O     O_R   0.500010 0.285340 0.363150 -0.609630
O9    O     O_R   0.499990 0.714660 0.636850 -0.621685
O10   O     O_R   0.346350 0.500000 0.614250 -0.547023
O11   O     O_R   0.653650 0.500000 0.385750 -0.557189
O12   O     O_R   0.346360 0.500000 0.340500 -0.611330
O13   O     O_R   0.653640 0.500000 0.659500 -0.619366
O14   O     O_2   0.757844 0.495807 0.110528 -0.312035
S1    S     S_3+6 0.821139 0.390580 0.222583 0.049312
S2    S     S_3+6 0.178756 0.389694 0.776938 0.064289
Zn1   Zn    Zn3+2 0.499990 0.500000 0.682780 1.092782
Zn2   Zn    Zn3+2 0.500010 0.500000 0.317220 1.081566

loop_
_geom_bond_atom_site_label_1
_geom_bond_atom_site_label_2
_ccdc_geom_bond_type
C4    C16   A    
N1    N2    T    
C11   C18   S    
O8    Zn2   S    
C5    C19   A    
C4    S1    S    
C14   O10   A    
C2    C16   A    
C11   N5    T    
C8    C12   S    
O2    S1    D    
C10   N4    T    
C1    O1    A    
O4    S2    D    
C9    N3    T    
C7    C8    T    
C13   N6    T    
N1    Zn2   S    
C12   O7    A    
O12   Zn2   S    
C2    C9    S    
C14   C17   S    
C15   O11   A    
H1    O3    S    
O3    S1    S    
O11   Zn2   S    
C6    C18   A    
N2    Zn1   S    
C3    C17   A    
C18   C20   A    
C5    C6    A    
H2    O6    S    
C3    S2    S    
O14   S1    D    
C13   C19   S    
C14   O12   A    
C15   C16   S    
C17   C20   A    
O6    S2    S    
C15   O13   A    
C4    C6    A    
O1    Zn1   S    
C12   O9    A    
O13   Zn1   S    
O10   Zn1   S    
C3    C5    A    
C2    C19   A    
C1    C7    S    
O7    Zn2   S    
O9    Zn1   S    
C1    O8    A    
C10   C20   S    
O5    S2    D    
