data_mof_unit_28408.cif
_audit_creation_date              2013-03-05T15:41:33-0500
_audit_creation_method            fapswitch 2.2
_symmetry_space_group_name_H-M    P1
_symmetry_Int_Tables_number       1
_space_group_crystal_system       triclinic
_cell_length_a                    15.846428
_cell_length_b                    8.732185
_cell_length_c                    7.513697
_cell_angle_alpha                 103.263689
_cell_angle_beta                  94.679706
_cell_angle_gamma                 92.513535
_cell_volume                      1006.49134983

loop_
_atom_site_label
_atom_site_type_symbol
_atom_site_description
_atom_site_fract_x
_atom_site_fract_y
_atom_site_fract_z
_atom_type_partial_charge
O1    O     O_R   0.506070 0.286130 0.619780 -0.561120
O2    O     O_R   0.493930 0.713870 0.380220 -0.561075
O3    O     O_R   0.490300 0.256770 0.308360 -0.536006
O4    O     O_R   0.509700 0.743230 0.691640 -0.535339
C1    C     C_R   0.496457 0.200228 0.453766 0.806851
C2    C     C_R   0.503669 0.799792 0.546228 0.806342
O5    O     O_R   0.386960 0.514660 0.655680 -0.561467
O6    O     O_R   0.613040 0.485340 0.344320 -0.561653
O7    O     O_R   0.371190 0.485310 0.344260 -0.539483
O8    O     O_R   0.628810 0.514690 0.655740 -0.539322
C3    C     C_R   0.340312 0.500900 0.501412 0.813466
C4    C     C_R   0.659688 0.499102 0.498589 0.813561
Cu1   Cu    Cu3+1 0.509330 0.517380 0.684380 1.193631
Cu2   Cu    Cu3+1 0.490670 0.482620 0.315620 1.193300
C5    C     C_2   0.483357 0.033311 0.433199 0.067837
C6    C     C_2   0.517025 0.966707 0.566711 0.067323
C7    C     C_3   0.973924 0.372191 0.552816 0.336610
C8    C     C_3   0.026074 0.627804 0.447182 0.336595
C9    C     C_3   0.021862 0.370604 0.382335 -0.190935
C10   C     C_3   0.978137 0.629391 0.617663 -0.190951
C11   C     C_1   0.251138 0.503935 0.503265 -0.007484
C12   C     C_1   0.748861 0.496064 0.496735 -0.007277
C13   C     C_3   0.036094 0.504883 0.669181 -0.173966
C14   C     C_3   0.963905 0.495112 0.330817 -0.173975
C15   C     C_3   0.084159 0.504466 0.498273 -0.057788
C16   C     C_3   0.915840 0.495529 0.501725 -0.057804
N1    N     N_2   0.476600 0.456420 0.038510 0.033971
N2    N     N_2   0.523400 0.543580 0.961490 0.034326
C17   C     C_1   0.175744 0.505498 0.500956 0.091981
C18   C     C_1   0.824255 0.494499 0.499044 0.091990
C19   C     C_1   0.046470 0.229935 0.253606 0.423959
N3    N     N_1   0.066148 0.119474 0.151935 -0.130988
C20   C     C_1   0.953529 0.770059 0.746392 0.423930
N4    N     N_1   0.933849 0.880520 0.848063 -0.130960
N5    N     N_R   0.947224 0.231582 0.612280 0.144606
O9    O     O_R   0.003898 0.141752 0.660202 -0.304277
O10   O     O_R   0.867286 0.196374 0.620553 -0.284192
N6    N     N_R   0.052774 0.768413 0.387717 0.144605
O11   O     O_R   0.996099 0.858248 0.339808 -0.304257
O12   O     O_R   0.132712 0.803606 0.379411 -0.284321
C21   C     C_1   0.922287 0.491008 0.147621 0.379466
N7    N     N_1   0.889032 0.487872 0.003787 -0.200645
C22   C     C_1   0.077711 0.508987 0.852378 0.379455
N8    N     N_1   0.110966 0.512122 0.996212 -0.200698
N9    N     N_R   0.422600 0.948783 0.286257 0.132428
O13   O     O_R   0.353269 0.882154 0.323900 -0.300021
O14   O     O_R   0.431017 0.956270 0.117543 -0.238850
N10   N     N_R   0.578006 0.051124 0.713355 0.132592
O15   O     O_R   0.570815 0.041133 0.881635 -0.238704
O16   O     O_R   0.646682 0.119538 0.675337 -0.300204
N11   N     N_R   0.395479 0.414516 0.952956 0.258453
O17   O     O_R   0.335903 0.511701 0.989997 -0.288892
O18   O     O_R   0.374470 0.267210 0.875715 -0.307428
N12   N     N_R   0.604526 0.585459 0.047028 0.258507
O19   O     O_R   0.664086 0.488239 0.010002 -0.288930
O20   O     O_R   0.625557 0.732765 0.124217 -0.306775

loop_
_geom_bond_atom_site_label_1
_geom_bond_atom_site_label_2
_geom_bond_distance
_ccdc_geom_bond_type
O5    C3    1.301126 A    
O7    Cu2   1.923439 S    
O8    Cu1   1.923439 S    
Cu1   N2    2.034324 S    
C16   C18   1.449390 S    
O3    Cu2   1.960104 S    
Cu2   N1    2.034323 S    
C12   C18   1.194155 T    
C21   N7    1.157000 T    
C19   N3    1.156870 T    
C10   C13   1.548570 S    
O6    C4    1.301125 A    
C22   N8    1.156999 T    
C9    C19   1.467925 S    
C6    N10   1.443024 S    
N10   O16   1.301855 A    
C20   N4    1.156871 T    
C8    N6    1.457121 S    
O3    C1    1.296644 A    
C7    C13   1.540137 S    
N9    O13   1.302179 A    
N6    O12   1.300185 A    
C14   C21   1.469042 S    
O7    C3    1.295599 A    
O2    C2    1.292897 A    
C8    C15   1.540627 S    
C10   C16   1.546271 S    
O6    Cu2   1.932011 S    
C8    C14   1.540137 S    
C7    C16   1.540626 S    
O8    C4    1.295600 A    
N10   O15   1.300984 A    
C7    C9    1.539355 S    
N1    N11   1.384031 S    
C9    C14   1.548570 S    
C8    C10   1.539356 S    
C13   C15   1.544958 S    
C15   C17   1.449395 S    
N6    O11   1.300058 A    
O2    Cu2   1.962885 S    
O1    C1    1.292849 A    
C1    C5    1.433977 S    
O1    Cu1   1.962885 S    
C10   C20   1.467925 S    
C9    C15   1.546271 S    
C2    C6    1.434432 S    
C5    C6    1.355306 D    
C4    C12   1.415632 S    
O5    Cu1   1.932011 S    
C13   C22   1.469042 S    
O4    C2    1.296742 A    
N9    O14   1.301502 A    
N1    N2    1.298764 D    
C5    N9    1.442572 S    
N12   O19   1.301402 A    
N2    N12   1.384033 S    
C7    N5    1.457122 S    
N5    O10   1.300165 A    
Cu1   Cu2   2.707243 S    
C11   C17   1.194156 T    
C3    C11   1.415638 S    
N11   O17   1.301409 A    
O4    Cu1   1.960104 S    
C14   C16   1.544957 S    
N12   O20   1.300213 A    
N11   O18   1.300231 A    
N5    O9    1.300056 A    
