data_mof_unit_6965.cif
_audit_creation_date              2012-12-10T17:59:17-0500
_audit_creation_method            fapswitch 2.2
_symmetry_space_group_name_H-M    P1
_symmetry_Int_Tables_number       1
_space_group_crystal_system       triclinic
_cell_length_a                    10.821457
_cell_length_b                    9.511708
_cell_length_c                    10.803322
_cell_angle_alpha                 89.611853
_cell_angle_beta                  91.618109
_cell_angle_gamma                 89.98971
_cell_volume                      1111.52275746

loop_
_atom_site_label
_atom_site_type_symbol
_atom_type_description
_atom_site_fract_x
_atom_site_fract_y
_atom_site_fract_z
_atom_type_partial_charge
C1    C     C_R   0.262216 0.500029 0.503317 0.919515
C2    C     C_3   0.610407 0.534589 0.934365 -0.440296
C3    C     C_R   0.064410 0.372882 0.515964 -0.171567
C4    C     C_R   0.063862 0.627674 0.497342 -0.105570
C5    C     C_R   0.936576 0.372761 0.514445 -0.176289
C6    C     C_R   0.936075 0.627604 0.496086 -0.194655
C7    C     C_R   0.871919 0.500076 0.503724 -0.029123
C8    C     C_R   0.128467 0.500218 0.506044 -0.011737
C9    C     C_R   0.404248 0.074939 0.446495 0.026544
C10   C     C_R   0.404220 0.926405 0.446588 0.022784
C11   C     C_R   0.595064 0.925129 0.555333 -0.016743
C12   C     C_R   0.595025 0.073952 0.555398 -0.023715
C13   C     C_R   0.484357 0.500087 0.260499 0.915682
C14   C     C_R   0.737976 0.499994 0.501077 0.783718
C15   C     C_R   0.494065 0.499056 0.739555 0.803772
C16   C     C_3   0.389865 0.620496 0.063816 0.259195
C17   C     C_3   0.433414 0.349220 0.070719 0.243465
C18   C     C_3   0.389962 0.613475 0.919007 -0.262877
C19   C     C_3   0.450346 0.344071 0.927712 -0.245878
C20   C     C_3   0.607128 0.525733 0.076873 -0.545862
C21   C     C_3   0.472914 0.498481 0.121882 -0.126578
C22   C     C_3   0.481739 0.496151 0.876379 -0.093611
Cu1   Cu    Cu3+1 0.500020 0.640660 0.500000 1.001760
Cu2   Cu    Cu3+1 0.500020 0.359340 0.500000 0.996307
H1    H     H_    0.442175 0.718061 0.087893 0.122878
H2    H     H_    0.503229 0.273798 0.109976 0.113550
H3    H     H_    0.670964 0.868913 0.600194 0.123100
H4    H     H_    0.670873 0.129446 0.600342 0.121549
H5    H     H_    0.432338 0.715230 0.890082 0.144792
H6    H     H_    0.537142 0.282981 0.915213 0.102442
H7    H     H_    0.644944 0.625276 0.116259 0.205790
H8    H     H_    0.670155 0.440113 0.110324 0.198612
H9    H     H_    0.638151 0.642574 0.905944 0.199199
H10   H     H_    0.683120 0.462454 0.900801 0.191610
H11   H     H_    0.112814 0.273379 0.523876 0.165212
H12   H     H_    0.111727 0.727293 0.490296 0.173240
H13   H     H_    0.888663 0.273169 0.521467 0.152410
H14   H     H_    0.887797 0.727183 0.488266 0.154695
H15   H     H_    0.327137 0.130984 0.404041 0.170048
H16   H     H_    0.326774 0.871933 0.404520 0.180667
N1    N     N_R   0.500030 0.852070 0.500030 -0.170806
N2    N     N_R   0.500030 0.147930 0.500030 -0.172574
O1    O     O_R   0.319660 0.618740 0.499990 -0.565209
O2    O     O_R   0.319660 0.381260 0.499990 -0.571977
O3    O     O_R   0.499990 0.618790 0.317690 -0.568465
O4    O     O_R   0.499990 0.381210 0.317690 -0.566489
O5    O     O_R   0.680370 0.618830 0.500010 -0.599566
O6    O     O_R   0.680370 0.381170 0.500010 -0.599781
O7    O     O_R   0.500030 0.618780 0.682310 -0.582927
O8    O     O_R   0.500030 0.381220 0.682310 -0.584856
S1    S     S_3+6 0.241662 0.663686 0.129307 0.037963
O9    O     O_2   0.256470 0.680855 0.266278 -0.332373
O10   O     O_2   0.200620 0.802442 0.074824 -0.250331
O11   O     O_3   0.128784 0.546360 0.101687 -0.428486
H17   H     H_    0.057529 0.580627 0.148556 0.363166
S2    S     S_3+6 0.289195 0.275867 0.126155 0.056201
O12   O     O_2   0.184688 0.288381 0.032322 -0.189814
O13   O     O_2   0.310390 0.122359 0.153108 -0.277577
O14   O     O_3   0.245802 0.353038 0.256846 -0.525164
H18   H     H_    0.167061 0.306527 0.277431 0.360111
C23   C     C_2   0.264725 0.614778 0.851112 0.966042
O15   O     O_2   0.239446 0.711538 0.779551 -0.608407
O16   O     O_R   0.177863 0.509220 0.869420 -0.638654
H19   H     H_    0.099120 0.523774 0.817789 0.337681
C24   C     C_2   0.358386 0.251395 0.856388 1.006522
O17   O     O_2   0.288744 0.299108 0.775706 -0.577758
O18   O     O_R   0.358113 0.106814 0.881090 -0.719305
H20   H     H_    0.295144 0.054149 0.827836 0.354796

loop_
_geom_bond_atom_site_label_1
_geom_bond_atom_site_label_2
_ccdc_geom_bond_type
C2    C22   S    
C14   O6    A    
C11   C12   A    
C6    H14   S    
C18   C23   S    
C19   C24   S    
C14   O5    A    
Cu1   O3    S    
C5    H13   S    
C7    C14   S    
C1    C8    S    
Cu2   N2    S    
C9    C10   A    
C1    O2    A    
C23   O15   D    
Cu1   N1    S    
S2    O14   S    
C3    H11   S    
Cu1   Cu2   S    
S1    O11   S    
Cu2   O4    S    
C2    H10   S    
C4    H12   S    
C13   C21   S    
O14   H18   S    
C18   H5    S    
S2    O12   D    
C10   N1    A    
C13   O3    A    
C17   S2    S    
C9    N2    A    
C6    C7    A    
C12   H4    S    
O18   H20   S    
C17   H2    S    
C2    H9    S    
C16   C18   S    
C17   C19   S    
S2    O13   D    
C11   H3    S    
C11   N1    A    
C16   C21   S    
C5    C7    A    
C15   O7    A    
C3    C8    A    
Cu2   O8    S    
C13   O4    A    
Cu2   O2    S    
Cu1   O7    S    
Cu1   O5    S    
S1    O10   D    
C2    C20   S    
S1    O9    D    
Cu2   O6    S    
C9    H15   S    
C19   C22   S    
Cu1   O1    S    
C20   C21   S    
C4    C6    A    
C24   O17   D    
C20   H8    S    
C15   O8    A    
C16   H1    S    
C23   O16   S    
C10   H16   S    
O11   H17   S    
C16   S1    S    
C12   N2    A    
C4    C8    A    
C18   C22   S    
C19   H6    S    
C24   O18   S    
C1    O1    A    
C15   C22   S    
C17   C21   S    
O16   H19   S    
C3    C5    A    
C20   H7    S    
