data_mof_unit_47086.cif
_audit_creation_date              2012-12-10T17:35:39-0500
_audit_creation_method            fapswitch 2.2
_symmetry_space_group_name_H-M    P1
_symmetry_Int_Tables_number       1
_space_group_crystal_system       triclinic
_cell_length_a                    10.722015
_cell_length_b                    12.362829
_cell_length_c                    13.139839
_cell_angle_alpha                 116.650354
_cell_angle_beta                  76.654824
_cell_angle_gamma                 100.384715
_cell_volume                      1508.75975071

loop_
_atom_site_label
_atom_site_type_symbol
_atom_type_description
_atom_site_fract_x
_atom_site_fract_y
_atom_site_fract_z
_atom_type_partial_charge
C1    C     C_R   0.510011 0.855091 0.286424 0.758233
C2    C     C_3   0.122412 0.006954 0.506316 0.119514
C3    C     C_3   0.039187 0.972795 0.603883 -0.510820
C4    C     C_3   0.084007 0.914239 0.387293 -0.014204
C5    C     C_R   0.345510 0.273972 0.033233 0.004856
C6    C     C_R   0.457611 0.228207 0.837063 -0.101200
C7    C     C_R   0.579669 0.813089 0.079873 -0.178490
C8    C     C_R   0.600789 0.733333 0.963798 -0.126504
C9    C     C_R   0.560601 0.610542 0.929028 -0.195170
C10   C     C_R   0.492396 0.565319 0.010222 0.088153
C11   C     C_R   0.456735 0.650163 0.126073 0.090305
C12   C     C_R   0.738552 0.003471 0.506012 0.772297
C13   C     C_R   0.456855 0.439142 0.979973 0.073355
C14   C     C_R   0.376961 0.400242 0.062606 0.062636
C15   C     C_R   0.326355 0.488802 0.170291 -0.253808
C16   C     C_R   0.364353 0.611053 0.200772 -0.184567
C17   C     C_R   0.499658 0.350585 0.869678 -0.262220
C18   C     C_R   0.383882 0.189622 0.919173 -0.167455
C19   C     C_R   0.511721 0.772545 0.162811 -0.119531
C20   C     C_R   0.632721 0.310253 0.285540 -0.274400
C21   C     C_R   0.344129 0.773911 0.662534 0.103582
C22   C     C_R   0.311252 0.684268 0.703298 -0.243822
C23   C     C_R   0.481566 0.144984 0.713949 0.796067
C24   C     C_R   0.361481 0.571819 0.639990 -0.186891
C25   C     C_R   0.443189 0.546768 0.533239 -0.027794
C26   C     C_R   0.475428 0.641565 0.494198 0.253512
C27   C     C_R   0.499663 0.433251 0.464884 -0.039089
C28   C     C_R   0.560046 0.409049 0.350410 0.068572
C29   C     C_R   0.563761 0.493017 0.306641 -0.260876
C30   C     C_R   0.557975 0.613851 0.385478 0.202686
C31   C     C_R   0.502633 0.343778 0.504170 -0.010259
C32   C     C_R   0.646167 0.233638 0.332936 0.396104
C33   C     C_R   0.260116 0.003977 0.504723 0.773196
C34   C     C_3   0.946594 0.139532 0.542063 0.026647
C35   C     C_3   0.092341 0.136838 0.534566 -0.368916
C36   C     C_3   0.895588 0.954893 0.594537 -0.124832
C37   C     C_3   0.942651 0.925640 0.387692 -0.478763
C38   C     C_3   0.876388 0.007624 0.511276 0.051031
Cu1   Cu    Cu3+1 0.529690 0.098270 0.475420 0.925571
Cu2   Cu    Cu3+1 0.470310 0.901730 0.524580 0.946402
H1    H     H_    0.090775 0.821113 0.377770 0.156845
H2    H     H_    0.870801 0.855100 0.553220 0.161822
H3    H     H_    0.066286 0.886978 0.597683 0.182394
H4    H     H_    0.354982 0.093680 0.893744 0.188728
H5    H     H_    0.255476 0.465618 0.232169 0.132388
H6    H     H_    0.565235 0.374413 0.805949 0.153851
H7    H     H_    0.618599 0.906346 0.104720 0.160957
H8    H     H_    0.581562 0.554522 0.837548 0.132253
H9    H     H_    0.652327 0.766248 0.900510 0.172317
H10   H     H_    0.937237 0.167547 0.474648 0.175203
H11   H     H_    0.317171 0.674550 0.282876 0.168530
H12   H     H_    0.613924 0.473144 0.219084 0.162545
H13   H     H_    0.686262 0.297155 0.200509 0.144908
H14   H     H_    0.448051 0.350276 0.586336 0.126995
H15   H     H_    0.304307 0.860624 0.713210 0.127066
H16   H     H_    0.332827 0.504829 0.674461 0.135566
H17   H     H_    0.246723 0.702312 0.784674 0.152837
H18   H     H_    0.147275 0.166594 0.467348 0.167255
H19   H     H_    0.125803 0.202695 0.616651 0.162126
H20   H     H_    0.057049 0.045265 0.689646 0.163877
H21   H     H_    0.892822 0.833154 0.355176 0.153452
H22   H     H_    0.936192 0.963651 0.326730 0.186968
N1    N     N_R   0.574690 0.246280 0.438200 -0.180125
N2    N     N_R   0.426100 0.754320 0.561190 -0.197367
O1    O     O_R   0.537340 0.972510 0.318130 -0.573497
O2    O     O_R   0.487200 0.806530 0.359650 -0.583012
O3    O     O_R   0.707380 0.082980 0.479220 -0.596764
O4    O     O_R   0.657240 0.917000 0.520740 -0.555504
O5    O     O_R   0.512800 0.193470 0.640350 -0.595756
O6    O     O_R   0.462660 0.027490 0.681870 -0.570809
O7    O     O_R   0.342760 0.083000 0.479260 -0.579835
O8    O     O_R   0.292620 0.917020 0.520780 -0.606120
C39   C     C_3   0.889325 0.239191 0.658389 -0.890980
H23   H     H_    0.925273 0.240965 0.731723 0.225353
H24   H     H_    0.919301 0.329528 0.657254 0.235406
H25   H     H_    0.782673 0.227959 0.674628 0.241346
C40   C     C_2   0.275097 0.227408 0.119470 0.330683
H26   H     H_    0.268715 0.283859 0.211367 0.067821
O9    O     O_2   0.225249 0.123233 0.088573 -0.561159
C41   C     C_3   0.743843 0.142283 0.264595 -0.822655
H27   H     H_    0.745145 0.076497 0.298649 0.267369
H28   H     H_    0.726712 0.091375 0.174245 0.202258
H29   H     H_    0.841336 0.191258 0.262659 0.203613
C42   C     C_3   0.687602 0.682643 0.377207 -0.776222
H30   H     H_    0.689432 0.744624 0.337201 0.240304
H31   H     H_    0.717025 0.725940 0.462980 0.238036
H32   H     H_    0.765511 0.622327 0.321584 0.183346
C43   C     C_2   0.810839 0.001675 0.712294 0.364535
H33   H     H_    0.827437 0.093170 0.776863 0.075196
O10   O     O_2   0.723493 0.934810 0.737339 -0.543696
C44   C     C_3   0.172137 0.925357 0.280988 -0.817497
H34   H     H_    0.137962 0.855820 0.200867 0.238812
H35   H     H_    0.172339 0.016216 0.283369 0.259947
H36   H     H_    0.272028 0.908515 0.275280 0.224982

loop_
_geom_bond_atom_site_label_1
_geom_bond_atom_site_label_2
_ccdc_geom_bond_type
C2    C35   S    
Cu1   O1    S    
C39   H23   S    
C23   O5    A    
C36   H2    S    
C16   H11   S    
C22   H17   S    
C37   H22   S    
C7    C8    A    
C40   H26   S    
C36   C43   S    
C12   O4    A    
C11   C19   A    
C29   C30   A    
Cu2   O6    S    
C35   H18   S    
C28   C29   A    
C42   H31   S    
C32   C41   S    
C4    H1    S    
C15   C16   A    
C35   H19   S    
C34   C35   S    
C26   N2    A    
C21   N2    A    
C33   O8    A    
C42   H30   S    
C8    C9    A    
C1    O1    A    
C42   H32   S    
C9    C10   A    
C4    C44   S    
C3    H20   S    
Cu2   O2    S    
C21   C22   A    
C12   C38   S    
C39   H24   S    
C23   O6    A    
C41   H29   S    
C4    C37   S    
C40   O9    D    
C6    C18   A    
C12   O3    A    
C34   H10   S    
C1    C19   S    
C27   C31   A    
C31   N1    A    
C17   H6    S    
C41   H28   S    
Cu1   Cu2   S    
C21   H15   S    
C41   H27   S    
C5    C18   A    
C20   C28   A    
C25   C26   A    
C7    H7    S    
C2    C4    S    
C37   C38   S    
C18   H4    S    
C44   H35   S    
C11   C16   A    
C3    H3    S    
C1    O2    A    
Cu1   O5    S    
C24   C25   A    
C5    C14   A    
C2    C33   S    
C43   O10   D    
C26   C30   A    
C7    C19   A    
C39   H25   S    
C22   C24   A    
C25   C27   A    
C15   H5    S    
C5    C40   S    
C44   H34   S    
C20   C32   A    
C6    C17   A    
Cu2   O8    S    
C34   C38   S    
Cu1   O3    S    
C32   N1    A    
C20   H13   S    
C10   C13   A    
C37   H21   S    
C24   H16   S    
Cu1   N1    S    
Cu2   N2    S    
C13   C17   A    
C36   C38   S    
C2    C3    S    
C44   H36   S    
C3    C36   S    
C6    C23   S    
C31   H14   S    
C30   C42   S    
C10   C11   A    
C33   O7    A    
C34   C39   S    
C43   H33   S    
C9    H8    S    
Cu2   O4    S    
C27   C28   A    
Cu1   O7    S    
C14   C15   A    
C13   C14   A    
C8    H9    S    
C29   H12   S    
