data_mof_unit_31719.cif
_audit_creation_date              2013-03-05T15:47:05-0500
_audit_creation_method            fapswitch 2.2
_symmetry_space_group_name_H-M    P1
_symmetry_Int_Tables_number       1
_space_group_crystal_system       triclinic
_cell_length_a                    23.391446
_cell_length_b                    11.016187
_cell_length_c                    9.85993
_cell_angle_alpha                 111.607125
_cell_angle_beta                  97.733459
_cell_angle_gamma                 90.272247
_cell_volume                      2336.66000752

loop_
_atom_site_label
_atom_site_type_symbol
_atom_site_description
_atom_site_fract_x
_atom_site_fract_y
_atom_site_fract_z
_atom_type_partial_charge
O1    O     O_R   0.505330 0.332340 0.577400 -0.573243
O2    O     O_R   0.494670 0.667660 0.422600 -0.562400
O3    O     O_R   0.488470 0.295500 0.332650 -0.540886
O4    O     O_R   0.511530 0.704500 0.667350 -0.553193
C1    C     C_R   0.495615 0.254007 0.440397 0.881301
C2    C     C_R   0.504005 0.746003 0.559650 0.871702
O5    O     O_R   0.426310 0.518390 0.622390 -0.513515
O6    O     O_R   0.573690 0.481610 0.377610 -0.510188
O7    O     O_R   0.409450 0.481550 0.377650 -0.561298
O8    O     O_R   0.590550 0.518450 0.622350 -0.583514
C3    C     C_R   0.391322 0.503144 0.502558 0.888507
C4    C     C_R   0.609033 0.499188 0.498623 0.906730
Cu1   Cu    Cu3+1 0.509980 0.521810 0.644910 1.089019
Cu2   Cu    Cu3+1 0.490020 0.478190 0.355090 1.109448
C5    C     C_R   0.886004 0.649960 0.608230 0.674965
C6    C     C_R   0.113078 0.475910 0.377931 0.716550
N1    N     N_R   0.851345 0.546910 0.505916 -0.437687
N2    N     N_R   0.148678 0.547903 0.504817 -0.430243
C7    C     C_R   0.871599 0.482012 0.374345 0.652466
C8    C     C_R   0.127221 0.629516 0.626662 0.716715
C9    C     C_R   0.931743 0.481358 0.367335 -0.129437
C10   C     C_R   0.067171 0.644926 0.622509 -0.140095
C11   C     C_R   0.969329 0.563134 0.492978 -0.038297
C12   C     C_R   0.029882 0.562410 0.496057 -0.039314
C13   C     C_R   0.946053 0.651085 0.612644 -0.063703
C14   C     C_R   0.052972 0.479664 0.372084 -0.071198
C15   C     C_R   0.955736 0.403013 0.240852 0.329735
C16   C     C_R   0.042863 0.737452 0.739982 0.321932
C17   C     C_R   0.015719 0.403360 0.244689 -0.158817
C18   C     C_R   0.982774 0.739294 0.733347 -0.152955
O9    O     O_2   0.863035 0.755025 0.699568 -0.451430
O10   O     O_2   0.135951 0.401114 0.257935 -0.452731
O11   O     O_2   0.833860 0.423487 0.250347 -0.413217
O12   O     O_2   0.164026 0.692308 0.751545 -0.405264
H1    H     H_    0.033030 0.340614 0.147813 0.225481
H2    H     H_    0.964864 0.809987 0.824196 0.228076
C19   C     C_R   0.243849 0.641178 0.496127 0.307874
C20   C     C_R   0.761396 0.394979 0.435908 0.331158
C21   C     C_R   0.304188 0.631911 0.501685 0.228993
C22   C     C_R   0.700115 0.391735 0.414876 0.243164
C23   C     C_R   0.329629 0.518704 0.509488 -0.218656
C24   C     C_R   0.672166 0.500664 0.501543 -0.228525
C25   C     C_R   0.296268 0.420119 0.523781 -0.254808
C26   C     C_R   0.705337 0.598884 0.620542 -0.306182
H3    H     H_    0.316776 0.334717 0.532329 0.210163
H4    H     H_    0.684061 0.668133 0.705503 0.214151
C27   C     C_R   0.236931 0.430491 0.526610 0.428333
C28   C     C_R   0.765214 0.595112 0.645418 0.438353
C29   C     C_R   0.210170 0.539763 0.509129 0.049837
C30   C     C_R   0.793094 0.513720 0.528506 0.044117
H5    H     H_    0.490191 0.863685 0.369116 0.217796
H6    H     H_    0.506881 0.136318 0.631078 0.216551
C31   C     C_2   0.493046 0.114156 0.406811 -0.243205
C32   C     C_2   0.505780 0.885853 0.593296 -0.248626
C33   C     C_2   0.499734 0.069690 0.516309 -0.120224
C34   C     C_2   0.497877 0.930320 0.483863 -0.084438
H7    H     H_    0.513524 0.952788 0.707861 0.180247
H8    H     H_    0.485834 0.047217 0.292217 0.182799
N3    N     N_2   0.475010 0.445410 0.137370 -0.293215
N4    N     N_2   0.524990 0.554590 0.862630 -0.296432
C35   C     C_2   0.510148 0.469814 0.057263 0.346059
C36   C     C_2   0.489506 0.530342 0.942090 0.357069
H9    H     H_    0.567759 0.542026 0.891198 0.253166
H10   H     H_    0.432366 0.460276 0.111015 0.258212
N5    N     N_R   0.920596 0.318237 0.109160 0.177250
O13   O     O_R   0.898471 0.208393 0.105475 -0.232039
O14   O     O_R   0.922547 0.334748 0.985812 -0.271533
N6    N     N_R   0.077800 0.835281 0.862668 0.174616
O15   O     O_R   0.111246 0.918191 0.839488 -0.225432
O16   O     O_R   0.067068 0.859322 0.995946 -0.273249
S1    S     S_3+6 0.211041 0.779139 0.471968 0.132939
O17   O     O_2   0.210669 0.884247 0.621407 -0.168845
O18   O     O_2   0.244748 0.830786 0.383203 -0.162090
O19   O     O_3   0.142788 0.740904 0.384270 -0.531018
H11   H     H_    0.125775 0.825976 0.397536 0.399678
S2    S     S_3+6 0.795982 0.244389 0.396039 0.134908
O20   O     O_2   0.857039 0.266540 0.474734 -0.241356
O21   O     O_2   0.762993 0.155999 0.447370 -0.213435
O22   O     O_3   0.796229 0.170597 0.213504 -0.384890
H12   H     H_    0.809906 0.082434 0.199656 0.404762
N7    N     N_R   0.340126 0.739678 0.506717 0.149061
O23   O     O_R   0.367448 0.729566 0.397038 -0.316663
O24   O     O_R   0.345107 0.848835 0.620805 -0.255262
N8    N     N_R   0.667179 0.273707 0.319593 0.191312
O25   O     O_R   0.679899 0.209865 0.188402 -0.208207
O26   O     O_R   0.627611 0.223711 0.367833 -0.337330
S3    S     S_3+6 0.197119 0.304260 0.550154 0.097192
O27   O     O_2   0.167624 0.213248 0.402012 -0.211688
O28   O     O_2   0.236916 0.228501 0.617935 -0.189548
O29   O     O_3   0.147060 0.367658 0.660193 -0.509515
H13   H     H_    0.122326 0.291463 0.652381 0.395925
S4    S     S_3+6 0.794644 0.628690 0.832260 0.101916
O30   O     O_2   0.798709 0.773879 0.917450 -0.206326
O31   O     O_2   0.754964 0.565368 0.898206 -0.221555
O32   O     O_3   0.860272 0.568486 0.844862 -0.478175
H14   H     H_    0.873248 0.593971 0.951991 0.396855
S5    S     S_3+6 0.422263 0.604935 0.946856 0.032748
O33   O     O_2   0.422416 0.706081 0.877988 -0.227561
O34   O     O_2   0.374312 0.502242 0.865503 -0.271128
O35   O     O_3   0.411033 0.680439 0.122530 -0.536269
H15   H     H_    0.373999 0.722590 0.115841 0.417882
S6    S     S_3+6 0.575449 0.388662 0.046213 0.042272
O36   O     O_2   0.625163 0.484531 0.133674 -0.266799
O37   O     O_2   0.570920 0.282695 0.106498 -0.199982
O38   O     O_3   0.586737 0.318901 0.869628 -0.562128
H16   H     H_    0.623676 0.275938 0.873893 0.408972

loop_
_geom_bond_atom_site_label_1
_geom_bond_atom_site_label_2
_geom_bond_distance
_ccdc_geom_bond_type
C33   C34   1.447528 S    
C15   C17   1.398464 A    
C22   N8    1.436243 S    
O32   H14   0.990548 S    
S2    O22   1.680888 S    
S3    O27   1.502808 D    
N7    O23   1.299350 A    
C27   C29   1.414760 A    
Cu1   N4    2.021644 S    
C20   S2    1.783010 S    
O5    C3    1.298594 A    
Cu2   N3    2.021643 S    
N3    H10   1.025911 S    
N4    H9    1.026428 S    
O1    C1    1.295406 A    
C1    C31   1.450808 S    
C7    C9    1.417731 A    
S2    O21   1.503562 D    
C5    C13   1.399290 A    
S6    O38   1.682856 S    
N4    C36   1.304291 D    
H5    C34   1.087919 S    
O4    Cu1   1.941601 S    
S4    O30   1.503457 D    
C4    C24   1.473076 S    
S5    O34   1.502926 D    
N6    O15   1.301374 A    
N5    O14   1.300799 A    
C11   C12   1.412779 A    
H6    C33   1.087864 S    
C8    O12   1.348191 S    
C28   C30   1.415874 A    
C9    C15   1.419657 A    
C10   C16   1.420248 A    
Cu1   Cu2   2.691152 S    
C23   C25   1.393753 A    
O2    C2    1.295539 A    
C24   C26   1.400528 A    
C2    C32   1.450708 S    
N7    O24   1.300821 A    
C26   H4    1.084683 S    
S5    O33   1.503492 D    
C31   C33   1.332222 D    
C6    C14   1.400803 A    
C19   C21   1.410727 A    
C32   C34   1.332228 D    
N3    C35   1.304119 D    
O19   H11   0.990471 S    
S6    O36   1.503008 D    
N8    O25   1.300752 A    
C21   N7    1.433336 S    
O4    C2    1.294494 A    
C7    O11   1.346602 S    
S1    O18   1.503189 D    
S4    O32   1.682551 S    
C27   S3    1.771575 S    
O7    Cu2   1.926179 S    
C15   N5    1.430463 S    
C36   S5    1.776303 S    
C19   C29   1.417581 A    
O6    C4    1.306709 A    
S4    O31   1.503729 D    
S2    O20   1.503454 D    
S6    O37   1.501355 D    
O7    C3    1.295744 A    
O3    Cu2   1.941601 S    
O8    C4    1.293201 A    
C6    N2    1.367560 A    
C8    C10   1.412600 A    
C9    C11   1.413025 A    
C10   C12   1.416591 A    
O1    Cu1   1.940771 S    
S5    O35   1.680648 S    
C13   C18   1.401314 A    
C5    N1    1.375287 A    
O6    Cu2   1.938398 S    
C16   N6    1.434589 S    
C12   C14   1.406620 A    
C22   C24   1.414273 A    
O3    C1    1.294637 A    
O8    Cu1   1.926184 S    
N1    C30   1.475408 S    
S1    O19   1.681627 S    
C31   H8    1.087555 S    
C5    O9    1.344545 S    
C20   C30   1.422469 A    
C6    O10   1.349658 S    
O38   H16   0.990524 S    
C17   H1    1.083804 S    
C18   H2    1.083838 S    
C19   S1    1.784384 S    
C35   S6    1.769267 S    
S1    O17   1.502958 D    
C25   H3    1.083582 S    
C20   C22   1.418857 A    
O29   H13   0.990454 S    
C16   C18   1.398874 A    
O35   H15   0.990658 S    
N1    C7    1.379898 A    
C3    C23   1.461778 S    
N2    C8    1.369175 A    
C11   C13   1.401175 A    
C35   C36   1.542878 S    
O2    Cu2   1.940772 S    
O22   H12   0.990605 S    
O5    Cu1   1.938398 S    
C21   C23   1.407385 A    
C14   C17   1.401629 A    
N6    O16   1.301210 A    
N5    O13   1.300002 A    
C28   S4    1.777364 S    
S3    O29   1.681574 S    
S3    O28   1.503485 D    
N8    O26   1.301061 A    
C25   C27   1.396399 A    
C26   C28   1.392562 A    
N2    C29   1.437490 S    
C32   H7    1.087547 S    
