data_mof_unit_50359.cif
_audit_creation_date              2012-12-11T14:57:59-0500
_audit_creation_method            fapswitch 2.2
_symmetry_space_group_name_H-M    P1
_symmetry_Int_Tables_number       1
_space_group_crystal_system       triclinic
_cell_length_a                    6.936629
_cell_length_b                    16.734669
_cell_length_c                    17.072483
_cell_angle_alpha                 100.268685
_cell_angle_beta                  90.104883
_cell_angle_gamma                 90.462418
_cell_volume                      1949.99351408

loop_
_atom_site_label
_atom_site_type_symbol
_atom_type_description
_atom_site_fract_x
_atom_site_fract_y
_atom_site_fract_z
_atom_type_partial_charge
O1    O     O_R   0.506180 0.438940 0.579430 -0.537054
O2    O     O_R   0.170520 0.406230 0.413590 -0.539674
O3    O     O_R   0.005180 0.561060 0.420570 -0.539970
C1    C     C_R   0.339727 0.385679 0.382851 0.711048
O4    O     O_R   0.176140 0.429310 0.578370 -0.541215
O5    O     O_R   0.010830 0.584300 0.586530 -0.534586
C2    C     C_R   0.346128 0.413959 0.605409 0.699745
O6    O     O_R   0.500520 0.415700 0.413470 -0.535491
O7    O     O_3   0.340830 0.550820 0.502480 -0.366328
V1    V     V_3+5 0.064040 0.490570 0.499540 1.417767
O8    O     O_R   0.681400 0.593770 0.586410 -0.538482
C3    C     C_R   0.851481 0.618460 0.612553 0.699707
O9    O     O_R   0.675790 0.570690 0.421630 -0.542065
C4    C     C_R   0.845709 0.586984 0.395279 0.683090
V2    V     V_3+5 0.564650 0.509430 0.500460 1.415665
O10   O     O_3   0.837730 0.449180 0.497520 -0.365659
C5    C     C_R   0.900900 0.868306 0.172587 -0.055631
C6    C     C_R   0.865991 0.638312 0.332807 -0.061222
C7    C     C_R   0.054461 0.670019 0.221227 -0.186706
C8    C     C_R   0.005507 0.617417 0.273218 -0.161758
C9    C     C_R   0.765692 0.711606 0.336103 -0.241571
C10   C     C_R   0.811368 0.764479 0.282507 0.155445
C11   C     C_R   0.960461 0.744404 0.225921 0.154188
C12   C     C_R   0.008992 0.797732 0.173361 -0.249413
C13   C     C_R   0.753352 0.887564 0.229229 -0.154826
C14   C     C_R   0.711105 0.837150 0.284324 -0.189650
H1    H     H_    0.122442 0.781733 0.129972 0.124969
H2    H     H_    0.668563 0.941683 0.230202 0.115574
H3    H     H_    0.165326 0.652201 0.177059 0.116647
H4    H     H_    0.596512 0.854035 0.326972 0.115209
H5    H     H_    0.077520 0.559827 0.267073 0.127306
H6    H     H_    0.657134 0.728483 0.381502 0.117592
H7    H     H_    0.882620 0.596513 0.966196 0.114338
C15   C     C_R   0.891868 0.911082 0.729496 -0.141291
C16   C     C_R   0.880136 0.929894 0.653349 -0.125192
C17   C     C_R   0.862542 0.868296 0.587398 -0.115140
C18   C     C_R   0.856827 0.787461 0.597153 -0.134387
C19   C     C_R   0.868729 0.766557 0.673786 0.064577
C20   C     C_R   0.886701 0.829382 0.741607 0.066117
C21   C     C_R   0.865007 0.684483 0.683115 -0.169828
C22   C     C_R   0.878332 0.664337 0.759895 0.043590
C23   C     C_R   0.886527 0.726441 0.829556 0.052374
C24   C     C_R   0.897536 0.810369 0.819628 -0.177520
C25   C     C_R   0.881298 0.581496 0.767698 -0.147846
C26   C     C_R   0.886189 0.558571 0.841396 -0.177518
C27   C     C_R   0.883530 0.616939 0.909413 -0.092831
C28   C     C_R   0.880534 0.700052 0.905335 0.154586
H8    H     H_    0.904266 0.961564 0.778557 0.099822
H9    H     H_    0.884463 0.992692 0.645554 0.110985
H10   H     H_    0.853314 0.883168 0.528334 0.113387
H11   H     H_    0.843266 0.741623 0.543973 0.087111
H12   H     H_    0.879643 0.532766 0.716716 0.111656
H13   H     H_    0.888441 0.494822 0.845802 0.120998
C29   C     C_R   0.342298 0.219926 0.404214 -0.130624
C30   C     C_R   0.349963 0.140495 0.418230 -0.121723
C31   C     C_R   0.377686 0.076450 0.355444 -0.118402
C32   C     C_R   0.397926 0.091394 0.278202 -0.144388
C33   C     C_R   0.391633 0.171394 0.262079 0.066643
C34   C     C_R   0.362607 0.237278 0.326282 0.066214
C35   C     C_R   0.410427 0.185757 0.183276 -0.173114
C36   C     C_R   0.393640 0.265992 0.168209 0.045780
C37   C     C_R   0.380479 0.334000 0.232467 0.051736
C38   C     C_R   0.357074 0.318628 0.312418 -0.177557
C39   C     C_R   0.389768 0.279160 0.088681 -0.133641
C40   C     C_R   0.376950 0.356580 0.071338 -0.168311
C41   C     C_R   0.380712 0.423244 0.132153 -0.102673
C42   C     C_R   0.391646 0.413963 0.212207 0.126444
H14   H     H_    0.320340 0.267320 0.455361 0.093804
H15   H     H_    0.334111 0.128634 0.478206 0.113616
H16   H     H_    0.383107 0.014798 0.366562 0.111331
H17   H     H_    0.417405 0.039517 0.231226 0.090819
H18   H     H_    0.394645 0.229565 0.038522 0.100077
H19   H     H_    0.372158 0.365096 0.009950 0.124652
C43   C     C_R   0.398052 0.136254 0.831500 -0.064243
C44   C     C_R   0.367435 0.364046 0.668843 -0.064477
C45   C     C_R   0.559255 0.333608 0.780193 -0.190997
C46   C     C_R   0.515124 0.384285 0.725884 -0.153248
C47   C     C_R   0.261496 0.291959 0.668078 -0.246346
C48   C     C_R   0.307137 0.239839 0.722085 0.157496
C49   C     C_R   0.458020 0.260582 0.778410 0.156655
C50   C     C_R   0.503765 0.208421 0.832370 -0.247407
C51   C     C_R   0.250261 0.116062 0.774494 -0.152524
C52   C     C_R   0.205930 0.166808 0.720280 -0.191334
H20   H     H_    0.615618 0.225448 0.876782 0.119045
H21   H     H_    0.166363 0.060949 0.772661 0.119069
H22   H     H_    0.674545 0.351088 0.822878 0.114897
H23   H     H_    0.090619 0.149325 0.677600 0.114673
H24   H     H_    0.149656 0.274918 0.623663 0.116962
O11   O     O_R   0.265840 0.084300 0.086750 -0.535589
O12   O     O_R   0.589750 0.070740 0.921690 -0.539973
O13   O     O_R   0.755020 0.915730 0.913400 -0.535791
C53   C     C_R   0.419664 0.086171 0.894783 0.696617
O14   O     O_R   0.595830 0.093740 0.086480 -0.537947
O15   O     O_R   0.761150 0.938890 0.079360 -0.540032
C54   C     C_R   0.426650 0.115948 0.115561 0.697503
O16   O     O_R   0.259710 0.061140 0.920790 -0.537782
O17   O     O_3   0.425260 0.949200 0.997610 -0.369185
V3    V     V_3+5 0.702060 0.009430 0.000450 1.417581
O18   O     O_R   0.090530 0.929220 0.078150 -0.543261
C55   C     C_R   0.921311 0.917284 0.108036 0.698354
O19   O     O_R   0.084440 0.906220 0.913360 -0.538819
C56   C     C_R   0.913722 0.879904 0.888154 0.717012
V4    V     V_3+5 0.201450 0.990520 0.999290 1.418022
O20   O     O_3   0.928380 0.050800 0.002390 -0.365304
C57   C     C_3   0.864919 0.756060 0.983560 -0.800409
H25   H     H_    0.844507 0.722813 0.033727 0.199173
H26   H     H_    0.001029 0.790997 0.994626 0.203878
H27   H     H_    0.736555 0.794998 0.983762 0.221722
H28   H     H_    0.383218 0.483016 0.116027 0.112768
C58   C     C_3   0.444099 0.489746 0.270315 -0.751141
H29   H     H_    0.461866 0.543628 0.241113 0.189226
H30   H     H_    0.333055 0.506032 0.316512 0.202047
H31   H     H_    0.585770 0.479797 0.296569 0.219632
H32   H     H_    0.599133 0.439359 0.727628 0.122151

loop_
_geom_bond_atom_site_label_1
_geom_bond_atom_site_label_2
_ccdc_geom_bond_type
C52   H23   S    
C30   C31   A    
O11   C54   A    
O19   C56   A    
C6    C9    A    
C22   C23   A    
C4    C6    S    
O18   V4    S    
C7    C8    A    
C12   H1    S    
C1    O6    A    
O17   V3    S    
C26   C27   A    
C13   H2    S    
C57   H26   S    
C1    C38   S    
C18   C19   A    
C37   C42   A    
C17   C18   A    
C41   H28   S    
O5    C3    A    
C19   C20   A    
C18   H11   S    
C29   H14   S    
O15   V3    S    
C33   C35   A    
V2    O10   S    
C53   O16   A    
C40   H19   S    
C31   C32   A    
C15   C16   A    
C43   C53   S    
C58   H29   S    
C29   C30   A    
O8    V2    S    
C16   C17   A    
C28   C57   S    
C16   H9    S    
C11   C12   A    
O1    V2    S    
O7    V1    S    
C25   H12   S    
C41   C42   A    
C26   H13   S    
O19   V4    S    
O9    C4    A    
O11   V4    S    
H7    C27   S    
C43   C51   A    
C44   C47   A    
C9    H6    S    
C29   C34   A    
C57   H27   S    
C5    C12   A    
C15   C20   A    
C45   C46   A    
O4    C2    A    
C47   C48   A    
C2    C44   S    
C33   C34   A    
C51   C52   A    
C35   C36   A    
C3    C21   S    
C36   C39   A    
O2    C1    A    
C37   C38   A    
C42   C58   S    
O12   C53   A    
O18   C55   A    
O15   C55   A    
C30   H15   S    
C32   H17   S    
C44   C46   A    
C58   H31   S    
O17   V4    S    
O3    C4    A    
C21   C22   A    
C14   H4    S    
O6    V2    S    
C31   H16   S    
O9    V2    S    
C22   C25   A    
C15   H8    S    
C23   C24   A    
C43   C50   A    
C46   H32   S    
O2    V1    S    
C45   H22   S    
C50   H20   S    
C17   H10   S    
C25   C26   A    
C7    C11   A    
C47   H24   S    
C27   C28   A    
O1    C2    A    
C45   C49   A    
C49   C50   A    
O5    V1    S    
C20   C24   A    
O8    C3    A    
C51   H21   S    
C57   H25   S    
C34   C38   A    
C5    C13   A    
C39   C40   A    
C13   C14   A    
C24   C56   S    
O4    V1    S    
O3    V1    S    
V1    O10   S    
C19   C21   A    
C32   C33   A    
V3    O20   S    
C6    C8    A    
C23   C28   A    
C39   H18   S    
O13   V3    S    
O7    V2    S    
C36   C37   A    
C5    C55   S    
C58   H30   S    
C48   C49   A    
C48   C52   A    
C35   C54   S    
O14   C54   A    
C40   C41   A    
C10   C14   A    
O16   V4    S    
V4    O20   S    
C10   C11   A    
O13   C56   A    
C9    C10   A    
O14   V3    S    
O12   V3    S    
C8    H5    S    
C7    H3    S    
