data_mof_unit_30939.cif
_audit_creation_date              2012-10-26T20:57:18-0400
_audit_creation_method            fapswitch 2.2
_symmetry_space_group_name_H-M    P1
_symmetry_Int_Tables_number       1
_space_group_crystal_system       triclinic
_cell_length_a                    14.733211
_cell_length_b                    14.588198
_cell_length_c                    15.858612
_cell_angle_alpha                 75.699428
_cell_angle_beta                  103.679157
_cell_angle_gamma                 114.996176
_cell_volume                      2959.46583013

loop_
_atom_site_label
_atom_site_type_symbol
_atom_type_description
_atom_site_fract_x
_atom_site_fract_y
_atom_site_fract_z
_atom_type_partial_charge
C1    C     C_R   0.880506 0.311701 0.519683 0.543613
C2    C     C_R   0.359829 0.926256 0.483899 0.013953
C3    C     C_R   0.672380 0.000745 0.580902 0.028601
C4    C     C_R   0.323754 0.006406 0.459914 0.028543
C5    C     C_R   0.535347 0.052015 0.493089 0.037045
C6    C     C_R   0.465334 0.948976 0.508637 0.036976
C7    C     C_R   0.501964 0.873013 0.556979 -0.143633
C8    C     C_R   0.497542 0.130213 0.459402 -0.144057
C9    C     C_R   0.602659 0.899047 0.594686 -0.136748
C10   C     C_R   0.394301 0.108115 0.446327 -0.137349
C11   C     C_R   0.697885 0.641800 0.332111 -0.042923
C12   C     C_R   0.119528 0.689012 0.486808 0.540766
C13   C     C_R   0.296972 0.347479 0.660559 -0.043570
C14   C     C_R   0.784878 0.619529 0.363621 0.050697
C15   C     C_R   0.210799 0.371180 0.631338 0.029159
C16   C     C_R   0.001261 0.501365 0.660076 0.544716
C17   C     C_R   0.999569 0.500158 0.339651 0.551450
C18   C     C_R   0.720794 0.519496 0.494662 0.027157
C19   C     C_R   0.282756 0.487484 0.508544 0.025981
C20   C     C_R   0.630602 0.539568 0.468291 -0.013852
C21   C     C_R   0.374197 0.469436 0.535370 -0.008233
C22   C     C_R   0.622516 0.606081 0.387378 0.025368
C23   C     C_R   0.770798 0.031228 0.630104 -0.017875
C24   C     C_R   0.379833 0.397757 0.613116 0.034979
C25   C     C_R   0.547860 0.494664 0.518320 0.023825
C26   C     C_R   0.459657 0.519390 0.488159 0.025639
C27   C     C_R   0.460635 0.594201 0.412495 -0.146660
C28   C     C_R   0.549988 0.424919 0.597064 -0.150115
C29   C     C_R   0.540275 0.636851 0.364039 -0.138595
C30   C     C_R   0.468826 0.378744 0.643367 -0.131141
C31   C     C_3   0.991068 0.411013 0.047026 -0.115007
C32   C     C_3   0.006327 0.595572 0.950085 -0.120206
C33   C     C_3   0.914438 0.429869 0.965538 -0.114077
C34   C     C_R   0.218765 0.983073 0.454235 -0.021223
C35   C     C_3   0.083090 0.576821 0.031436 -0.110300
C36   C     C_1   0.003610 0.503440 0.749656 -0.048511
C37   C     C_1   0.998041 0.500702 0.249457 -0.048696
C38   C     C_3   0.079411 0.485382 0.996391 0.023625
C39   C     C_3   0.917697 0.521232 0.000498 0.027422
C40   C     C_3   0.003517 0.504034 0.916514 0.027434
C41   C     C_3   0.993846 0.502691 0.080805 0.038546
C42   C     C_1   0.004712 0.504351 0.825161 -0.082328
C43   C     C_1   0.995773 0.501570 0.173199 -0.076790
C44   C     C_R   0.813049 0.203127 0.541809 -0.028143
C45   C     C_R   0.840029 0.134720 0.613536 -0.028263
C46   C     C_R   0.186168 0.799693 0.479962 -0.032724
C47   C     C_R   0.684636 0.694889 0.239395 0.004867
C48   C     C_R   0.764111 0.782741 0.206248 -0.104798
C49   C     C_R   0.750961 0.832270 0.119455 -0.106914
C50   C     C_R   0.658897 0.794143 0.064499 -0.099831
C51   C     C_R   0.580353 0.705541 0.095817 -0.121190
C52   C     C_R   0.593482 0.655248 0.182238 -0.113388
C53   C     C_R   0.299718 0.270447 0.740627 0.005483
C54   C     C_R   0.313609 0.295205 0.824021 -0.099396
C55   C     C_R   0.325090 0.225297 0.899856 -0.120082
C56   C     C_R   0.150342 0.879019 0.469623 -0.034692
C57   C     C_R   0.322847 0.130700 0.892782 -0.113476
C58   C     C_R   0.309226 0.105733 0.809836 -0.128918
C59   C     C_R   0.297719 0.175327 0.733928 -0.116551
C60   C     C_R   0.823249 0.540760 0.992218 0.026050
C61   C     C_R   0.773025 0.564148 0.907768 -0.109076
C62   C     C_R   0.684781 0.582077 0.897664 -0.111919
C63   C     C_R   0.645437 0.575806 0.971720 -0.101312
C64   C     C_R   0.693876 0.550837 0.055889 -0.107737
C65   C     C_R   0.782671 0.533803 0.066312 -0.098154
C66   C     C_R   0.173027 0.469632 0.993487 0.036364
C67   C     C_R   0.714038 0.172156 0.496861 -0.156799
C68   C     C_R   0.190964 0.383521 0.044071 -0.100849
C69   C     C_R   0.280425 0.372235 0.043657 -0.122541
C70   C     C_R   0.352191 0.446253 0.992454 -0.122516
C71   C     C_R   0.334443 0.531568 0.941230 -0.126339
C72   C     C_R   0.245360 0.543543 0.941965 -0.090458
C73   C     C_R   0.043991 0.854241 0.479503 0.057727
C74   C     C_R   0.977765 0.884133 0.409773 -0.085688
C75   C     C_R   0.878127 0.860055 0.420258 -0.116786
C76   C     C_R   0.842658 0.802461 0.498763 -0.105016
C77   C     C_R   0.907719 0.771775 0.568158 -0.100494
C78   C     C_R   0.289585 0.825184 0.485261 -0.159058
C79   C     C_R   0.008629 0.799765 0.559561 -0.057429
C80   C     C_R   0.929192 0.173083 0.681571 0.048163
C81   C     C_R   0.000967 0.127846 0.706946 -0.098681
C82   C     C_R   0.066722 0.141809 0.786321 -0.115606
C83   C     C_R   0.065965 0.205872 0.838398 -0.110889
C84   C     C_R   0.998177 0.254974 0.811699 -0.118011
C85   C     C_R   0.929413 0.238161 0.733962 -0.082143
C86   C     C_R   0.794669 0.960636 0.709045 0.029430
C87   C     C_R   0.832835 0.890370 0.701344 -0.118853
C88   C     C_R   0.861125 0.828563 0.776441 -0.122484
C89   C     C_R   0.640531 0.075154 0.521595 0.014626
C90   C     C_R   0.851595 0.836930 0.859548 -0.096403
C91   C     C_R   0.812884 0.906320 0.867550 -0.109424
C92   C     C_R   0.783834 0.967604 0.792590 -0.081600
C93   C     C_R   0.181847 0.067080 0.439425 0.027154
C94   C     C_R   0.174544 0.126323 0.355457 -0.116138
C95   C     C_R   0.141603 0.206503 0.342043 -0.122642
C96   C     C_R   0.115497 0.227767 0.412168 -0.091413
C97   C     C_R   0.121782 0.168566 0.495665 -0.104664
C98   C     C_R   0.154594 0.088281 0.509368 -0.094737
Cu1   Cu    Cu3+1 0.081740 0.475690 0.522610 0.919708
Cu2   Cu    Cu3+1 0.918260 0.524310 0.477390 0.926989
H1    H     H_    0.624633 0.838761 0.636738 0.121841
H2    H     H_    0.843521 0.646542 0.322890 0.130142
H3    H     H_    0.836202 0.813346 0.247342 0.090596
H4    H     H_    0.812231 0.900422 0.094941 0.094886
H5    H     H_    0.648494 0.832722 0.997467 0.101006
H6    H     H_    0.509536 0.675203 0.052873 0.109720
H7    H     H_    0.532459 0.585162 0.204459 0.114734
H8    H     H_    0.316778 0.368841 0.830069 0.120770
H9    H     H_    0.336162 0.244382 0.964176 0.104388
H10   H     H_    0.331855 0.076860 0.951559 0.106214
H11   H     H_    0.308031 0.032727 0.804352 0.106048
H12   H     H_    0.370964 0.172302 0.427086 0.130524
H13   H     H_    0.289633 0.156362 0.670070 0.112328
H14   H     H_    0.400509 0.621900 0.388614 0.093999
H15   H     H_    0.613599 0.403438 0.625316 0.092627
H16   H     H_    0.982392 0.334836 0.087648 0.093519
H17   H     H_    0.012692 0.671346 0.909582 0.094940
H18   H     H_    0.802570 0.569037 0.849699 0.102845
H19   H     H_    0.647045 0.600968 0.832434 0.113112
H20   H     H_    0.577301 0.589958 0.963774 0.101425
H21   H     H_    0.662465 0.543995 0.113261 0.123146
H22   H     H_    0.818032 0.514101 0.132067 0.119421
H23   H     H_    0.315056 0.764628 0.489575 0.127149
H24   H     H_    0.136848 0.325622 0.084701 0.088511
H25   H     H_    0.294223 0.306161 0.083300 0.097122
H26   H     H_    0.421241 0.437084 0.992199 0.105385
H27   H     H_    0.389981 0.588727 0.901391 0.097769
H28   H     H_    0.232953 0.610596 0.902813 0.105280
H29   H     H_    0.003196 0.925871 0.347488 0.100897
H30   H     H_    0.827750 0.884622 0.367064 0.111256
H31   H     H_    0.764772 0.781717 0.505879 0.114554
H32   H     H_    0.880021 0.726600 0.628763 0.095487
H33   H     H_    0.058530 0.776435 0.614295 0.091917
H34   H     H_    0.694565 0.225855 0.443036 0.125103
H35   H     H_    0.001024 0.075957 0.668571 0.105804
H36   H     H_    0.116513 0.100846 0.808416 0.138692
H37   H     H_    0.116861 0.216360 0.900025 0.122012
H38   H     H_    0.996278 0.302649 0.853191 0.120335
H39   H     H_    0.872808 0.271345 0.717132 0.094510
H40   H     H_    0.842485 0.885654 0.637436 0.111340
H41   H     H_    0.891531 0.775066 0.770503 0.094188
H42   H     H_    0.874553 0.789979 0.917764 0.123083
H43   H     H_    0.806548 0.913539 0.931879 0.097504
H44   H     H_    0.755087 0.022049 0.799626 0.104361
H45   H     H_    0.845222 0.369535 0.937469 0.103594
H46   H     H_    0.194869 0.110626 0.300773 0.099891
H47   H     H_    0.136497 0.252269 0.277333 0.103072
H48   H     H_    0.090244 0.289963 0.401798 0.144635
H49   H     H_    0.101379 0.185082 0.549714 0.116882
H50   H     H_    0.158774 0.042586 0.574238 0.096147
H51   H     H_    0.452742 0.793980 0.574718 0.108257
H52   H     H_    0.546647 0.210508 0.450657 0.111117
H53   H     H_    0.536556 0.695161 0.307512 0.126611
H54   H     H_    0.477225 0.327203 0.703982 0.132400
H55   H     H_    0.152617 0.637065 0.059224 0.103767
H56   H     H_    0.272220 0.540457 0.450251 0.122627
H57   H     H_    0.733526 0.470604 0.555140 0.122453
H58   H     H_    0.148108 0.335224 0.668313 0.152177
N1    N     N_R   0.795440 0.560790 0.443380 -0.235293
N2    N     N_R   0.204560 0.439210 0.556620 -0.246860
O1    O     O_R   0.977900 0.338120 0.529810 -0.496100
O2    O     O_R   0.022100 0.661880 0.470190 -0.483250
O3    O     O_R   0.839850 0.379180 0.491620 -0.504284
O4    O     O_R   0.160150 0.620820 0.508380 -0.506117
O5    O     O_R   0.069010 0.479460 0.640020 -0.490813
O6    O     O_R   0.930990 0.520540 0.359980 -0.504362
O7    O     O_R   0.930960 0.520530 0.601820 -0.506993
O8    O     O_R   0.069040 0.479470 0.398180 -0.505997

loop_
_geom_bond_atom_site_label_1
_geom_bond_atom_site_label_2
_ccdc_geom_bond_type
C94   H46   S    
C66   C68   A    
C87   C88   A    
C34   C56   A    
C93   C94   A    
C23   C45   A    
C22   C29   A    
C27   C29   A    
C73   C74   A    
C31   H16   S    
C3    C23   A    
C95   C96   A    
C34   C93   S    
C32   H17   S    
C21   C26   A    
C1    O1    A    
C68   H24   S    
C49   H4    S    
C81   C82   A    
C53   C59   A    
C39   C41   S    
C53   C54   A    
C25   C28   A    
C26   C27   A    
C33   C39   S    
C72   H28   S    
C83   C84   A    
C3    C9    A    
C19   N2    A    
C19   C21   A    
C35   H55   S    
C17   O6    A    
C5    C6    A    
C76   H31   S    
C14   H2    S    
C20   C25   A    
C16   O7    A    
C64   H21   S    
C97   C98   A    
C67   C89   A    
Cu2   O6    S    
C32   C39   S    
C18   N1    A    
Cu1   O1    S    
C11   C47   S    
C66   C72   A    
C38   C66   S    
C52   H7    S    
C68   C69   A    
C23   C86   S    
C50   H5    S    
C31   C33   S    
C10   H12   S    
C70   C71   A    
C45   C80   S    
C87   H40   S    
C91   H43   S    
C61   C62   A    
C75   H30   S    
C70   H26   S    
C40   C42   S    
C69   H25   S    
Cu1   N2    S    
C55   H9    S    
C19   H56   S    
C41   C43   S    
C71   H27   S    
C2    C6    A    
C96   H48   S    
C81   H35   S    
C6    C7    A    
C13   C53   S    
C77   C79   A    
C79   H33   S    
C4    C34   A    
C33   C40   S    
C74   C75   A    
C51   C52   A    
C32   C35   S    
C35   C38   S    
C95   H47   S    
C76   C77   A    
C15   H58   S    
C12   C46   S    
C91   C92   A    
C46   C78   A    
C86   C87   A    
C25   C26   A    
C63   C64   A    
C48   H3    S    
C12   O2    A    
C58   H11   S    
C13   C24   A    
C60   C61   A    
C77   H32   S    
C37   C43   T    
C2    C4    A    
C75   C76   A    
C80   C85   A    
C2    C78   A    
C28   H15   S    
C12   O4    A    
C1    C44   S    
Cu1   Cu2   S    
C30   H54   S    
C16   O5    A    
C59   H13   S    
C96   C97   A    
C67   H34   S    
C62   C63   A    
C50   C51   A    
C73   C79   A    
C94   C95   A    
C17   C37   S    
C65   H22   S    
C84   C85   A    
C78   H23   S    
C62   H19   S    
C90   H42   S    
C35   C41   S    
C33   H45   S    
C7    H51   S    
C9    H1    S    
C48   C49   A    
C88   C90   A    
C60   C65   A    
C82   C83   A    
C55   C57   A    
C21   C24   A    
C4    C10   A    
C88   H41   S    
C83   H37   S    
C44   C45   A    
C29   H53   S    
Cu1   O8    S    
C98   H50   S    
C7    C9    A    
C85   H39   S    
C54   C55   A    
C56   C73   S    
C31   C41   S    
C8    H52   S    
C61   H18   S    
C20   C22   A    
C80   C81   A    
C47   C48   A    
C17   O8    A    
C36   C42   T    
C5    C8    A    
C57   H10   S    
C47   C52   A    
C11   C22   A    
C31   C38   S    
C54   H8    S    
C14   N1    A    
C3    C89   A    
C64   C65   A    
C13   C15   A    
C58   C59   A    
C15   N2    A    
C18   H57   S    
C86   C92   A    
C16   C36   S    
C38   C40   S    
C63   H20   S    
Cu2   N1    S    
C90   C91   A    
C51   H6    S    
C39   C60   S    
Cu2   O7    S    
C11   C14   A    
C28   C30   A    
Cu2   O3    S    
C18   C20   A    
C32   C40   S    
C82   H36   S    
C69   C70   A    
C92   H44   S    
C24   C30   A    
C84   H38   S    
Cu1   O4    S    
C27   H14   S    
C71   C72   A    
C1    O3    A    
C8    C10   A    
C49   C50   A    
C74   H29   S    
C46   C56   A    
C97   H49   S    
C44   C67   A    
Cu2   O2    S    
C57   C58   A    
C93   C98   A    
C5    C89   A    
Cu1   O5    S    
