data_mof_unit_18976.cif
_audit_creation_date              2012-12-10T20:38:15-0500
_audit_creation_method            fapswitch 2.2
_symmetry_space_group_name_H-M    P1
_symmetry_Int_Tables_number       1
_space_group_crystal_system       triclinic
_cell_length_a                    9.86115
_cell_length_b                    10.690493
_cell_length_c                    16.70548
_cell_angle_alpha                 90.188931
_cell_angle_beta                  84.784174
_cell_angle_gamma                 90.000944
_cell_volume                      1753.79922395

loop_
_atom_site_label
_atom_site_type_symbol
_atom_type_description
_atom_site_fract_x
_atom_site_fract_y
_atom_site_fract_z
_atom_type_partial_charge
C1    C     C_R   0.500136 0.740045 0.498291 0.930929
C2    C     C_R   0.355355 0.568470 0.780373 -0.178006
C3    C     C_R   0.664863 0.565617 0.134988 0.487917
C4    C     C_R   0.652877 0.524365 0.214572 -0.304495
C5    C     C_R   0.429173 0.619789 0.235753 -0.221287
C6    C     C_R   0.442017 0.665524 0.157981 0.227323
C7    C     C_R   0.557352 0.633780 0.106203 -0.050159
C8    C     C_2   0.455096 0.566228 0.989864 -0.333999
C9    C     C_2   0.549163 0.639135 0.019696 0.358935
C10   C     C_R   0.532323 0.545971 0.263520 -0.146450
C11   C     C_R   0.377887 0.936540 0.490034 0.032458
C12   C     C_R   0.480482 0.499506 0.653277 0.885129
C13   C     C_R   0.500795 0.871579 0.487501 -0.109838
C14   C     C_R   0.624256 0.935154 0.469690 -0.164069
C15   C     C_R   0.624363 0.064492 0.468749 -0.163502
C16   C     C_R   0.500860 0.128666 0.485031 -0.126556
C17   C     C_R   0.377894 0.064000 0.487326 0.040283
C18   C     C_3   0.251407 0.075540 0.543528 0.055506
C19   C     C_3   0.252163 0.932540 0.547845 0.408695
C20   C     C_R   0.918335 0.474702 0.568537 0.232903
C21   C     C_R   0.938698 0.516837 0.430628 -0.083662
C22   C     C_R   0.082490 0.516860 0.430626 -0.023813
C23   C     C_R   0.500276 0.260023 0.497385 0.890129
C24   C     C_R   0.060933 0.474131 0.568430 0.260379
C25   C     C_3   0.055836 0.545366 0.645327 -0.494349
C26   C     C_3   0.902272 0.547601 0.645127 -0.461479
C27   C     C_R   0.519355 0.506576 0.346936 0.909345
C28   C     C_R   0.466672 0.505729 0.740215 -0.036997
C29   C     C_R   0.568500 0.455046 0.783362 -0.195547
C30   C     C_R   0.563183 0.473122 0.865677 -0.103105
C31   C     C_R   0.455775 0.541482 0.904828 0.200182
C32   C     C_R   0.349518 0.585645 0.862998 -0.096229
H1    H     H_    0.652198 0.402527 0.753382 0.146048
H2    H     H_    0.720712 0.886115 0.461613 0.202924
H3    H     H_    0.720910 0.113284 0.460590 0.203132
H4    H     H_    0.270751 0.122877 0.600773 0.142226
H5    H     H_    0.893335 0.532357 0.374977 0.153583
H6    H     H_    0.144566 0.532657 0.374909 0.150931
H7    H     H_    0.090980 0.487942 0.694787 0.200193
H8    H     H_    0.736008 0.473175 0.237323 0.170230
H9    H     H_    0.103422 0.639278 0.638193 0.267538
H10   H     H_    0.850507 0.493051 0.695305 0.201855
H11   H     H_    0.860212 0.642850 0.637210 0.246011
H12   H     H_    0.338831 0.643261 0.274732 0.194892
H13   H     H_    0.265378 0.636987 0.893746 0.175192
H14   H     H_    0.276234 0.608499 0.747657 0.182676
H15   H     H_    0.380285 0.516303 0.029612 0.160551
H16   H     H_    0.643553 0.435842 0.898650 0.140816
N1    N     N_R   0.857140 0.500860 0.500530 -0.112869
N2    N     N_R   0.142780 0.500820 0.500530 -0.097034
O1    O     O_R   0.385310 0.683210 0.499990 -0.580316
O2    O     O_R   0.614650 0.683240 0.500000 -0.619166
O3    O     O_R   0.371780 0.500000 0.615800 -0.617752
O4    O     O_R   0.601120 0.500040 0.615800 -0.616669
O5    O     O_R   0.385350 0.316760 0.500000 -0.588485
O6    O     O_R   0.614690 0.316790 0.500010 -0.617031
O7    O     O_R   0.398880 0.499960 0.384200 -0.626323
O8    O     O_R   0.628220 0.500000 0.384200 -0.626919
Zn1   Zn    Zn3+2 0.346870 0.499980 0.499990 1.004096
Zn2   Zn    Zn3+2 0.653130 0.500020 0.500010 0.976376
Br1   Br    Br    0.296591 0.765741 0.123394 -0.454121
Br2   Br    Br    0.104770 0.152632 0.490249 -0.455921
Br3   Br    Br    0.284610 0.872112 0.654306 -0.531154
Br4   Br    Br    0.103144 0.844098 0.503331 -0.444155
Br5   Br    Br    0.683455 0.731896 0.953266 -0.408263
O9    O     O_3   0.781715 0.540992 0.085101 -0.596241
C33   C     C_3   0.783961 0.413351 0.062973 0.079050
H17   H     H_    0.685504 0.384450 0.040431 0.126207
H18   H     H_    0.804146 0.353960 0.115220 0.148481
C34   C     C_3   0.898069 0.392773 0.995994 -0.320999
H19   H     H_    0.882629 0.455821 0.944805 0.242956
H20   H     H_    0.997566 0.416136 0.018700 0.240837
C35   C     C_3   0.901493 0.257624 0.966263 -0.895786
H21   H     H_    0.918211 0.192839 0.016280 0.283896
H22   H     H_    0.986041 0.245744 0.918217 0.274324
H23   H     H_    0.804237 0.233471 0.941205 0.267612

loop_
_geom_bond_atom_site_label_1
_geom_bond_atom_site_label_2
_ccdc_geom_bond_type
C10   C27   S    
O5    Zn1   S    
C32   H13   S    
C21   N1    A    
O3    Zn1   S    
C23   O6    A    
O4    Zn2   S    
C2    H14   S    
C11   C19   S    
C29   C30   A    
N1    Zn2   S    
C12   C28   S    
N2    Zn1   S    
C6    Br1   S    
C30   H16   S    
C28   C29   A    
C3    C7    A    
C5    C6    A    
O7    Zn1   S    
C16   C17   A    
O8    Zn2   S    
C15   C16   A    
C22   H6    S    
C29   H1    S    
C2    C32   A    
C18   C19   S    
C35   H21   S    
O2    Zn2   S    
C20   C24   A    
C19   Br3   S    
C8    C9    D    
C34   H19   S    
C12   O3    A    
C22   N2    A    
O9    C33   S    
C21   C22   A    
C35   H22   S    
C15   H3    S    
C26   H11   S    
C24   N2    A    
C33   H17   S    
C4    H8    S    
C24   C25   S    
C27   O7    A    
C25   H9    S    
C18   Br2   S    
C25   C26   S    
O6    Zn2   S    
C33   H18   S    
C1    C13   S    
C20   N1    A    
C31   C32   A    
C19   Br4   S    
C34   C35   S    
C17   C18   S    
C1    O1    A    
C5    H12   S    
C16   C23   S    
C35   H23   S    
C3    O9    S    
O1    Zn1   S    
C4    C10   A    
C3    C4    A    
C26   H10   S    
C7    C9    S    
C11   C17   A    
C8    C31   S    
C27   O8    A    
C14   H2    S    
C34   H20   S    
C23   O5    A    
C6    C7    A    
C33   C34   S    
C8    H15   S    
C5    C10   A    
C25   H7    S    
C11   C13   A    
C30   C31   A    
C20   C26   S    
C1    O2    A    
C9    Br5   S    
C21   H5    S    
C14   C15   A    
C2    C28   A    
C13   C14   A    
C18   H4    S    
C12   O4    A    
