data_mof_unit_14600.cif
_audit_creation_date              2012-10-26T19:27:02-0400
_audit_creation_method            fapswitch 2.2
_symmetry_space_group_name_H-M    P1
_symmetry_Int_Tables_number       1
_space_group_crystal_system       triclinic
_cell_length_a                    13.799942
_cell_length_b                    15.015151
_cell_length_c                    17.344574
_cell_angle_alpha                 89.706967
_cell_angle_beta                  85.779026
_cell_angle_gamma                 91.017241
_cell_volume                      3583.55080823

loop_
_atom_site_label
_atom_site_type_symbol
_atom_type_description
_atom_site_fract_x
_atom_site_fract_y
_atom_site_fract_z
_atom_type_partial_charge
Br1   Br    Br    0.674963 0.124460 0.298926 -0.275355
Br2   Br    Br    0.327724 0.878999 0.700812 -0.294117
Br3   Br    Br    0.723343 0.913765 0.323878 -0.233168
Br4   Br    Br    0.278696 0.090504 0.674279 -0.238363
C1    C     C_R   0.501246 0.671026 0.494282 0.598926
C2    C     C_R   0.454775 0.903587 0.559285 0.003554
C3    C     C_R   0.499322 0.047548 0.500347 -0.040699
C4    C     C_R   0.502468 0.954051 0.498348 -0.038480
C5    C     C_R   0.449491 0.091038 0.563709 0.009371
C6    C     C_R   0.552990 0.911063 0.435131 0.004255
C7    C     C_R   0.602452 0.055765 0.379362 0.206111
C8    C     C_R   0.398315 0.946397 0.618795 0.206177
C9    C     C_R   0.611989 0.963133 0.381202 0.232338
C10   C     C_R   0.390180 0.039457 0.617631 0.247492
C11   C     C_R   0.204051 0.578431 0.496125 0.358049
C12   C     C_R   0.498906 0.329180 0.501924 0.605204
C13   C     C_R   0.795552 0.420827 0.502933 0.337168
C14   C     C_R   0.200977 0.421023 0.502277 0.361620
C15   C     C_R   0.799212 0.578790 0.500078 0.329649
C16   C     C_R   0.487192 0.501581 0.649786 0.566012
C17   C     C_R   0.512857 0.497425 0.350239 0.596702
C18   C     C_R   0.099323 0.420811 0.525779 -0.033346
C19   C     C_R   0.896654 0.580184 0.523486 -0.034466
C20   C     C_R   0.049577 0.500845 0.531037 -0.054957
C21   C     C_R   0.945224 0.500501 0.531648 -0.053214
C22   C     C_R   0.103596 0.580916 0.524853 -0.017779
C23   C     C_R   0.460806 0.184627 0.569596 0.276240
C24   C     C_R   0.891886 0.420171 0.530205 -0.014227
C25   C     C_R   0.044571 0.341821 0.541504 -0.030412
C26   C     C_R   0.949565 0.660049 0.534423 -0.035917
C27   C     C_R   0.942242 0.341404 0.547711 0.249845
C28   C     C_R   0.051368 0.660891 0.537636 0.249396
C29   C     C_R   0.480378 0.505029 0.734072 0.048190
C30   C     C_R   0.520098 0.491724 0.266012 0.024831
C31   C     C_R   0.564148 0.523327 0.772665 -0.094144
C32   C     C_R   0.437570 0.468523 0.227525 -0.107622
C33   C     C_R   0.559077 0.525947 0.852700 -0.083595
C34   C     C_R   0.539794 0.818041 0.426766 0.288024
C35   C     C_R   0.443232 0.463646 0.147573 -0.095368
C36   C     C_R   0.470283 0.508822 0.895411 0.042520
C37   C     C_R   0.531417 0.483051 0.104849 0.042597
C38   C     C_R   0.385961 0.493124 0.856976 -0.087502
C39   C     C_R   0.614688 0.503531 0.143151 -0.080891
C40   C     C_R   0.390901 0.490980 0.776582 -0.074486
C41   C     C_R   0.609064 0.508293 0.223434 -0.072726
C42   C     C_2   0.463567 0.507472 0.980073 -0.111904
C43   C     C_2   0.538183 0.482970 0.020256 -0.109396
C44   C     C_R   0.496281 0.232815 0.503377 0.038052
C45   C     C_R   0.502775 0.768169 0.492262 0.037246
C46   C     C_R   0.533914 0.189697 0.437632 -0.075196
C47   C     C_R   0.461887 0.810972 0.557615 -0.106338
C48   C     C_R   0.544568 0.097760 0.438082 0.002280
Cu1   Cu    Cu3+1 0.402580 0.500010 0.500000 1.180060
Cu2   Cu    Cu3+1 0.597420 0.499990 0.500000 1.154005
H1    H     H_    0.633679 0.536268 0.741077 0.146797
H2    H     H_    0.683437 0.517855 0.110822 0.137853
H3    H     H_    0.378724 0.444054 0.119546 0.134353
H4    H     H_    0.624571 0.542290 0.880671 0.127167
H5    H     H_    0.560851 0.229919 0.388434 0.196525
H6    H     H_    0.431437 0.770280 0.605393 0.169647
H7    H     H_    0.268773 0.620275 0.293173 0.362764
H8    H     H_    0.755576 0.410766 0.330425 0.350359
H9    H     H_    0.162663 0.235355 0.371677 0.391966
H10   H     H_    0.860224 0.749548 0.352566 0.409470
H11   H     H_    0.994695 0.170529 0.641065 0.369094
H12   H     H_    0.368559 0.453632 0.259019 0.203887
H13   H     H_    0.992566 0.843127 0.613593 0.360470
H14   H     H_    0.457932 0.201100 0.781362 0.384273
H15   H     H_    0.445730 0.673611 0.278012 0.362164
H16   H     H_    0.081549 0.279907 0.549816 0.188215
H17   H     H_    0.911849 0.722607 0.539092 0.180535
H18   H     H_    0.673796 0.526139 0.251900 0.176571
H19   H     H_    0.325196 0.477298 0.747880 0.164087
H20   H     H_    0.607200 0.465005 0.990914 0.137848
H21   H     H_    0.394689 0.525460 0.009701 0.134767
H22   H     H_    0.316719 0.480872 0.889238 0.134903
N1    N     N_R   0.256180 0.500070 0.500030 -0.268274
N2    N     N_R   0.743820 0.499930 0.499970 -0.279694
O1    O     O_R   0.417720 0.629750 0.499980 -0.461063
O2    O     O_2   0.293631 0.726852 0.431987 -0.169889
O3    O     O_3   0.283519 0.589109 0.341289 -0.499317
O4    O     O_2   0.871254 0.304680 0.397509 -0.223627
O5    O     O_2   0.723959 0.256523 0.472459 -0.182630
O6    O     O_3   0.710355 0.371304 0.362430 -0.497267
O7    O     O_2   0.316146 0.353212 0.382655 -0.269161
O8    O     O_2   0.268604 0.253929 0.493064 -0.286573
O9    O     O_3   0.141128 0.291653 0.396437 -0.491123
O10   O     O_2   0.708974 0.634659 0.377914 -0.224482
O11   O     O_2   0.732499 0.744134 0.480864 -0.298943
O12   O     O_R   0.582280 0.370250 0.500020 -0.440684
O13   O     O_3   0.879690 0.702039 0.387779 -0.486235
O14   O     O_2   0.780946 0.266810 0.620464 -0.183766
O15   O     O_2   0.880092 0.172572 0.531386 -0.181644
O16   O     O_3   0.944459 0.210638 0.664256 -0.474438
O17   O     O_2   0.208763 0.744253 0.588666 -0.221221
O18   O     O_2   0.116251 0.825310 0.496387 -0.177422
O19   O     O_3   0.042529 0.808102 0.637779 -0.464071
O20   O     O_2   0.542676 0.302642 0.662386 -0.264874
O21   O     O_2   0.365116 0.290275 0.672875 -0.263198
O22   O     O_3   0.464892 0.165229 0.733566 -0.462478
O23   O     O_R   0.582260 0.629730 0.499990 -0.461419
O24   O     O_2   0.489540 0.846076 0.282309 -0.235214
O25   O     O_2   0.625046 0.746373 0.294217 -0.198534
O26   O     O_3   0.453127 0.686817 0.333191 -0.481870
O27   O     O_R   0.417740 0.370270 0.500010 -0.441452
O28   O     O_R   0.408190 0.500030 0.613590 -0.519996
O29   O     O_R   0.591810 0.499970 0.386410 -0.458894
O30   O     O_R   0.572730 0.500000 0.613600 -0.514352
O31   O     O_R   0.427270 0.500000 0.386400 -0.424788
O32   O     O_2   0.137558 0.683640 0.385359 -0.237879
S1    S     S_3+6 0.230259 0.648699 0.413587 0.133565
S2    S     S_3+6 0.775401 0.335444 0.433922 0.113485
S3    S     S_3+6 0.236723 0.328406 0.443068 0.054818
S4    S     S_3+6 0.775626 0.667087 0.436217 0.057118
S5    S     S_3+6 0.882729 0.245817 0.590022 0.102327
S6    S     S_3+6 0.108783 0.761567 0.563767 0.100230
S7    S     S_3+6 0.457545 0.239015 0.660996 0.066533
S8    S     S_3+6 0.529256 0.774707 0.331644 0.092436

loop_
_geom_bond_atom_site_label_1
_geom_bond_atom_site_label_2
_ccdc_geom_bond_type
C23   C44   A    
C22   C28   A    
C18   C25   A    
Cu2   O23   S    
Cu1   N1    S    
Br1   C7    S    
Br2   C8    S    
C12   C44   S    
C26   H17   S    
C3    C4    A    
C35   C37   A    
C34   C45   A    
Cu1   Cu2   S    
C21   C24   A    
C36   C42   S    
O6    S2    S    
Cu2   O29   S    
O8    S3    D    
C46   H5    S    
Cu1   O1    S    
C20   C22   A    
C3    C48   A    
Cu2   O12   S    
C33   C36   A    
C2    C8    A    
C32   H12   S    
C12   O12   A    
C35   H3    S    
O15   S5    D    
O32   S1    D    
C7    C48   A    
C42   C43   D    
Cu1   O28   S    
O3    S1    S    
C45   C47   A    
C46   C48   A    
C2    C47   A    
C1    O1    A    
C16   O28   A    
C33   H4    S    
O24   S8    D    
H9    O9    S    
C44   C46   A    
C41   H18   S    
O10   S4    D    
C37   C39   A    
C1    C45   S    
C38   C40   A    
C14   S3    S    
C27   S5    S    
C42   H21   S    
O26   S8    S    
C23   S7    S    
C1    O23   A    
C31   H1    S    
C19   C26   A    
C11   S1    S    
C20   C21   A    
C11   C22   A    
C2    C4    A    
C17   C30   S    
C15   S4    S    
O4    S2    D    
C15   N2    A    
C15   C19   A    
C5    C10   A    
H14   O22   S    
O21   S7    D    
O17   S6    D    
C13   C24   A    
C37   C43   S    
C30   C41   A    
C28   S6    S    
O19   S6    S    
C39   C41   A    
C17   O29   A    
C12   O27   A    
C16   C29   S    
H11   O16   S    
C8    C10   A    
C24   C27   A    
C18   C20   A    
O25   S8    D    
C13   S2    S    
C5    C23   A    
O20   S7    D    
C25   H16   S    
H15   O26   S    
Cu1   O31   S    
C3    C5    A    
H8    O6    S    
O11   S4    D    
C31   C33   A    
C14   C18   A    
C29   C40   A    
C32   C35   A    
C43   H20   S    
C6    C9    A    
Br3   C9    S    
C17   O31   A    
O16   S5    S    
O22   S7    S    
C38   H22   S    
O13   S4    S    
Cu2   O30   S    
C6    C34   A    
O7    S3    D    
C25   C27   A    
H7    O3    S    
C26   C28   A    
C7    C9    A    
C11   N1    A    
C14   N1    A    
O2    S1    D    
C36   C38   A    
C13   N2    A    
C29   C31   A    
C30   C32   A    
C19   C21   A    
Br4   C10   S    
C40   H19   S    
O14   S5    D    
O9    S3    S    
H13   O19   S    
C34   S8    S    
Cu1   O27   S    
C39   H2    S    
C4    C6    A    
O5    S2    D    
O18   S6    D    
C47   H6    S    
H10   O13   S    
Cu2   N2    S    
C16   O30   A    
