data_mof_unit_25456.cif
_audit_creation_date              2012-12-10T17:04:31-0500
_audit_creation_method            fapswitch 2.2
_symmetry_space_group_name_H-M    P1
_symmetry_Int_Tables_number       1
_space_group_crystal_system       triclinic
_cell_length_a                    14.966155
_cell_length_b                    10.727168
_cell_length_c                    10.020799
_cell_angle_alpha                 90.091609
_cell_angle_beta                  89.872453
_cell_angle_gamma                 89.89993
_cell_volume                      1608.77524784

loop_
_atom_site_label
_atom_site_type_symbol
_atom_type_description
_atom_site_fract_x
_atom_site_fract_y
_atom_site_fract_z
_atom_type_partial_charge
C1    C     C_R   0.499507 0.262580 0.499716 0.931584
C2    C     C_R   0.906824 0.577437 0.600764 -0.061368
C3    C     C_R   0.953406 0.398064 0.288078 -0.189470
C4    C     C_R   0.046075 0.396622 0.288067 -0.209101
C5    C     C_R   0.092740 0.453040 0.392672 0.150424
C6    C     C_R   0.046584 0.513350 0.497798 0.019737
C7    C     C_R   0.093614 0.569574 0.604129 -0.002936
C8    C     C_R   0.047267 0.631773 0.706831 0.506763
C9    C     C_R   0.954068 0.633472 0.705531 -0.292398
C10   C     C_R   0.185061 0.449563 0.394222 -0.248695
C11   C     C_R   0.231129 0.503575 0.500180 -0.091132
C12   C     C_R   0.326801 0.500308 0.500135 0.892947
C13   C     C_R   0.186277 0.562851 0.604782 -0.220434
C14   C     C_2   0.516026 0.933003 0.387738 -0.156480
C15   C     C_2   0.516938 0.868260 0.501221 -0.352100
C16   C     C_2   0.520926 0.067205 0.390321 -0.164732
C17   C     C_2   0.495753 0.130589 0.498922 -0.325219
C18   C     C_2   0.555993 0.564465 0.924885 -0.114869
C19   C     C_2   0.552372 0.570193 0.074960 -0.129445
C20   C     C_R   0.503568 0.737270 0.500124 0.915423
C21   C     C_R   0.673144 0.502551 0.499795 0.897659
C22   C     C_R   0.813637 0.580894 0.597949 0.470831
C23   C     C_R   0.768732 0.512679 0.498318 -0.190406
C24   C     C_R   0.814964 0.454531 0.394533 -0.327978
C25   C     C_R   0.907114 0.456970 0.392027 0.140358
C26   C     C_R   0.953489 0.516424 0.496705 -0.014948
H1    H     H_    0.529926 0.910432 0.597634 0.148154
H2    H     H_    0.542513 0.114197 0.299835 0.170572
H3    H     H_    0.469834 0.086994 0.588443 0.147941
H4    H     H_    0.607289 0.618652 0.875229 0.181514
H5    H     H_    0.449232 0.455518 0.897942 0.164093
H6    H     H_    0.596987 0.634896 0.124576 0.160192
H7    H     H_    0.462288 0.435075 0.102139 0.162537
H8    H     H_    0.779008 0.404838 0.317033 0.179488
H9    H     H_    0.917937 0.352581 0.207404 0.146878
H10   H     H_    0.081213 0.350413 0.207198 0.147599
H11   H     H_    0.221142 0.403347 0.314105 0.155000
H12   H     H_    0.224001 0.605595 0.684926 0.200995
H13   H     H_    0.919183 0.678115 0.787525 0.204234
H14   H     H_    0.510096 0.887862 0.291014 0.174688
N1    N     N_2   0.500970 0.501330 0.852150 -0.194691
N2    N     N_2   0.500990 0.501360 0.147810 -0.193742
O1    O     O_R   0.499990 0.319060 0.613040 -0.616679
O2    O     O_R   0.500010 0.319100 0.386900 -0.618128
O3    O     O_R   0.367830 0.499950 0.613080 -0.621918
O4    O     O_R   0.367860 0.499990 0.386940 -0.614143
O5    O     O_R   0.499990 0.680900 0.613100 -0.627242
O6    O     O_R   0.500010 0.680940 0.386960 -0.610569
O7    O     O_R   0.632140 0.500010 0.613060 -0.578668
O8    O     O_R   0.632170 0.500050 0.386920 -0.627343
Zn1   Zn    Zn3+2 0.499980 0.499970 0.650990 0.955459
Zn2   Zn    Zn3+2 0.500020 0.500030 0.349010 0.941161
O9    O     O_3   0.767155 0.645167 0.696568 -0.652171
C27   C     C_3   0.730300 0.756570 0.643832 0.101021
H15   H     H_    0.668570 0.777592 0.701361 0.167269
H16   H     H_    0.709804 0.748755 0.537197 0.109573
C28   C     C_3   0.795071 0.865824 0.660511 -0.399924
H17   H     H_    0.814585 0.874291 0.767088 0.227777
H18   H     H_    0.856216 0.848602 0.600130 0.219542
C29   C     C_3   0.752490 0.988034 0.615103 -0.924578
H19   H     H_    0.733159 0.982046 0.508299 0.270082
H20   H     H_    0.801059 0.065330 0.627250 0.266800
H21   H     H_    0.692225 0.009192 0.676040 0.262266
O10   O     O_3   0.092768 0.684243 0.812918 -0.604162
C30   C     C_3   0.095037 0.814567 0.795093 -0.337618
H22   H     H_    0.127882 0.839905 0.699052 0.160630
H23   H     H_    0.135078 0.856152 0.876797 0.201557
H24   H     H_    0.026857 0.855856 0.800559 0.160538

loop_
_geom_bond_atom_site_label_1
_geom_bond_atom_site_label_2
_ccdc_geom_bond_type
C2    C22   A    
C7    C13   A    
O8    Zn2   S    
C23   C24   A    
C4    H10   S    
C16   H2    S    
C6    C7    A    
C18   H4    S    
C17   H3    S    
C1    O2    A    
C1    C17   S    
C14   C15   D    
C19   N2    D    
C3    H9    S    
C11   C12   S    
C30   H24   S    
O10   C30   S    
O2    Zn2   S    
C21   O7    A    
C28   H17   S    
C7    C8    A    
C2    C26   A    
C6    C26   A    
O9    C27   S    
C27   C28   S    
C11   C13   A    
O1    Zn1   S    
C13   H12   S    
C20   O6    A    
C8    O10   S    
C10   H11   S    
C19   H6    S    
C5    C10   A    
C21   O8    A    
N1    Zn1   S    
C18   C19   S    
C22   O9    S    
C14   C16   S    
C29   H21   S    
C21   C23   S    
C5    C6    A    
C27   H16   S    
C15   C20   S    
C28   H18   S    
C20   O5    A    
C16   C17   D    
C10   C11   A    
H7    N2    S    
C14   H14   S    
C3    C4    A    
O4    Zn2   S    
C3    C25   A    
C24   C25   A    
C29   H20   S    
C30   H22   S    
C18   N1    D    
C12   O3    A    
O3    Zn1   S    
C27   H15   S    
C4    C5    A    
C28   C29   S    
O5    Zn1   S    
H5    N1    S    
C29   H19   S    
O7    Zn1   S    
C25   C26   A    
O6    Zn2   S    
C2    C9    A    
C15   H1    S    
C1    O1    A    
C9    H13   S    
C24   H8    S    
C22   C23   A    
N2    Zn2   S    
C8    C9    A    
C30   H23   S    
C12   O4    A    
