data_mof_unit_14689.cif
_audit_creation_date              2013-03-05T15:51:00-0500
_audit_creation_method            fapswitch 2.2
_symmetry_space_group_name_H-M    P1
_symmetry_Int_Tables_number       1
_space_group_crystal_system       triclinic
_cell_length_a                    6.935604
_cell_length_b                    17.507697
_cell_length_c                    19.278104
_cell_angle_alpha                 109.501005
_cell_angle_beta                  90.218223
_cell_angle_gamma                 90.552902
_cell_volume                      2206.42506534

loop_
_atom_site_label
_atom_site_type_symbol
_atom_site_description
_atom_site_fract_x
_atom_site_fract_y
_atom_site_fract_z
_atom_type_partial_charge
O1    O     O_R   0.505810 0.439670 0.562310 -0.591895
O2    O     O_R   0.169070 0.404920 0.411210 -0.595982
O3    O     O_R   0.005550 0.560330 0.437690 -0.597805
C1    C     C_R   0.338353 0.381401 0.382988 0.898019
O4    O     O_R   0.175650 0.430000 0.560110 -0.601399
O5    O     O_R   0.012170 0.585580 0.587650 -0.592399
C2    C     C_R   0.344583 0.414721 0.581654 0.958599
O6    O     O_R   0.499180 0.414420 0.412350 -0.591610
O7    O     O_3   0.341430 0.551020 0.508860 -0.273087
V1    V     V_3+5 0.063930 0.490540 0.498360 1.148461
O8    O     O_R   0.682850 0.595080 0.588790 -0.594254
C3    C     C_R   0.852711 0.618264 0.616842 0.947470
O9    O     O_R   0.676280 0.570000 0.439890 -0.601087
C4    C     C_R   0.845226 0.585039 0.418125 0.947353
V2    V     V_3+5 0.564760 0.509460 0.501640 1.154212
O10   O     O_3   0.837130 0.448980 0.491140 -0.277091
C5    C     C_R   0.750736 0.870324 0.175752 -0.235452
C6    C     C_R   0.913824 0.865433 0.131154 -0.139451
C7    C     C_R   0.065253 0.813653 0.134359 -0.227820
C8    C     C_R   0.053892 0.766766 0.180878 0.137718
C9    C     C_R   0.890733 0.772771 0.225928 0.028918
C10   C     C_R   0.739031 0.824991 0.223509 0.151109
C11   C     C_R   0.202748 0.713853 0.183136 -0.183683
C12   C     C_R   0.191509 0.668098 0.230283 -0.218968
C13   C     C_R   0.031022 0.674311 0.275951 0.146232
C14   C     C_R   0.879283 0.726507 0.273508 0.030902
C15   C     C_R   0.716156 0.732540 0.318580 0.153412
C16   C     C_R   0.567234 0.785408 0.316281 -0.210577
C17   C     C_R   0.578477 0.831160 0.269134 -0.223386
C18   C     C_R   0.019491 0.629107 0.323826 -0.249385
C19   C     C_R   0.856570 0.634133 0.368545 -0.146364
C20   C     C_R   0.704963 0.685781 0.365213 -0.264336
H1    H     H_    0.633829 0.910421 0.174151 0.131780
H2    H     H_    0.191020 0.809081 0.100003 0.155346
H3    H     H_    0.328696 0.708207 0.148735 0.155147
H4    H     H_    0.309097 0.628137 0.231311 0.141811
H5    H     H_    0.136459 0.589050 0.325468 0.137049
H6    H     H_    0.579237 0.690393 0.399595 0.141018
H7    H     H_    0.441289 0.791062 0.350686 0.140613
H8    H     H_    0.460897 0.871124 0.268109 0.136183
C21   C     C_3   0.808344 0.815893 0.742442 -0.192437
C22   C     C_3   0.978555 0.767561 0.696966 -0.100317
H9    H     H_    0.054966 0.782311 0.652468 0.105955
H10   H     H_    0.745919 0.871391 0.736158 0.122237
C23   C     C_3   0.867392 0.687969 0.687632 -0.128504
C24   C     C_3   0.696455 0.735387 0.732052 -0.194792
C25   C     C_3   0.794122 0.730944 0.802236 0.410951
C26   C     C_3   0.962314 0.681929 0.758135 -0.206776
C27   C     C_3   0.073123 0.762689 0.768481 -0.116396
C28   C     C_3   0.903076 0.810577 0.813350 -0.227334
H11   H     H_    0.541474 0.723551 0.717486 0.134365
H12   H     H_    0.023377 0.626408 0.764859 0.147329
H13   H     H_    0.227839 0.774242 0.783646 0.141574
C29   C     C_3   0.483245 0.236673 0.304819 -0.126471
C30   C     C_3   0.322803 0.180780 0.257706 -0.136191
H14   H     H_    0.272035 0.123093 0.263921 0.099343
H15   H     H_    0.563039 0.225654 0.350546 0.102865
C31   C     C_3   0.414701 0.189264 0.187827 -0.085106
C32   C     C_3   0.574949 0.244401 0.234182 -0.097846
C33   C     C_3   0.448295 0.319343 0.242207 -0.131032
C34   C     C_3   0.287851 0.263448 0.195093 -0.123433
C35   C     C_3   0.196149 0.255720 0.265731 -0.098514
C36   C     C_3   0.356395 0.310858 0.312086 -0.087321
H16   H     H_    0.730407 0.239509 0.220416 0.104262
H17   H     H_    0.499062 0.377030 0.235993 0.104154
H18   H     H_    0.208058 0.274467 0.149365 0.106251
H19   H     H_    0.040691 0.260612 0.279497 0.104301
C37   C     C_R   0.568989 0.135219 0.821341 -0.261793
C38   C     C_R   0.416737 0.135345 0.869488 -0.139973
C39   C     C_R   0.252550 0.182182 0.869702 -0.253565
C40   C     C_R   0.240365 0.228846 0.823051 0.146307
C41   C     C_R   0.392256 0.227349 0.774143 0.030149
C42   C     C_R   0.556656 0.180025 0.773044 0.155158
C43   C     C_R   0.078818 0.276990 0.824367 -0.213713
C44   C     C_R   0.066511 0.322477 0.777013 -0.186679
C45   C     C_R   0.215139 0.320450 0.727245 0.144626
C46   C     C_R   0.379555 0.273139 0.726157 0.029882
C47   C     C_R   0.531418 0.271617 0.677231 0.155647
C48   C     C_R   0.693014 0.223512 0.675945 -0.224464
C49   C     C_R   0.705332 0.178035 0.723304 -0.213714
C50   C     C_R   0.202701 0.365170 0.678878 -0.235224
C51   C     C_R   0.354841 0.364948 0.630657 -0.143211
C52   C     C_R   0.519116 0.318185 0.630504 -0.250231
H20   H     H_    0.695335 0.098877 0.820361 0.132472
H21   H     H_    0.134894 0.182998 0.906815 0.139944
H22   H     H_    0.961089 0.279067 0.861725 0.145221
H23   H     H_    0.939772 0.358828 0.778965 0.152597
H24   H     H_    0.076328 0.401490 0.679836 0.138060
H25   H     H_    0.636722 0.317326 0.593358 0.137303
H26   H     H_    0.810740 0.221433 0.638585 0.139550
H27   H     H_    0.832080 0.141691 0.721357 0.140547
O11   O     O_R   0.271890 0.085690 0.087580 -0.595682
O12   O     O_R   0.595690 0.070020 0.939870 -0.603986
O13   O     O_R   0.758900 0.914390 0.912370 -0.574197
C53   C     C_R   0.426818 0.085415 0.918362 0.941449
O14   O     O_R   0.602020 0.095100 0.088770 -0.600540
O15   O     O_R   0.765280 0.939660 0.062330 -0.581021
C54   C     C_R   0.432729 0.118690 0.116947 0.892938
O16   O     O_R   0.265520 0.060430 0.937620 -0.601294
O17   O     O_3   0.429560 0.949050 0.991100 -0.247648
V3    V     V_3+5 0.707160 0.009450 0.001650 1.173859
O18   O     O_R   0.094540 0.929890 0.060190 -0.605577
C55   C     C_R   0.925479 0.914779 0.081811 0.989409
O19   O     O_R   0.088200 0.904800 0.911290 -0.598735
C56   C     C_R   0.918233 0.881244 0.883509 0.999849
V4    V     V_3+5 0.206300 0.990390 0.998440 1.173335
O20   O     O_3   0.934030 0.050940 0.008900 -0.288820
N1    N     N_R   0.692060 0.708159 0.858470 0.225742
O21   O     O_R   0.600380 0.639077 0.840452 -0.406623
O22   O     O_R   0.696063 0.755093 0.926864 -0.413792

loop_
_geom_bond_atom_site_label_1
_geom_bond_atom_site_label_2
_geom_bond_distance
_ccdc_geom_bond_type
V3    O20   1.712164 S    
C9    C14   1.413893 A    
O13   C56   1.291898 A    
C10   C17   1.404144 A    
C21   C22   1.552452 S    
C7    C8    1.405373 A    
C31   C54   1.512122 S    
C4    C19   1.485354 S    
C1    O6    1.289590 A    
O19   V4    2.006000 S    
C50   C51   1.408099 A    
O11   C54   1.289598 A    
C46   C47   1.411032 A    
C1    C36   1.512131 S    
C32   H16   1.108629 S    
C12   H4    1.084028 S    
C35   H19   1.108628 S    
C33   C36   1.543182 S    
C16   C17   1.399721 A    
C38   C39   1.408875 A    
O5    C3    1.291978 A    
C18   C19   1.409419 A    
C53   O16   1.297233 A    
V4    O20   2.151549 S    
V2    O10   2.151533 S    
C30   C35   1.550720 S    
N1    O21   1.300294 A    
C6    C7    1.408527 A    
C48   H26   1.083643 S    
C29   C30   1.548747 S    
O8    V2    2.006216 S    
C34   H18   1.110180 S    
C35   C36   1.536704 S    
C25   C26   1.536140 S    
O13   V3    1.991164 S    
C37   C38   1.408087 A    
O14   C54   1.307157 A    
C28   C56   1.500093 S    
C21   C24   1.555041 S    
C39   C40   1.405255 A    
O1    V2    1.994044 S    
C20   H6    1.084551 S    
O7    V1    2.163556 S    
C31   C34   1.543393 S    
C32   C33   1.550750 S    
O12   C53   1.301288 A    
O9    C4    1.299967 A    
O18   C55   1.299975 A    
C5    H1    1.084640 S    
C47   C52   1.405200 A    
O19   C56   1.298036 A    
C25   C28   1.529601 S    
C29   C32   1.550843 S    
C52   H25   1.084359 S    
C43   C44   1.400332 A    
C37   H20   1.084400 S    
O14   V3    1.987479 S    
C12   C13   1.404177 A    
O12   V3    1.998188 S    
O4    C2    1.301286 A    
C47   C48   1.403761 A    
C41   C42   1.411986 A    
C16   H7    1.083969 S    
C37   C42   1.406378 A    
C23   C24   1.542773 S    
C24   H11   1.109837 S    
C18   H5    1.084684 S    
C33   C34   1.548780 S    
C22   C23   1.542514 S    
O2    C1    1.307152 A    
C44   C45   1.403528 A    
C41   C46   1.414963 A    
C19   C20   1.408561 A    
C8    C11   1.403917 A    
C11   C12   1.399773 A    
C30   H14   1.110220 S    
C5    C6    1.409285 A    
C14   C15   1.412339 A    
C43   H22   1.083640 S    
O15   C55   1.296411 A    
O3    C4    1.296476 A    
O11   V4    2.002240 S    
C26   C27   1.555374 S    
C33   H17   1.110219 S    
C51   C52   1.408827 A    
O6    V2    2.001430 S    
C11   H3    1.083947 S    
O9    V2    1.993080 S    
C21   H10   1.110193 S    
C31   C32   1.536709 S    
C22   H9    1.110030 S    
O2    V1    1.987574 S    
C21   C28   1.545395 S    
C23   C26   1.543520 S    
C44   H23   1.083589 S    
C13   C18   1.404140 A    
C25   N1    1.457588 S    
O16   V4    2.000239 S    
C24   C25   1.536181 S    
C15   C20   1.405357 A    
O1    C2    1.297205 A    
C3    C23   1.498886 S    
C38   C53   1.485727 S    
C7    H2    1.084574 S    
C45   C50   1.406387 A    
O5    V1    1.991112 S    
C40   C43   1.403789 A    
O8    C3    1.297873 A    
O17   V4    1.701898 S    
C5    C10   1.404042 A    
C49   H27   1.083583 S    
C13   C14   1.411293 A    
O4    V1    1.998031 S    
O3    V1    1.996231 S    
V1    O10   1.712234 S    
C45   C46   1.411985 A    
C27   H13   1.109843 S    
C17   H8    1.084020 S    
O17   V3    2.163470 S    
C42   C49   1.403522 A    
N1    O22   1.300145 A    
O18   V4    1.993211 S    
C6    C55   1.485143 S    
O7    V2    1.704043 S    
C34   C35   1.550858 S    
C50   H24   1.084405 S    
C22   C27   1.552718 S    
C48   C49   1.400300 A    
C26   H12   1.110264 S    
C2    C51   1.485656 S    
C40   C41   1.411033 A    
C8    C9    1.412323 A    
C27   C28   1.544253 S    
C29   C36   1.543393 S    
C30   C31   1.543177 S    
C15   C16   1.403917 A    
C9    C10   1.411267 A    
C39   H21   1.084360 S    
O15   V3    1.996011 S    
C29   H15   1.110180 S    
