data_mof_unit_48185.cif
_audit_creation_date              2013-03-05T15:46:21-0500
_audit_creation_method            fapswitch 2.2
_symmetry_space_group_name_H-M    P1
_symmetry_Int_Tables_number       1
_space_group_crystal_system       triclinic
_cell_length_a                    10.205241
_cell_length_b                    10.710714
_cell_length_c                    10.585884
_cell_angle_alpha                 90.518239
_cell_angle_beta                  94.297211
_cell_angle_gamma                 83.387963
_cell_volume                      1146.16686003

loop_
_atom_site_label
_atom_site_type_symbol
_atom_site_description
_atom_site_fract_x
_atom_site_fract_y
_atom_site_fract_z
_atom_type_partial_charge
O1    O     O_R   0.568950 0.489660 0.307530 -0.646216
O2    O     O_R   0.348880 0.522640 0.340350 -0.558714
C1    C     C_R   0.446118 0.517524 0.267190 0.962782
O3    O     O_R   0.610060 0.300270 0.483590 -0.634192
O4    O     O_R   0.389990 0.333260 0.516410 -0.544434
C2    C     C_R   0.496438 0.261040 0.496235 0.984174
Zn1   Zn    Zn3+2 0.646940 0.477980 0.478090 1.027015
Zn2   Zn    Zn3+2 0.353060 0.522020 0.521910 1.140778
O5    O     O_R   0.651120 0.477360 0.659650 -0.563317
O6    O     O_R   0.431050 0.510340 0.692470 -0.596582
O7    O     O_R   0.610010 0.666740 0.483590 -0.631240
O8    O     O_R   0.389940 0.699730 0.516410 -0.587143
C3    C     C_R   0.554556 0.497213 0.733625 0.938820
C4    C     C_R   0.503968 0.739567 0.500678 0.852004
C5    C     C_R   0.609376 0.109582 0.289075 0.315524
C6    C     C_R   0.715999 0.043667 0.231785 -0.166343
H1    H     H_    0.757003 0.082427 0.151376 0.206334
C7    C     C_R   0.767777 0.925110 0.274836 -0.112188
H2    H     H_    0.851862 0.875523 0.232046 0.218026
C8    C     C_R   0.706194 0.866571 0.367008 -0.121352
H3    H     H_    0.751698 0.774339 0.394118 0.220938
C9    C     C_R   0.595249 0.929468 0.423578 0.043235
C10   C     C_R   0.562112 0.057613 0.398516 -0.038774
C11   C     C_R   0.488344 0.129301 0.487666 -0.180865
C12   C     C_R   0.423592 0.071865 0.580677 0.303039
H4    H     H_    0.373450 0.897882 0.646385 0.218615
C13   C     C_R   0.429086 0.943162 0.580252 -0.188458
C14   C     C_R   0.513963 0.871808 0.503428 -0.118405
H5    H     H_    0.391881 0.617434 0.884978 0.199237
C15   C     C_2   0.418750 0.542732 0.133168 -0.295235
C16   C     C_2   0.504732 0.596052 0.066451 -0.049986
H6    H     H_    0.678770 0.485071 0.913597 0.211752
C17   C     C_2   0.582784 0.519218 0.867374 -0.176573
C18   C     C_2   0.488513 0.584175 0.930588 -0.113210
H7    H     H_    0.332951 0.506051 0.085647 0.217715
N1    N     N_2   0.157290 0.551390 0.551110 -0.054882
C19   C     C_2   0.075781 0.472438 0.509089 0.315411
N2    N     N_2   0.842740 0.448550 0.448960 -0.239677
C20   C     C_2   0.931050 0.492553 0.527844 0.277979
N3    N     N_R   0.357619 0.141480 0.679169 0.235043
O9    O     O_R   0.247961 0.107937 0.715974 -0.273706
O10   O     O_R   0.419829 0.219588 0.749243 -0.368710
N4    N     N_R   0.892964 0.545737 0.646201 0.229138
O11   O     O_R   0.952145 0.499337 0.751427 -0.332786
O12   O     O_R   0.823763 0.655416 0.648257 -0.316818
N5    N     N_R   0.126556 0.354178 0.457045 0.192471
O13   O     O_R   0.091261 0.250934 0.500712 -0.348386
O14   O     O_R   0.177442 0.351332 0.347986 -0.289144
C21   C     C_2   0.868363 0.424345 0.319861 0.573172
H8    H     H_    0.820741 0.351650 0.268847 0.104802
O15   O     O_2   0.934223 0.490373 0.262844 -0.536560
N6    N     N_R   0.105281 0.674173 0.576768 0.301751
O16   O     O_R   0.161164 0.734748 0.668988 -0.311741
O17   O     O_R   0.025199 0.737547 0.492611 -0.370208
N7    N     N_R   0.539212 0.218081 0.225461 0.189775
O18   O     O_R   0.596293 0.277070 0.141815 -0.408156
O19   O     O_R   0.411197 0.238392 0.227237 -0.344367
C22   C     C_2   0.614251 0.663369 0.123925 0.513882
H9    H     H_    0.620928 0.684184 0.223863 0.041754
O20   O     O_2   0.696103 0.699659 0.058716 -0.516799

loop_
_geom_bond_atom_site_label_1
_geom_bond_atom_site_label_2
_geom_bond_distance
_ccdc_geom_bond_type
O4    Zn2   2.014598 S    
C20   N4    1.433333 S    
C10   C11   1.416743 A    
C3    C17   1.446249 S    
C1    C15   1.447030 S    
N1    N6    1.392605 S    
O8    C4    1.307141 A    
Zn2   O8    1.984501 S    
C2    C11   1.424576 S    
H6    C17   1.087028 S    
C8    H3    1.073965 S    
N7    O18   1.301832 A    
N3    O10   1.301432 A    
C17   C18   1.338394 D    
C19   N5    1.433677 S    
C16   C18   1.441516 S    
C19   C20   1.495761 S    
N2    C21   1.426462 S    
C9    C14   1.420062 A    
N6    O16   1.299821 A    
Zn1   O7    2.014599 S    
N4    O12   1.300004 A    
H4    C13   1.084811 S    
N2    C20   1.307507 D    
C15   H7    1.087993 S    
N4    O11   1.301004 A    
O3    Zn1   1.984501 S    
O4    C2    1.289314 A    
C16   C22   1.488274 S    
C5    C10   1.428961 A    
N1    C19   1.305611 D    
Zn1   N2    2.032912 S    
N6    O17   1.302453 A    
O2    C1    1.299781 A    
C7    C8    1.390629 A    
N7    O19   1.300987 A    
C12   N3    1.439388 S    
C15   C16   1.345538 D    
O7    C4    1.282456 A    
N5    O14   1.299610 A    
O3    C2    1.294406 A    
C12   C13   1.373155 A    
C22   O20   1.221227 D    
C5    C6    1.401588 A    
C11   C12   1.409482 A    
C6    C7    1.385357 A    
C21   H8    1.083630 S    
Zn2   N1    2.032753 S    
C21   O15   1.222364 D    
C13   C14   1.391982 A    
Zn1   O5    1.919302 S    
O5    C3    1.301521 A    
N5    O13   1.300838 A    
C7    H2    1.082846 S    
O1    Zn1   1.916990 S    
N3    O9    1.301419 A    
C4    C14   1.431605 S    
C22   H9    1.077955 S    
C9    C10   1.398150 A    
H5    C18   1.087832 S    
Zn2   O6    1.916990 S    
O2    Zn2   1.919302 S    
C8    C9    1.418814 A    
C6    H1    1.082489 S    
O1    C1    1.295642 A    
O6    C3    1.294686 A    
C5    N7    1.437683 S    
