data_mof_unit_60426.cif
_audit_creation_date              2012-12-10T20:03:57-0500
_audit_creation_method            fapswitch 2.2
_symmetry_space_group_name_H-M    P1
_symmetry_Int_Tables_number       1
_space_group_crystal_system       triclinic
_cell_length_a                    19.311066
_cell_length_b                    18.464217
_cell_length_c                    10.754054
_cell_angle_alpha                 90.003872
_cell_angle_beta                  90.210927
_cell_angle_gamma                 89.996658
_cell_volume                      3834.47942665

loop_
_atom_site_label
_atom_site_type_symbol
_atom_type_description
_atom_site_fract_x
_atom_site_fract_y
_atom_site_fract_z
_atom_type_partial_charge
C1    C     C_R   0.365515 0.500015 0.500611 0.964986
C2    C     C_R   0.634475 0.500016 0.501053 0.964612
C3    C     C_R   0.709796 0.499402 0.508579 -0.292391
C4    C     C_R   0.290189 0.499369 0.507512 -0.297847
C5    C     C_R   0.964439 0.528399 0.629090 0.623823
C6    C     C_R   0.036331 0.528380 0.628694 0.621376
C7    C     C_R   0.071588 0.494916 0.530664 -0.064466
C8    C     C_R   0.928452 0.494927 0.531491 -0.065353
C9    C     C_R   0.035456 0.461452 0.433562 -0.218461
C10   C     C_R   0.963835 0.461444 0.433993 -0.220168
C11   C     C_R   0.543390 0.726037 0.578015 0.723600
C12   C     C_R   0.456708 0.726078 0.421870 0.726660
C13   C     C_R   0.544189 0.802041 0.579482 -0.328770
C14   C     C_R   0.455947 0.802078 0.420450 -0.331344
C15   C     C_R   0.500067 0.841449 0.499996 -0.068824
C16   C     C_R   0.491120 0.962063 0.388840 -0.151055
C17   C     C_R   0.509056 0.962062 0.611186 -0.151826
C18   C     C_R   0.491104 0.038097 0.388853 -0.174232
C19   C     C_R   0.509056 0.038099 0.611194 -0.173937
C20   C     C_R   0.500069 0.077370 0.500030 0.117166
C21   C     C_R   0.501498 0.499926 0.262363 0.935815
C22   C     C_R   0.498501 0.499930 0.737637 0.931176
C23   C     C_R   0.500085 0.922784 0.500009 0.197941
C24   C     C_R   0.544278 0.198106 0.579447 -0.263774
C25   C     C_R   0.455783 0.198069 0.420613 -0.264300
C26   C     C_R   0.543450 0.274087 0.577864 0.026814
C27   C     C_R   0.456572 0.274050 0.422154 0.026060
C28   C     C_R   0.500042 0.158694 0.500036 0.121213
C29   C     C_2   0.502002 0.438846 0.933106 -0.159446
C30   C     C_2   0.497951 0.438845 0.066874 -0.160800
C31   C     C_2   0.491964 0.499844 0.868944 -0.281168
C32   C     C_2   0.508031 0.499834 0.131054 -0.281616
C33   C     C_R   0.743869 0.433607 0.531928 -0.314420
C34   C     C_R   0.256153 0.433439 0.529394 -0.315570
C35   C     C_R   0.815495 0.431488 0.542104 -0.048439
C36   C     C_R   0.184567 0.431287 0.539403 -0.049334
C37   C     C_R   0.853424 0.495943 0.528637 -0.103827
C38   C     C_R   0.146612 0.495841 0.527096 -0.103075
C39   C     C_R   0.819708 0.561776 0.506011 0.645105
C40   C     C_R   0.180277 0.561768 0.505531 0.643150
C41   C     C_R   0.748125 0.563697 0.495950 0.559860
C42   C     C_R   0.251826 0.563727 0.495754 0.555384
H1    H     H_    0.512692 0.387573 0.887371 0.174205
H2    H     H_    0.487232 0.387580 0.112596 0.174399
H3    H     H_    0.579861 0.829682 0.641166 0.196696
H4    H     H_    0.420330 0.829747 0.358701 0.197300
H5    H     H_    0.485273 0.934029 0.301026 0.147151
H6    H     H_    0.514911 0.934025 0.698989 0.146880
H7    H     H_    0.485236 0.066142 0.301059 0.140394
H8    H     H_    0.514919 0.066145 0.698994 0.140341
H9    H     H_    0.580024 0.170550 0.641100 0.144432
H10   H     H_    0.420054 0.170483 0.358967 0.144457
H11   H     H_    0.577745 0.304049 0.638777 0.125724
H12   H     H_    0.422274 0.303981 0.361208 0.128743
H13   H     H_    0.477025 0.550684 0.911514 0.167948
H14   H     H_    0.522997 0.550665 0.088495 0.168665
H15   H     H_    0.714773 0.383799 0.543210 0.202606
H16   H     H_    0.285254 0.383548 0.539803 0.206506
H17   H     H_    0.062832 0.436039 0.357361 0.193690
H18   H     H_    0.935868 0.436027 0.358129 0.193666
N1    N     N_R   0.500000 0.689440 0.500000 -0.215594
N2    N     N_R   0.500000 0.310560 0.500000 -0.096769
O1    O     O_R   0.398180 0.560840 0.499970 -0.524712
O2    O     O_R   0.601820 0.560840 0.500030 -0.521154
O3    O     O_R   0.398180 0.439210 0.499910 -0.648309
O4    O     O_R   0.601820 0.439210 0.500090 -0.648147
O5    O     O_R   0.500000 0.560800 0.319070 -0.577604
O6    O     O_R   0.500000 0.560800 0.680930 -0.582637
O7    O     O_R   0.499990 0.439170 0.319010 -0.639044
O8    O     O_R   0.500010 0.439170 0.680990 -0.639723
Zn1   Zn    Zn3+2 0.500000 0.581210 0.500000 1.118146
Zn2   Zn    Zn3+2 0.500000 0.418790 0.500000 0.942699
C43   C     C_1   0.848943 0.363037 0.567801 0.233695
N3    N     N_1   0.875765 0.308260 0.588376 -0.170366
C44   C     C_1   0.151221 0.362711 0.563998 0.233877
N4    N     N_1   0.124454 0.307841 0.583685 -0.169568
F1    F     F_    0.856490 0.623865 0.490909 -0.560526
F2    F     F_    0.143479 0.623964 0.491446 -0.560275
F3    F     F_    0.716836 0.628144 0.472288 -0.571324
F4    F     F_    0.283040 0.628317 0.473489 -0.558897
F5    F     F_    0.929874 0.560505 0.724019 -0.575385
F6    F     F_    0.071605 0.560431 0.723294 -0.577571
F7    F     F_    0.586401 0.688848 0.654678 -0.598259
F8    F     F_    0.413860 0.688935 0.344861 -0.586659

loop_
_geom_bond_atom_site_label_1
_geom_bond_atom_site_label_2
_ccdc_geom_bond_type
C13   H3    S    
C42   F4    S    
C6    F6    S    
C43   N3    T    
C19   C20   A    
C17   H6    S    
C27   H12   S    
C39   C41   A    
C25   C28   A    
C17   C23   A    
C39   F1    S    
C27   N2    A    
C24   C26   A    
C5    C6    A    
C3    C33   A    
C12   F8    S    
C18   C20   A    
O2    Zn1   S    
C33   C35   A    
C3    C41   A    
O4    Zn2   S    
C1    O3    A    
C30   C32   D    
C9    C10   A    
O5    Zn1   S    
N1    Zn1   S    
C24   H9    S    
C15   C23   S    
C29   H1    S    
C30   H2    S    
C1    O1    A    
C16   H5    S    
C2    O2    A    
C37   C39   A    
C21   C32   S    
C4    C34   A    
C22   C31   S    
C14   H4    S    
C20   C28   S    
C11   F7    S    
C21   O7    A    
C9    H17   S    
O7    Zn2   S    
C10   H18   S    
C44   N4    T    
C29   C30   S    
C36   C44   S    
C5    F5    S    
N2    Zn2   S    
C22   O6    A    
C16   C18   A    
C12   C14   A    
C16   C23   A    
C13   C15   A    
C40   F2    S    
C8    C37   S    
C26   H11   S    
C7    C9    A    
C35   C43   S    
C33   H15   S    
C35   C37   A    
C24   C28   A    
O1    Zn1   S    
C11   N1    A    
C41   F3    S    
C5    C8    A    
C2    O4    A    
C6    C7    A    
C25   C27   A    
O3    Zn2   S    
C1    C4    S    
C36   C38   A    
C2    C3    S    
C26   N2    A    
C25   H10   S    
C29   C31   D    
C38   C40   A    
C12   N1    A    
C11   C13   A    
C19   H8    S    
C4    C42   A    
O6    Zn1   S    
C40   C42   A    
C17   C19   A    
C7    C38   S    
C22   O8    A    
C34   C36   A    
C8    C10   A    
C34   H16   S    
C14   C15   A    
O8    Zn2   S    
C31   H13   S    
C32   H14   S    
C21   O5    A    
C18   H7    S    
