data_mof_unit_17768.cif
_audit_creation_date              2012-12-10T18:57:10-0500
_audit_creation_method            fapswitch 2.2
_symmetry_space_group_name_H-M    P1
_symmetry_Int_Tables_number       1
_space_group_crystal_system       triclinic
_cell_length_a                    8.72505
_cell_length_b                    10.875028
_cell_length_c                    9.616172
_cell_angle_alpha                 88.058726
_cell_angle_beta                  97.380454
_cell_angle_gamma                 92.824594
_cell_volume                      903.423710182

loop_
_atom_site_label
_atom_site_type_symbol
_atom_type_description
_atom_site_fract_x
_atom_site_fract_y
_atom_site_fract_z
_atom_type_partial_charge
C1    C     C_R   0.498086 0.262443 0.501083 0.857675
C2    C     C_R   0.544131 0.940305 0.387369 -0.254871
C3    C     C_R   0.488285 0.869539 0.494773 -0.118946
C4    C     C_R   0.419035 0.929332 0.594199 -0.011959
C5    C     C_3   0.426416 0.913538 0.749679 -0.515855
C6    C     C_3   0.415863 0.054650 0.750427 0.463851
C7    C     C_R   0.631365 0.529681 0.085165 0.121097
C8    C     C_R   0.378100 0.450884 0.063762 -0.172115
C9    C     C_R   0.375902 0.449605 0.912902 0.579203
C10   C     C_R   0.633058 0.524409 0.940079 0.136046
C11   C     C_3   0.744039 0.631480 0.933421 0.259172
C12   C     C_R   0.204215 0.499509 0.464212 0.886351
C13   C     C_3   0.741117 0.641664 0.091418 -0.279597
C14   C     C_R   0.498491 0.737119 0.498508 0.813627
C15   C     C_R   0.795788 0.501936 0.535558 0.867051
C16   C     C_2   0.038357 0.497067 0.444453 -0.343771
C17   C     C_2   0.961612 0.507053 0.554320 -0.336517
C18   C     C_R   0.415845 0.055945 0.593873 -0.014716
C19   C     C_R   0.490233 0.128697 0.497653 -0.189453
C20   C     C_R   0.544245 0.068830 0.385694 0.445740
Cu1   Cu    Cu3+1 0.499990 0.499980 0.640670 1.019949
Cu2   Cu    Cu3+1 0.500010 0.500020 0.359330 0.993506
H1    H     H_    0.979152 0.485381 0.338895 0.173336
H2    H     H_    0.691864 0.706521 0.863588 0.098511
H3    H     H_    0.853901 0.624428 0.155287 0.162945
H4    H     H_    0.021100 0.520275 0.659160 0.214220
H5    H     H_    0.598121 0.896419 0.310647 0.211127
H6    H     H_    0.322776 0.860093 0.779121 0.183526
H7    H     H_    0.536848 0.875883 0.798148 0.201537
H8    H     H_    0.283654 0.411283 0.114910 0.147246
N1    N     N_R   0.500980 0.500930 0.148050 -0.180380
N2    N     N_R   0.500990 0.500890 0.852140 -0.248994
O1    O     O_R   0.500000 0.319640 0.618810 -0.529072
O2    O     O_R   0.500020 0.319680 0.381230 -0.559734
O3    O     O_R   0.274830 0.499980 0.591380 -0.525115
O4    O     O_R   0.274850 0.500020 0.353800 -0.601523
O5    O     O_R   0.499980 0.680320 0.618770 -0.605830
O6    O     O_R   0.500000 0.680360 0.381190 -0.552234
O7    O     O_R   0.725150 0.499980 0.646200 -0.560693
O8    O     O_R   0.725170 0.500020 0.408620 -0.581724
O9    O     O_3   0.256356 0.391444 0.825006 -0.535667
C21   C     C_3   0.121049 0.362973 0.888235 -0.332383
H9    H     H_    0.025247 0.337440 0.805744 0.202481
H10   H     H_    0.084673 0.443126 0.941731 0.201482
H11   H     H_    0.137426 0.282993 0.962484 0.189155
O10   O     O_3   0.887800 0.595045 0.901184 -0.587043
C22   C     C_3   0.982540 0.700882 0.878657 -0.325308
H12   H     H_    0.998449 0.760887 0.971363 0.211511
H13   H     H_    0.934585 0.753630 0.783071 0.161551
H14   H     H_    0.098544 0.671592 0.861567 0.190344
C23   C     C_2   0.679769 0.763772 0.116117 0.784312
O11   O     O_2   0.540761 0.779928 0.096544 -0.601108
O12   O     O_R   0.786867 0.862610 0.143755 -0.777620
H15   H     H_    0.738038 0.945357 0.137023 0.336177
O13   O     O_3   0.616291 0.134791 0.284997 -0.587433
C24   C     C_3   0.514513 0.136600 0.158557 -0.168169
H16   H     H_    0.565240 0.200938 0.083160 0.211249
H17   H     H_    0.399597 0.170957 0.173159 0.171181
H18   H     H_    0.499290 0.044025 0.111899 0.199129
C25   C     C_2   0.261845 0.088108 0.790091 0.864907
O14   O     O_2   0.235968 0.072475 0.911510 -0.635961
O15   O     O_R   0.146182 0.130026 0.687503 -0.764690
H19   H     H_    0.043721 0.137335 0.724911 0.314462
O16   O     O_3   0.539561 0.125640 0.825647 -0.586468
C26   C     C_3   0.689619 0.085890 0.815163 -0.319420
H20   H     H_    0.704624 0.054395 0.709413 0.161727
H21   H     H_    0.720289 0.012419 0.895095 0.180438
H22   H     H_    0.773582 0.164677 0.838616 0.188549

loop_
_geom_bond_atom_site_label_1
_geom_bond_atom_site_label_2
_ccdc_geom_bond_type
C8    C9    A    
C7    C10   A    
O13   C24   S    
O15   H19   S    
Cu1   O3    S    
C6    C25   S    
C12   O4    A    
C5    H6    S    
Cu2   O4    S    
O9    C21   S    
C9    O9    S    
C19   C20   A    
Cu1   O7    S    
C24   H18   S    
C26   H22   S    
C4    C18   A    
O16   C26   S    
C2    C3    A    
Cu2   O8    S    
C8    H8    S    
C22   H13   S    
O12   H15   S    
C24   H16   S    
C14   O5    A    
C4    C5    S    
C11   C13   S    
C15   O7    A    
C2    H5    S    
C3    C14   S    
C21   H10   S    
C13   H3    S    
C20   O13   S    
Cu2   O2    S    
C17   H4    S    
Cu1   Cu2   S    
C7    N1    A    
C24   H17   S    
C1    O2    A    
C18   C19   A    
C22   H14   S    
C5    H7    S    
C5    C6    S    
C6    C18   S    
Cu1   N2    S    
C12   O3    A    
C15   O8    A    
C1    C19   S    
C14   O6    A    
C21   H9    S    
C1    O1    A    
C23   O11   D    
Cu2   O6    S    
C22   H12   S    
C10   N2    A    
C11   H2    S    
C7    C13   S    
Cu1   O1    S    
C16   H1    S    
Cu1   O5    S    
C25   O15   S    
C26   H20   S    
C10   C11   S    
C6    O16   S    
C15   C17   S    
O10   C22   S    
C25   O14   D    
C11   O10   S    
C9    N2    A    
C26   H21   S    
Cu2   N1    S    
C13   C23   S    
C8    N1    A    
C2    C20   A    
C3    C4    A    
C12   C16   S    
C16   C17   D    
C23   O12   S    
C21   H11   S    
