data_mof_unit_44394.cif
_audit_creation_date              2013-03-05T16:32:25-0500
_audit_creation_method            fapswitch 2.2
_symmetry_space_group_name_H-M    P1
_symmetry_Int_Tables_number       1
_space_group_crystal_system       triclinic
_cell_length_a                    10.685853
_cell_length_b                    10.854768
_cell_length_c                    9.560945
_cell_angle_alpha                 90.804509
_cell_angle_beta                  90.936164
_cell_angle_gamma                 91.212328
_cell_volume                      1108.48643028

loop_
_atom_site_label
_atom_site_type_symbol
_atom_site_description
_atom_site_fract_x
_atom_site_fract_y
_atom_site_fract_z
_atom_type_partial_charge
O1    O     O_R   0.500000 0.319640 0.618810 -0.567810
O2    O     O_R   0.500010 0.319680 0.381230 -0.532200
C1    C     C_R   0.494634 0.262460 0.498738 0.891959
O3    O     O_R   0.316850 0.499950 0.618770 -0.555424
O4    O     O_R   0.316860 0.499990 0.381190 -0.600982
C2    C     C_R   0.259782 0.499415 0.498904 0.952392
Cu1   Cu    Cu3+1 0.499990 0.499980 0.640670 1.083942
Cu2   Cu    Cu3+1 0.500010 0.500020 0.359330 1.055591
O5    O     O_R   0.499990 0.680320 0.618770 -0.561482
O6    O     O_R   0.500000 0.680360 0.381190 -0.544614
O7    O     O_R   0.683140 0.500010 0.618810 -0.537800
O8    O     O_R   0.683150 0.500050 0.381230 -0.587916
C3    C     C_R   0.494090 0.737831 0.500259 0.932551
C4    C     C_R   0.740410 0.499963 0.500954 0.910875
C5    C     C_3   0.039861 0.398216 0.558216 0.236718
C6    C     C_3   0.953528 0.399726 0.427679 -0.329268
H1    H     H_    0.914438 0.317308 0.370919 0.224514
C7    C     C_3   0.876669 0.499303 0.502336 -0.292540
C8    C     C_3   0.962301 0.495506 0.632832 0.555755
C9    C     C_3   0.044972 0.597229 0.569945 0.133875
C10   C     C_3   0.959184 0.601703 0.440185 0.598502
C11   C     C_3   0.038020 0.503559 0.365170 -0.226611
C12   C     C_3   0.123779 0.499603 0.497233 -0.334430
H2    H     H_    0.069927 0.508068 0.255400 0.221852
C13   C     C_R   0.458181 0.066112 0.619151 -0.038873
C14   C     C_R   0.474882 0.129746 0.495330 -0.363390
C15   C     C_R   0.464630 0.062420 0.368379 0.589442
C16   C     C_R   0.462697 0.933631 0.369797 0.573184
C17   C     C_R   0.473952 0.870728 0.498073 -0.354328
C18   C     C_R   0.457309 0.939422 0.620983 -0.014322
C19   C     C_3   0.519552 0.939441 0.761858 0.454518
C20   C     C_3   0.521342 0.079289 0.758539 0.520810
H3    H     H_    0.614360 0.899791 0.761818 0.042120
H4    H     H_    0.616600 0.122355 0.755168 0.035345
C21   C     C_R   0.603528 0.539344 0.076862 0.182323
N1    N     N_R   0.500800 0.500930 0.147930 -0.198930
C22   C     C_R   0.403561 0.448333 0.071727 0.054716
H5    H     H_    0.324453 0.408194 0.125061 0.162458
C23   C     C_R   0.403711 0.448004 0.923085 0.064318
H6    H     H_    0.324850 0.407184 0.865806 0.194327
N2    N     N_R   0.500800 0.500890 0.852020 -0.231229
C24   C     C_R   0.603122 0.541534 0.929024 0.228045
C25   C     C_3   0.654879 0.670967 0.935225 0.065444
C26   C     C_3   0.664023 0.662724 0.093416 -0.435865
H7    H     H_    0.584950 0.737219 0.900485 0.183403
H8    H     H_    0.759459 0.655689 0.139810 0.264173
H9    H     H_    0.604441 0.730069 0.146994 0.269860
F1    F     F_    0.443586 0.131846 0.856260 -0.518884
N3    N     N_R   0.774471 0.686063 0.864679 0.199195
O9    O     O_R   0.772930 0.716716 0.733778 -0.327408
O10   O     O_R   0.879601 0.695749 0.935137 -0.225694
N4    N     N_R   0.080140 0.284783 0.623490 0.176146
O11   O     O_R   0.997038 0.208480 0.672829 -0.258829
O12   O     O_R   0.197785 0.256771 0.628487 -0.322620
F2    F     F_    0.925340 0.486448 0.770099 -0.570626
N5    N     N_R   0.092197 0.707693 0.644171 0.196423
O13   O     O_R   0.014980 0.792019 0.682826 -0.172255
O14   O     O_R   0.211773 0.728356 0.660907 -0.300834
F3    F     F_    0.915107 0.707983 0.380419 -0.598705
F4    F     F_    0.463527 0.119525 0.242870 -0.553504
F5    F     F_    0.455181 0.872474 0.245197 -0.578331
F6    F     F_    0.439031 0.893900 0.861812 -0.519071

loop_
_geom_bond_atom_site_label_1
_geom_bond_atom_site_label_2
_geom_bond_distance
_ccdc_geom_bond_type
O4    Cu2   1.971629 S    
Cu1   O7    1.971628 S    
C25   C26   1.518029 S    
C19   H3    1.109082 S    
C22   H5    1.081292 S    
C7    C10   1.536312 S    
C25   H7    1.098739 S    
N2    C24   1.369800 A    
C4    C7    1.456057 S    
C19   C20   1.518520 S    
C8    C9    1.534882 S    
C26   H9    1.105438 S    
C9    N5    1.461112 S    
C18   C19   1.492388 S    
Cu2   O8    1.964765 S    
C15   C16   1.397946 A    
C16   F5    1.356004 S    
N4    O12   1.299906 A    
C13   C20   1.487673 S    
C5    C12   1.532510 S    
O2    C1    1.292863 A    
C25   N3    1.461960 S    
Cu1   Cu2   2.689885 S    
C23   N2    1.369804 A    
C6    C7    1.545124 S    
O1    Cu1   1.965757 S    
C5    N4    1.458095 S    
C9    C10   1.532429 S    
C5    C8    1.531763 S    
C21   C26   1.480081 S    
C20   F1    1.385356 S    
C19   F6    1.385699 S    
C14   C15   1.409498 A    
C17   C18   1.398721 A    
N1    C22   1.369287 A    
N4    O11   1.300242 A    
O3    Cu1   1.964765 S    
C2    C12   1.453178 S    
Cu2   O6    1.965757 S    
C16   C17   1.416690 A    
O8    C4    1.289121 A    
C10   F3    1.382740 S    
C15   F4    1.358331 S    
Cu1   N2    2.020468 S    
O4    C2    1.288863 A    
O7    C4    1.291032 A    
C11   H2    1.110189 S    
O3    C2    1.289240 A    
C24   C25   1.499008 S    
C8    F2    1.380928 S    
C5    C6    1.540319 S    
C13   C18   1.375388 A    
N5    O13   1.299113 A    
C22   C23   1.421138 A    
N3    O9    1.299449 A    
Cu2   N1    2.021502 S    
C3    C17   1.463416 S    
C23   H6    1.081051 S    
Cu1   O5    1.971635 S    
C21   C24   1.413946 A    
O5    C3    1.302589 A    
C11   C12   1.549619 S    
C7    C8    1.536694 S    
C6    C11   1.560826 S    
C26   H8    1.109982 S    
N3    O10   1.301989 A    
C13   C14   1.391080 A    
C10   C11   1.547669 S    
C9    C12   1.533505 S    
C1    C14   1.451366 S    
O2    Cu2   1.971637 S    
C21   N1    1.361448 A    
N5    O14   1.299528 A    
C6    H1    1.110175 S    
O1    C1    1.297218 A    
O6    C3    1.293528 A    
C20   H4    1.112243 S    
