data_mof_unit_45721.cif
_audit_creation_date              2012-12-11T14:19:36-0500
_audit_creation_method            fapswitch 2.2
_symmetry_space_group_name_H-M    P1
_symmetry_Int_Tables_number       1
_space_group_crystal_system       triclinic
_cell_length_a                    19.438987
_cell_length_b                    7.241361
_cell_length_c                    17.725751
_cell_angle_alpha                 90.000221
_cell_angle_beta                  107.661587
_cell_angle_gamma                 90.000108
_cell_volume                      2377.55128358

loop_
_atom_site_label
_atom_site_type_symbol
_atom_type_description
_atom_site_fract_x
_atom_site_fract_y
_atom_site_fract_z
_atom_type_partial_charge
O1    O     O_R   0.414820 0.494320 0.416790 -0.546254
O2    O     O_R   0.585180 0.994320 0.583210 -0.546252
O3    O     O_R   0.560270 0.819500 0.430140 -0.543106
O4    O     O_R   0.439730 0.319500 0.569860 -0.543107
C1    C     C_R   0.581202 0.655490 0.414809 0.712757
C2    C     C_R   0.418798 0.155491 0.585191 0.712753
O5    O     O_R   0.413840 0.823740 0.407440 -0.500845
O6    O     O_R   0.586160 0.323740 0.592560 -0.500848
O7    O     O_R   0.437710 0.998590 0.560350 -0.543947
O8    O     O_R   0.562290 0.498590 0.439650 -0.543946
C3    C     C_R   0.386990 0.655637 0.386063 0.732982
C4    C     C_R   0.613010 0.155638 0.613937 0.732982
O9    O     O_3   0.508000 0.662290 0.550200 -0.378214
O10   O     O_3   0.492000 0.162290 0.449800 -0.378210
V1    V     V_3+5 0.498520 0.935380 0.490690 1.460833
V2    V     V_3+5 0.501480 0.435380 0.509310 1.460827
C5    C     C_2   0.788425 0.263829 0.784132 -0.275469
C6    C     C_2   0.211573 0.763827 0.215871 -0.275487
C7    C     C_2   0.812725 0.110966 0.827772 0.159017
C8    C     C_2   0.187275 0.610969 0.172226 0.159025
H1    H     H_    0.822520 0.385784 0.793461 0.119194
H2    H     H_    0.177476 0.885777 0.206547 0.119186
C9    C     C_2   0.714103 0.283359 0.726606 0.474176
C10   C     C_2   0.285897 0.783358 0.273395 0.474189
C11   C     C_2   0.683455 0.143601 0.676950 -0.338942
C12   C     C_2   0.316545 0.643599 0.323050 -0.338936
H3    H     H_    0.711937 0.013381 0.680821 0.155315
H4    H     H_    0.288062 0.513379 0.319178 0.155307
C13   C     C_R   0.324033 0.296909 0.636303 -0.176410
C14   C     C_R   0.675967 0.796910 0.363697 -0.176407
C15   C     C_R   0.369926 0.147621 0.635092 -0.115103
C16   C     C_R   0.630074 0.647621 0.364908 -0.115103
C17   C     C_R   0.368936 0.991180 0.681669 -0.180378
C18   C     C_R   0.631064 0.491179 0.318331 -0.180376
C19   C     C_R   0.323399 0.983271 0.730087 0.065254
C20   C     C_R   0.676601 0.483270 0.269913 0.065254
C21   C     C_R   0.276766 0.133274 0.730038 -0.003066
C22   C     C_R   0.723234 0.633275 0.269962 -0.003067
C23   C     C_R   0.276992 0.289980 0.682607 0.121288
C24   C     C_R   0.723007 0.789981 0.317393 0.121288
C25   C     C_R   0.324011 0.828990 0.778746 0.311323
C26   C     C_R   0.675990 0.328987 0.221255 0.311323
C27   C     C_R   0.277989 0.825879 0.826727 -0.241631
C28   C     C_R   0.722012 0.325876 0.173273 -0.241632
C29   C     C_R   0.230847 0.973491 0.826619 0.024360
C30   C     C_R   0.769153 0.473490 0.173381 0.024360
C31   C     C_R   0.230109 0.127586 0.777683 -0.018990
C32   C     C_R   0.769891 0.627586 0.222317 -0.018990
C33   C     C_R   0.183449 0.277446 0.776955 0.104915
C34   C     C_R   0.816550 0.777448 0.223044 0.104915
C35   C     C_R   0.183824 0.431376 0.729011 -0.177233
C36   C     C_R   0.816174 0.931379 0.270988 -0.177235
C37   C     C_R   0.230221 0.437674 0.682355 -0.166883
C38   C     C_R   0.769777 0.937676 0.317644 -0.166881
C39   C     C_R   0.185968 0.971064 0.876133 0.318806
C40   C     C_R   0.814032 0.471063 0.123867 0.318806
C41   C     C_R   0.136174 0.117979 0.872236 -0.173184
C42   C     C_R   0.863825 0.617979 0.127764 -0.173184
C43   C     C_R   0.136658 0.270869 0.823499 -0.240903
C44   C     C_R   0.863341 0.770871 0.176500 -0.240902
H5    H     H_    0.324141 0.417758 0.600211 0.127316
H6    H     H_    0.675859 0.917758 0.399789 0.127316
H7    H     H_    0.404782 0.876969 0.681048 0.172988
H8    H     H_    0.595218 0.376967 0.318952 0.172989
H9    H     H_    0.279099 0.706642 0.863980 0.176050
H10   H     H_    0.720903 0.206637 0.136022 0.176051
H11   H     H_    0.099645 0.384456 0.820861 0.155909
H12   H     H_    0.900354 0.884458 0.179138 0.155909
H13   H     H_    0.148426 0.547650 0.727889 0.133681
H14   H     H_    0.851573 0.047654 0.272110 0.133682
H15   H     H_    0.229739 0.558742 0.646257 0.131519
H16   H     H_    0.770259 0.058745 0.353742 0.131522
O11   O     O_R   0.937810 0.773680 0.060480 -0.533798
O12   O     O_R   0.062190 0.273680 0.939520 -0.533799
O13   O     O_R   0.086190 0.439740 0.092580 -0.542134
O14   O     O_R   0.913810 0.939740 0.907420 -0.542135
C45   C     C_R   0.114052 0.607560 0.112515 0.661215
C46   C     C_R   0.885947 0.107559 0.887485 0.661218
O15   O     O_R   0.939760 0.444210 0.069890 -0.528203
O16   O     O_R   0.060240 0.944210 0.930110 -0.528202
O17   O     O_R   0.914790 0.269640 0.916760 -0.548612
O18   O     O_R   0.085210 0.769640 0.083240 -0.548611
C47   C     C_R   0.917178 0.611922 0.082656 0.692622
C48   C     C_R   0.082822 0.111922 0.917344 0.692622
O19   O     O_3   0.992050 0.601530 0.949880 -0.375448
O20   O     O_3   0.007950 0.101530 0.050120 -0.375448
V3    V     V_3+5 0.001480 0.328340 0.009300 1.425528
V4    V     V_3+5 0.998520 0.828340 0.990700 1.425529
O21   O     O_3   0.766626 0.961919 0.820713 -0.656996
H17   H     H_    0.788555 0.871286 0.862971 0.289895
O22   O     O_3   0.233376 0.461928 0.179281 -0.656994
H18   H     H_    0.211449 0.371306 0.137016 0.289885
O23   O     O_3   0.680014 0.454110 0.717134 -0.543105
C49   C     C_3   0.674597 0.517139 0.790501 0.099285
H19   H     H_    0.727625 0.570098 0.827984 0.120647
H20   H     H_    0.655709 0.405761 0.823006 0.115966
C50   C     C_3   0.619929 0.673780 0.775648 -0.618825
H21   H     H_    0.565811 0.622655 0.740499 0.214595
H22   H     H_    0.616671 0.728691 0.832955 0.173797
H23   H     H_    0.636328 0.786950 0.742513 0.240157
O24   O     O_3   0.319987 0.954108 0.282867 -0.543107
C51   C     C_3   0.325386 0.017160 0.209496 0.099274
H24   H     H_    0.272355 0.070139 0.172031 0.120659
H25   H     H_    0.344259 0.905791 0.176973 0.115968
C52   C     C_3   0.380059 0.173789 0.224343 -0.618813
H26   H     H_    0.434181 0.122645 0.259474 0.214589
H27   H     H_    0.383304 0.228720 0.167033 0.173801
H28   H     H_    0.363676 0.286950 0.257495 0.240153
O25   O     O_3   0.370208 0.683592 0.779091 -0.651710
H29   H     H_    0.363727 0.586725 0.815899 0.295733
O26   O     O_3   0.629795 0.183585 0.220912 -0.651709
H30   H     H_    0.636276 0.086718 0.184103 0.295732
O27   O     O_3   0.193403 0.826578 0.928916 -0.648164
H31   H     H_    0.186757 0.875586 0.978418 0.280431
O28   O     O_3   0.806597 0.326575 0.071084 -0.648164
H32   H     H_    0.813244 0.375581 0.021582 0.280432

loop_
_geom_bond_atom_site_label_1
_geom_bond_atom_site_label_2
_ccdc_geom_bond_type
C14   C16   A    
O24   C51   S    
C20   C26   A    
O26   H30   S    
O1    C3    A    
O16   C48   A    
O2    C4    A    
C2    O7    A    
O15   V3    S    
C50   H21   S    
C31   C33   A    
O5    C3    A    
C52   H27   S    
C5    C9    S    
C8    C45   S    
C6    C10   S    
C19   C21   A    
C10   C12   D    
C32   C34   A    
C17   C19   A    
C41   C43   A    
C42   C44   A    
O28   H32   S    
C51   C52   S    
C10   O24   S    
C43   H11   S    
C28   H10   S    
C28   C30   A    
C33   C35   A    
C34   C36   A    
C15   C17   A    
O12   V3    S    
C21   C31   A    
O14   V4    S    
C22   C32   A    
C17   H7    S    
C1    C16   S    
O5    V1    S    
C2    C15   S    
O6    V2    S    
C22   C24   A    
C25   O25   S    
C13   C15   A    
C25   C27   A    
C51   H24   S    
C26   C28   A    
C18   C20   A    
C8    O22   S    
C36   C38   A    
C30   C32   A    
C29   C31   A    
C52   H28   S    
C13   H5    S    
O4    C2    A    
C50   H22   S    
O12   C48   A    
O22   H18   S    
O20   V3    S    
C39   O27   S    
C3    C12   S    
C5    H1    S    
C9    O23   S    
C35   C37   A    
C16   C18   A    
O4    V2    S    
C7    C46   S    
C49   H20   S    
C26   O26   S    
O11   V4    S    
C7    O21   S    
O13   C45   A    
C27   H9    S    
C13   C23   A    
C18   H8    S    
C41   C48   S    
C14   C24   A    
O1    V2    S    
C51   H25   S    
O2    V1    S    
C27   C29   A    
C29   C39   A    
O17   V3    S    
O13   V3    S    
C24   C38   A    
C39   C41   A    
C37   H15   S    
C50   H23   S    
O3    V1    S    
O27   H31   S    
C52   H26   S    
O19   V4    S    
C6    H2    S    
O14   C46   A    
O3    C1    A    
C33   C43   A    
C11   H3    S    
O23   C49   S    
C12   H4    S    
C49   C50   S    
C4    C11   S    
C34   C44   A    
C14   H6    S    
O7    V1    S    
C1    O8    A    
O16   V4    S    
O8    V2    S    
O25   H29   S    
O15   C47   A    
C46   O17   A    
C23   C37   A    
C45   O18   A    
O18   V4    S    
C20   C22   A    
C5    C7    D    
C40   O28   S    
C40   C42   A    
C6    C8    D    
C9    C11   D    
C49   H19   S    
C19   C25   A    
C36   H14   S    
C38   H16   S    
C44   H12   S    
C21   C23   A    
O9    V2    S    
C30   C40   A    
O10   V1    S    
C35   H13   S    
O21   H17   S    
C42   C47   S    
O11   C47   A    
O6    C4    A    
