data_mof_unit_57485.cif
_audit_creation_date              2012-12-11T15:48:03-0500
_audit_creation_method            fapswitch 2.2
_symmetry_space_group_name_H-M    P1
_symmetry_Int_Tables_number       1
_space_group_crystal_system       triclinic
_cell_length_a                    6.922393
_cell_length_b                    17.638401
_cell_length_c                    19.443121
_cell_angle_alpha                 108.598733
_cell_angle_beta                  89.6024
_cell_angle_gamma                 90.526957
_cell_volume                      2249.90745768

loop_
_atom_site_label
_atom_site_type_symbol
_atom_type_description
_atom_site_fract_x
_atom_site_fract_y
_atom_site_fract_z
_atom_type_partial_charge
O1    O     O_R   0.494330 0.415710 0.413720 -0.540125
O2    O     O_R   0.819360 0.430070 0.560210 -0.544999
O3    O     O_R   0.994320 0.584290 0.586280 -0.541049
C1    C     C_R   0.650154 0.414635 0.581546 0.716707
O4    O     O_R   0.823740 0.406290 0.412670 -0.545040
O5    O     O_R   0.998730 0.560340 0.437690 -0.540227
C2    C     C_R   0.654748 0.383048 0.384686 0.693018
O6    O     O_R   0.489920 0.439660 0.562310 -0.536349
O7    O     O_3   0.662330 0.550570 0.508380 -0.370399
V1    V     V_3+5 0.935370 0.490620 0.498440 1.419060
O8    O     O_R   0.328720 0.569930 0.439790 -0.544281
C3    C     C_R   0.160609 0.584739 0.417886 0.711014
O9    O     O_R   0.324340 0.593710 0.587330 -0.545490
C4    C     C_R   0.155173 0.616981 0.615286 0.690129
V2    V     V_3+5 0.435940 0.509380 0.501560 1.418886
O10   O     O_3   0.159110 0.449430 0.491620 -0.366223
C5    C     C_R   0.312135 0.725591 0.717286 -0.149198
H1    H     H_    0.452887 0.707738 0.693247 0.123608
C6    C     C_R   0.300922 0.789397 0.782249 -0.136082
H2    H     H_    0.433595 0.818887 0.806122 0.138879
C7    C     C_R   0.121303 0.814776 0.815784 -0.041912
C8    C     C_R   0.953193 0.774776 0.782368 -0.098420
H3    H     H_    0.812445 0.792551 0.806440 0.129690
C9    C     C_R   0.964362 0.711089 0.717349 -0.153281
H4    H     H_    0.831641 0.681695 0.693440 0.119256
C10   C     C_R   0.144008 0.685499 0.683940 -0.054339
C11   C     C_R   0.992656 0.628600 0.322877 -0.208742
C12   C     C_R   0.152767 0.633899 0.368519 -0.087067
C13   C     C_R   0.305938 0.685984 0.366315 -0.208384
C14   C     C_R   0.297645 0.733815 0.320876 0.097643
C15   C     C_R   0.136997 0.728216 0.275166 0.084585
C16   C     C_R   0.985370 0.674408 0.275518 0.083644
C17   C     C_R   0.448175 0.786936 0.320224 -0.202783
C18   C     C_R   0.437159 0.836330 0.276871 -0.073886
C19   C     C_R   0.274661 0.834261 0.232811 0.003030
C20   C     C_R   0.127795 0.776658 0.229420 0.002903
C21   C     C_R   0.970862 0.767972 0.181228 0.051825
C22   C     C_R   0.821648 0.712247 0.180871 -0.031250
C23   C     C_R   0.828903 0.667067 0.228481 -0.235589
C24   C     C_R   0.255624 0.887742 0.191983 0.357081
C25   C     C_R   0.111237 0.872636 0.137442 -0.193867
C26   C     C_R   0.969049 0.814095 0.133907 -0.223922
H5    H     H_    0.874863 0.587824 0.323366 0.122822
H6    H     H_    0.430220 0.690537 0.401084 0.134295
H7    H     H_    0.575192 0.790420 0.353412 0.144827
H8    H     H_    0.560824 0.874013 0.276486 0.198362
H9    H     H_    0.855691 0.804957 0.093905 0.156610
H10   H     H_    0.712169 0.625593 0.228526 0.132195
C27   C     C_R   0.481131 0.185405 0.867207 -0.248271
C28   C     C_R   0.623374 0.127619 0.862942 -0.194009
C29   C     C_R   0.765927 0.112596 0.807097 0.413542
C30   C     C_R   0.781646 0.165258 0.765018 -0.043419
C31   C     C_R   0.634716 0.221876 0.769344 -0.003989
C32   C     C_R   0.481818 0.230318 0.819447 0.103990
C33   C     C_R   0.940114 0.162909 0.718566 -0.112336
C34   C     C_R   0.946422 0.210096 0.672797 -0.081830
C35   C     C_R   0.794511 0.263439 0.673984 0.047736
C36   C     C_R   0.638899 0.269623 0.722893 0.085098
C37   C     C_R   0.486262 0.323252 0.725173 0.115155
C38   C     C_R   0.334198 0.330082 0.774769 -0.199284
C39   C     C_R   0.332789 0.284535 0.821841 -0.169287
C40   C     C_R   0.794883 0.311349 0.628199 -0.194591
C41   C     C_R   0.642350 0.363884 0.629467 -0.078575
C42   C     C_R   0.487735 0.369125 0.677852 -0.195560
H11   H     H_    0.367642 0.195107 0.907771 0.146753
H12   H     H_    0.063543 0.125800 0.718677 0.201940
H13   H     H_    0.913509 0.307561 0.590678 0.141025
H14   H     H_    0.370394 0.410026 0.679661 0.116886
H15   H     H_    0.216066 0.370756 0.777184 0.126096
H16   H     H_    0.213843 0.291234 0.859803 0.125294
C43   C     C_R   0.810993 0.273739 0.283468 -0.141663
H17   H     H_    0.951128 0.290886 0.308231 0.123127
C44   C     C_R   0.799938 0.209966 0.218476 -0.145287
H18   H     H_    0.932034 0.179793 0.195305 0.125309
C45   C     C_R   0.621143 0.185439 0.184064 -0.020597
C46   C     C_R   0.453707 0.226360 0.216549 -0.093058
H19   H     H_    0.313642 0.209393 0.191679 0.122080
C47   C     C_R   0.464674 0.289969 0.281640 -0.144030
H20   H     H_    0.332540 0.320071 0.304845 0.115789
C48   C     C_R   0.643496 0.314630 0.315972 -0.046763
O11   O     O_R   0.774940 0.060470 0.937800 -0.514099
O12   O     O_R   0.440880 0.093730 0.087350 -0.527161
O13   O     O_R   0.266130 0.939630 0.062280 -0.506021
C49   C     C_R   0.609906 0.117202 0.115236 0.763426
O14   O     O_R   0.445480 0.069960 0.939820 -0.540911
O15   O     O_R   0.270770 0.915690 0.913690 -0.548068
C50   C     C_R   0.614385 0.082393 0.915923 0.787349
O16   O     O_R   0.770300 0.084410 0.086380 -0.554212
O17   O     O_3   0.602600 0.949510 0.991670 -0.371460
V3    V     V_3+5 0.329470 0.009370 0.001550 1.574991
O18   O     O_R   0.940760 0.906160 0.912560 -0.529523
C51   C     C_R   0.110031 0.882938 0.884668 0.766596
O19   O     O_R   0.936150 0.929930 0.060100 -0.540468
C52   C     C_R   0.103874 0.917721 0.084221 0.770367
V4    V     V_3+5 0.828930 0.990450 0.998310 1.571619
O20   O     O_3   0.105670 0.050490 0.008320 -0.376797
C53   C     C_1   0.657157 0.700888 0.133126 0.295666
N1    N     N_1   0.525296 0.691839 0.094998 -0.365423
S1    S     S_3+6 0.899596 0.021511 0.781756 -0.028271
O21   O     O_2   0.086156 0.035352 0.823165 -0.359392
O22   O     O_2   0.784893 0.956768 0.798528 -0.358191
O23   O     O_3   0.947800 0.989664 0.692173 -0.503554
H21   H     H_    0.030347 0.942043 0.684394 0.369690
C54   C     C_1   0.110526 0.201474 0.624529 0.330829
N2    N     N_1   0.241756 0.194394 0.585837 -0.309327
S2    S     S_3+6 0.387494 0.979993 0.217494 -0.007010
O24   O     O_2   0.434624 0.007477 0.297070 -0.325900
O25   O     O_2   0.572478 0.968616 0.174656 -0.336391
O26   O     O_3   0.256810 0.052131 0.200927 -0.510726
H22   H     H_    0.140150 0.057555 0.231871 0.327934

loop_
_geom_bond_atom_site_label_1
_geom_bond_atom_site_label_2
_ccdc_geom_bond_type
C39   H16   S    
C33   C34   A    
O19   C52   A    
C17   H7    S    
C44   H18   S    
V4    O20   S    
C1    O6    A    
C53   N1    T    
C35   C40   A    
C31   C32   A    
C1    C41   S    
C37   C42   A    
C13   C14   A    
C27   H11   S    
C40   H13   S    
C3    C12   S    
C5    C10   A    
C42   H14   S    
C24   S2    S    
C12   C13   A    
C6    C7    A    
C21   C22   A    
C9    C10   A    
C15   C20   A    
O5    C3    A    
C22   C23   A    
O11   V4    S    
C47   C48   A    
C45   C49   S    
S2    O24   D    
C27   C32   A    
C34   C35   A    
C18   C19   A    
C25   C26   A    
C16   C23   A    
C21   C26   A    
C43   C48   A    
O8    V2    S    
C25   C52   S    
C18   H8    S    
O7    V1    S    
C30   C33   A    
O16   V4    S    
C37   C38   A    
O19   V4    S    
O9    C4    A    
C44   C45   A    
C22   C53   S    
C54   N2    T    
C5    H1    S    
O14   C50   A    
C29   S1    S    
C29   C30   A    
C46   H19   S    
C34   C54   S    
O15   V3    S    
O18   C51   A    
C43   C44   A    
C47   H20   S    
C28   C29   A    
C36   C37   A    
O13   C52   A    
C4    C10   S    
C38   C39   A    
C19   C20   A    
O17   V4    S    
O2    C1    A    
C45   C46   A    
C40   C41   A    
S1    O21   D    
C31   C36   A    
C17   C18   A    
C9    H4    S    
O11   C50   A    
O3    C4    A    
C28   C50   S    
O1    V2    S    
C24   C25   A    
S1    O22   D    
O6    V2    S    
O12   C49   A    
O9    V2    S    
C13   H6    S    
C8    C9    A    
O2    V1    S    
C33   H12   S    
C30   C31   A    
O4    C2    A    
O13   V3    S    
C20   C21   A    
C14   C17   A    
C11   C16   A    
O1    C2    A    
C15   C16   A    
C49   O16   A    
C46   C47   A    
O5    V1    S    
O14   V3    S    
V3    O20   S    
C32   C39   A    
O12   V3    S    
C6    H2    S    
C19   C24   A    
O7    V2    S    
C43   H17   S    
O3    V1    S    
V1    O10   S    
O26   H22   S    
C35   C36   A    
C14   C15   A    
S2    O25   D    
C38   H15   S    
C5    C6    A    
C26   H9    S    
O23   H21   S    
O18   V4    S    
C41   C42   A    
C11   H5    S    
O4    V1    S    
S1    O23   S    
C27   C28   A    
C11   C12   A    
C8    H3    S    
C23   H10   S    
O15   C51   A    
O17   V3    S    
C7    C8    A    
C7    C51   S    
V2    O10   S    
O8    C3    A    
C2    C48   S    
S2    O26   S    
