data_mof_unit_55639.cif
_audit_creation_date              2012-12-10T18:04:44-0500
_audit_creation_method            fapswitch 2.2
_symmetry_space_group_name_H-M    P1
_symmetry_Int_Tables_number       1
_space_group_crystal_system       triclinic
_cell_length_a                    19.451922
_cell_length_b                    17.546115
_cell_length_c                    12.568811
_cell_angle_alpha                 89.423458
_cell_angle_beta                  98.956754
_cell_angle_gamma                 91.103741
_cell_volume                      4236.60241852

loop_
_atom_site_label
_atom_site_type_symbol
_atom_type_description
_atom_site_fract_x
_atom_site_fract_y
_atom_site_fract_z
_atom_type_partial_charge
C1    C     C_R   0.411983 0.103610 0.444043 0.878750
C2    C     C_R   0.763210 0.757874 0.649732 -0.068726
C3    C     C_3   0.677398 0.373645 0.635032 -0.928772
C4    C     C_3   0.449260 0.772815 0.832847 0.065943
C5    C     C_3   0.475110 0.751203 0.950391 -0.310012
C6    C     C_3   0.539860 0.797498 0.996683 -0.978073
C7    C     C_3   0.432076 0.263894 0.801111 0.057741
C8    C     C_3   0.485305 0.201779 0.835797 -0.333796
C9    C     C_3   0.559246 0.234606 0.858306 -0.934187
C10   C     C_3   0.949312 0.272651 0.832819 0.066093
C11   C     C_3   0.975208 0.250865 0.950290 -0.309735
C12   C     C_3   0.039794 0.297338 0.996832 -0.978249
C13   C     C_R   0.292512 0.699542 0.665129 -0.059369
C14   C     C_3   0.931988 0.763615 0.801520 0.057592
C15   C     C_3   0.985220 0.701498 0.836152 -0.333923
C16   C     C_3   0.059127 0.734376 0.859177 -0.934095
C17   C     C_3   0.837211 0.090110 0.847140 0.145685
C18   C     C_3   0.804595 0.009819 0.831729 -0.416063
C19   C     C_3   0.859713 0.950563 0.823215 -0.976095
C20   C     C_3   0.735195 0.688267 0.863907 0.178050
C21   C     C_3   0.670430 0.678968 0.918091 -0.441068
C22   C     C_3   0.661287 0.597321 0.957002 -0.908709
C23   C     C_3   0.337084 0.590592 0.847651 0.146801
C24   C     C_R   0.263158 0.257866 0.649691 -0.068588
C25   C     C_3   0.304506 0.510214 0.833875 -0.415497
C26   C     C_3   0.359432 0.450958 0.824184 -0.976717
C27   C     C_3   0.235381 0.188586 0.864183 0.177808
C28   C     C_3   0.170613 0.179363 0.918373 -0.440979
C29   C     C_3   0.161469 0.097757 0.957446 -0.909027
C30   C     C_3   0.799682 0.060231 0.398359 0.122663
C31   C     C_3   0.873225 0.051698 0.370164 -0.391355
C32   C     C_3   0.908896 0.982617 0.427877 -0.975515
C33   C     C_3   0.618385 0.675414 0.340667 0.089624
C34   C     C_3   0.604522 0.620090 0.245715 -0.363010
C35   C     C_R   0.355128 0.741273 0.696398 0.423482
C36   C     C_3   0.550974 0.558744 0.263951 -0.973317
C37   C     C_3   0.299844 0.560264 0.398325 0.122922
C38   C     C_3   0.372825 0.551136 0.368248 -0.389475
C39   C     C_3   0.408904 0.482390 0.426268 -0.976756
C40   C     C_3   0.118189 0.174539 0.341012 0.089794
C41   C     C_3   0.104012 0.119506 0.245752 -0.362908
C42   C     C_3   0.050711 0.057943 0.264187 -0.973154
C43   C     C_R   0.332767 0.235139 0.675164 0.467149
C44   C     C_R   0.855190 0.241117 0.696338 0.423507
C45   C     C_R   0.832784 0.735042 0.675288 0.466816
C46   C     C_R   0.384805 0.780614 0.615160 -0.331261
C47   C     C_R   0.367129 0.212634 0.590968 -0.293467
C48   C     C_R   0.884824 0.280550 0.615129 -0.331394
C49   C     C_R   0.413911 0.893708 0.446846 0.885113
C50   C     C_R   0.867205 0.712613 0.591124 -0.293103
C51   C     C_R   0.696691 0.168773 0.523474 -0.200205
C52   C     C_R   0.678164 0.813982 0.513856 -0.212853
C53   C     C_R   0.196693 0.668767 0.523510 -0.199482
C54   C     C_R   0.177914 0.313673 0.513805 -0.212682
C55   C     C_R   0.687208 0.136940 0.707533 -0.330211
C56   C     C_R   0.664249 0.823385 0.700636 -0.309123
C57   C     C_R   0.187130 0.637095 0.707594 -0.330024
C58   C     C_R   0.164282 0.323483 0.700656 -0.309238
C59   C     C_R   0.375312 0.821847 0.422279 -0.095474
C60   C     C_R   0.912012 0.603637 0.444059 0.878838
C61   C     C_R   0.360366 0.161240 0.408428 -0.084990
C62   C     C_R   0.875290 0.321860 0.422261 -0.095474
C63   C     C_R   0.860511 0.661397 0.408489 -0.084952
C64   C     C_R   0.643830 0.995603 0.133549 0.400118
C65   C     C_R   0.143805 0.495002 0.133544 0.400196
C66   C     C_R   0.378538 0.995895 0.761782 -0.115971
C67   C     C_R   0.878539 0.495899 0.761790 -0.115852
C68   C     C_R   0.351976 0.991832 0.858684 0.454214
C69   C     C_R   0.851987 0.491713 0.858694 0.454163
C70   C     C_R   0.590300 0.898807 0.557436 0.873241
C71   C     C_R   0.913907 0.393709 0.446846 0.885167
C72   C     C_R   0.592832 0.099232 0.558079 0.880538
C73   C     C_R   0.090277 0.398785 0.557425 0.873367
C74   C     C_R   0.092831 0.599232 0.558085 0.880438
C75   C     C_R   0.398412 0.998142 0.954641 -0.278450
C76   C     C_R   0.898429 0.497946 0.954656 -0.278687
C77   C     C_R   0.471205 0.002640 0.953927 -0.033968
C78   C     C_R   0.971219 0.502483 0.953926 -0.033970
C79   C     C_R   0.494792 0.001919 0.853641 0.197983
C80   C     C_R   0.994799 0.501817 0.853636 0.198056
C81   C     C_R   0.521469 0.004027 0.048128 -0.048801
C82   C     C_R   0.764971 0.193919 0.554358 -0.066044
C83   C     C_R   0.021484 0.503842 0.048118 -0.048652
C84   C     C_R   0.593830 0.001906 0.040288 0.060239
C85   C     C_R   0.093834 0.501486 0.040275 0.060247
C86   C     C_R   0.614750 0.003775 0.939664 -0.263480
C87   C     C_R   0.114757 0.503375 0.939648 -0.263752
C88   C     C_R   0.565878 0.002587 0.847969 -0.220660
C89   C     C_R   0.065883 0.502426 0.847954 -0.220572
C90   C     C_R   0.502794 0.004478 0.150599 -0.083476
C91   C     C_R   0.002811 0.504538 0.150584 -0.083747
C92   C     C_R   0.621005 0.995381 0.232439 -0.044783
C93   C     C_R   0.733792 0.766162 0.539357 -0.053647
C94   C     C_R   0.120982 0.495015 0.232434 -0.044223
C95   C     C_R   0.755803 0.162366 0.740750 0.541650
C96   C     C_R   0.723718 0.779795 0.730318 0.501102
C97   C     C_R   0.255696 0.662607 0.740855 0.541480
C98   C     C_R   0.223756 0.279908 0.730324 0.501201
C99   C     C_R   0.657454 0.140397 0.598697 -0.144122
C100  C     C_R   0.643800 0.843377 0.592470 -0.144208
C101  C     C_R   0.157435 0.640427 0.598720 -0.143917
C102  C     C_R   0.143712 0.343291 0.592454 -0.144169
C103  C     C_R   0.355997 0.800619 0.313984 -0.299685
C104  C     C_R   0.264947 0.693982 0.554421 -0.066256
C105  C     C_R   0.330169 0.162579 0.299874 -0.281531
C106  C     C_R   0.855932 0.300688 0.313954 -0.299773
C107  C     C_R   0.830451 0.662973 0.299876 -0.282085
C108  C     C_R   0.317960 0.733666 0.288024 -0.210360
C109  C     C_R   0.265384 0.194059 0.269985 -0.252949
C110  C     C_R   0.817892 0.233747 0.287953 -0.209808
C111  C     C_R   0.765772 0.694680 0.269895 -0.253572
C112  C     C_R   0.293271 0.690711 0.368489 0.499670
C113  C     C_R   0.229259 0.222540 0.347932 0.495953
C114  C     C_R   0.793239 0.190734 0.368392 0.500034
C115  C     C_R   0.233610 0.265935 0.539335 -0.053608
C116  C     C_R   0.729586 0.723089 0.347819 0.495930
C117  C     C_R   0.304227 0.718650 0.475832 -0.031827
C118  C     C_R   0.264052 0.232043 0.456710 -0.023747
C119  C     C_R   0.804237 0.218609 0.475771 -0.031918
C120  C     C_R   0.764275 0.732355 0.456708 -0.023695
C121  C     C_R   0.355618 0.774513 0.504997 -0.006914
C122  C     C_R   0.331276 0.202939 0.485118 -0.019991
C123  C     C_R   0.855624 0.274482 0.504961 -0.007237
C124  C     C_R   0.831427 0.703084 0.485195 -0.019887
C125  C     C_3   0.734002 0.917773 0.117301 0.043322
C126  C     C_R   0.792585 0.199377 0.665053 -0.059051
C127  C     C_3   0.813404 0.915024 0.127997 -0.334059
C128  C     C_3   0.837618 0.841557 0.082952 -0.925524
C129  C     C_3   0.233528 0.416611 0.116818 0.042405
C130  C     C_3   0.312968 0.413128 0.129267 -0.334480
C131  C     C_3   0.337083 0.340028 0.083071 -0.922945
C132  C     C_3   0.252449 0.918719 0.805925 0.087241
C133  C     C_3   0.199420 0.941845 0.708287 -0.385687
C134  C     C_3   0.177060 0.873878 0.635298 -0.928884
C135  C     C_3   0.752557 0.418471 0.805879 0.087311
C136  C     C_3   0.699499 0.441556 0.708253 -0.385738
H1    H     H_    0.659412 0.109658 0.765913 0.179031
H2    H     H_    0.085334 0.500408 0.773472 0.213260
H3    H     H_    0.264643 0.507370 0.760410 0.220035
H4    H     H_    0.385454 0.463545 0.753165 0.256518
H5    H     H_    0.334022 0.393868 0.813390 0.301621
H6    H     H_    0.398975 0.450127 0.898169 0.261478
H7    H     H_    0.281332 0.170373 0.922155 0.197593
H8    H     H_    0.231463 0.149451 0.793790 0.136349
H9    H     H_    0.175363 0.218224 0.988526 0.235998
H10   H     H_    0.123966 0.194783 0.859903 0.221671
H11   H     H_    0.155643 0.057829 0.888580 0.282519
H12   H     H_    0.113905 0.093309 0.995968 0.251806
H13   H     H_    0.673422 0.171702 0.439471 0.206043
H14   H     H_    0.206996 0.081312 0.017492 0.272541
H15   H     H_    0.371783 0.834747 0.249354 0.185934
H16   H     H_    0.353244 0.132763 0.239504 0.177858
H17   H     H_    0.871693 0.334852 0.249337 0.185965
H18   H     H_    0.853547 0.633201 0.239488 0.178079
H19   H     H_    0.770597 0.006270 0.376599 0.165465
H20   H     H_    0.802104 0.065572 0.486758 0.132234
H21   H     H_    0.870005 0.045246 0.281718 0.238376
H22   H     H_    0.905505 0.103273 0.395215 0.211346
H23   H     H_    0.915736 0.990571 0.516512 0.262873
H24   H     H_    0.665404 0.834584 0.432441 0.223938
H25   H     H_    0.960881 0.975746 0.403762 0.273123
H26   H     H_    0.877565 0.929791 0.406823 0.265220
H27   H     H_    0.567866 0.698230 0.355569 0.173019
H28   H     H_    0.640851 0.644583 0.415888 0.127042
H29   H     H_    0.584962 0.652050 0.170764 0.231546
H30   H     H_    0.653591 0.591947 0.234942 0.221049
H31   H     H_    0.569523 0.525780 0.338463 0.266530
H32   H     H_    0.542895 0.519083 0.194647 0.266459
H33   H     H_    0.500501 0.585191 0.270886 0.267454
H34   H     H_    0.270351 0.506380 0.377761 0.165089
H35   H     H_    0.173444 0.671649 0.439497 0.206145
H36   H     H_    0.303262 0.566056 0.486838 0.131823
H37   H     H_    0.368605 0.543918 0.279782 0.239124
H38   H     H_    0.405385 0.602794 0.391662 0.211216
H39   H     H_    0.417092 0.491285 0.514771 0.262968
H40   H     H_    0.460276 0.474807 0.400345 0.273384
H41   H     H_    0.377139 0.429581 0.407361 0.264964
H42   H     H_    0.067757 0.197223 0.356540 0.172829
H43   H     H_    0.140938 0.143498 0.415903 0.126865
H44   H     H_    0.084075 0.151670 0.171148 0.231466
H45   H     H_    0.153026 0.091550 0.234243 0.221000
H46   H     H_    0.164992 0.334083 0.432319 0.223983
H47   H     H_    0.069667 0.024717 0.338290 0.266411
H48   H     H_    0.042332 0.018558 0.194574 0.266505
H49   H     H_    0.000313 0.084234 0.271986 0.267483
H50   H     H_    0.657460 0.991423 0.306137 0.150702
H51   H     H_    0.157428 0.490900 0.306124 0.150780
H52   H     H_    0.307774 0.714878 0.205162 0.184093
H53   H     H_    0.240125 0.189703 0.187112 0.159122
H54   H     H_    0.807684 0.215003 0.205072 0.184234
H55   H     H_    0.740621 0.690546 0.186936 0.159669
H56   H     H_    0.431830 0.813673 0.637702 0.175206
H57   H     H_    0.636795 0.844855 0.762475 0.170045
H58   H     H_    0.421645 0.199421 0.609299 0.167452
H59   H     H_    0.931817 0.313656 0.637699 0.175254
H60   H     H_    0.921701 0.699325 0.609537 0.167510
H61   H     H_    0.710396 0.896159 0.036572 0.164431
H62   H     H_    0.717059 0.879714 0.180396 0.147332
H63   H     H_    0.833302 0.964173 0.084555 0.237331
H64   H     H_    0.836159 0.919241 0.214314 0.222816
H65   H     H_    0.817003 0.791207 0.122393 0.270786
H66   H     H_    0.895363 0.840156 0.097498 0.256976
H67   H     H_    0.819677 0.838842 0.994966 0.311543
H68   H     H_    0.159299 0.609878 0.765990 0.178910
H69   H     H_    0.210464 0.395703 0.035461 0.165189
H70   H     H_    0.215662 0.378259 0.178832 0.147426
H71   H     H_    0.333768 0.462617 0.087603 0.237071
H72   H     H_    0.334929 0.416161 0.216017 0.222684
H73   H     H_    0.315212 0.289357 0.120056 0.270211
H74   H     H_    0.394768 0.337766 0.099539 0.256956
H75   H     H_    0.320373 0.338757 0.994725 0.310993
H76   H     H_    0.449905 0.008155 0.165164 0.141009
H77   H     H_    0.949934 0.508473 0.165121 0.141051
H78   H     H_    0.375938 0.996429 0.027741 0.154580
H79   H     H_    0.136929 0.345099 0.762522 0.170022
H80   H     H_    0.875973 0.496076 0.027770 0.154674
H81   H     H_    0.224816 0.884376 0.861435 0.174003
H82   H     H_    0.291859 0.880088 0.780603 0.164446
H83   H     H_    0.152894 0.965559 0.736443 0.216290
H84   H     H_    0.222084 0.986831 0.660774 0.221252
H85   H     H_    0.222067 0.853100 0.599935 0.276342
H86   H     H_    0.135875 0.891410 0.568694 0.259968
H87   H     H_    0.156247 0.826824 0.681439 0.265018
H88   H     H_    0.724968 0.384044 0.861355 0.173942
H89   H     H_    0.792022 0.379925 0.780532 0.164436
H90   H     H_    0.669011 0.004572 0.931101 0.182255
H91   H     H_    0.652870 0.465006 0.736420 0.216155
H92   H     H_    0.722046 0.486735 0.660914 0.221344
H93   H     H_    0.722485 0.353193 0.599573 0.276360
H94   H     H_    0.636133 0.391105 0.568501 0.259996
H95   H     H_    0.656781 0.326377 0.681018 0.265134
H96   H     H_    0.453339 0.835713 0.822669 0.168519
H97   H     H_    0.483031 0.743689 0.782418 0.112608
H98   H     H_    0.433759 0.761364 0.000310 0.247250
H99   H     H_    0.487196 0.689463 0.955364 0.197068
H100  H     H_    0.577213 0.802122 0.938573 0.258129
H101  H     H_    0.169013 0.504075 0.931053 0.181947
H102  H     H_    0.565725 0.770807 0.072448 0.273439
H103  H     H_    0.524431 0.855418 0.015430 0.279716
H104  H     H_    0.434029 0.304316 0.868986 0.174586
H105  H     H_    0.446302 0.298079 0.732190 0.122967
H106  H     H_    0.472792 0.173182 0.909932 0.234948
H107  H     H_    0.482578 0.158290 0.771808 0.242824
H108  H     H_    0.574046 0.259961 0.783639 0.259339
H109  H     H_    0.595980 0.188420 0.886865 0.283140
H110  H     H_    0.563392 0.278926 0.921576 0.261473
H111  H     H_    0.953325 0.335570 0.822824 0.168536
H112  H     H_    0.344061 0.994207 0.685647 0.160076
H113  H     H_    0.983102 0.243669 0.782277 0.112510
H114  H     H_    0.933803 0.260694 0.000230 0.247390
H115  H     H_    0.987498 0.189174 0.955011 0.196951
H116  H     H_    0.077102 0.302425 0.938696 0.258123
H117  H     H_    0.065809 0.270478 0.072373 0.273288
H118  H     H_    0.024133 0.355077 0.016049 0.279723
H119  H     H_    0.933852 0.803930 0.869503 0.174852
H120  H     H_    0.946284 0.797907 0.732743 0.122998
H121  H     H_    0.972569 0.672696 0.910057 0.235085
H122  H     H_    0.982661 0.658177 0.771968 0.242729
H123  H     H_    0.844055 0.494258 0.685658 0.160107
H124  H     H_    0.074053 0.760021 0.784774 0.259281
H125  H     H_    0.095863 0.688158 0.887575 0.283124
H126  H     H_    0.063122 0.778474 0.922736 0.261517
H127  H     H_    0.870921 0.091977 0.927042 0.160321
H128  H     H_    0.872428 0.101000 0.786561 0.133791
H129  H     H_    0.778415 0.995067 0.901460 0.238423
H130  H     H_    0.765555 0.007343 0.757256 0.219760
H131  H     H_    0.886558 0.963305 0.753097 0.256257
H132  H     H_    0.834310 0.893512 0.811617 0.301461
H133  H     H_    0.898573 0.949544 0.897994 0.261691
H134  H     H_    0.585329 0.000445 0.773495 0.213294
H135  H     H_    0.781140 0.669946 0.921806 0.197806
H136  H     H_    0.731243 0.649247 0.793384 0.136016
H137  H     H_    0.675183 0.717749 0.988332 0.236176
H138  H     H_    0.623781 0.694438 0.859658 0.221476
H139  H     H_    0.655478 0.557461 0.888060 0.282365
H140  H     H_    0.613714 0.592816 0.995496 0.251808
H141  H     H_    0.706806 0.580835 0.017036 0.272811
H142  H     H_    0.371147 0.593066 0.927214 0.160167
H143  H     H_    0.371967 0.600982 0.786455 0.133136
H144  H     H_    0.279330 0.495790 0.904759 0.238872
N1    N     N_R   0.552340 0.000000 0.237260 -0.131974
N2    N     N_R   0.052340 0.500000 0.237260 -0.132046
N3    N     N_R   0.448170 0.000000 0.762060 -0.164976
N4    N     N_R   0.948170 0.500000 0.762060 -0.165007
O1    O     O_R   0.448200 0.076800 0.373930 -0.611495
O2    O     O_R   0.585240 0.076800 0.457600 -0.602535
O3    O     O_R   0.085240 0.423200 0.457600 -0.620251
O4    O     O_R   0.085240 0.576800 0.457600 -0.602395
O5    O     O_R   0.551780 0.923190 0.626070 -0.648719
O6    O     O_R   0.551780 0.076810 0.626070 -0.638273
O7    O     O_R   0.051780 0.423190 0.626070 -0.648737
O8    O     O_R   0.051780 0.576810 0.626070 -0.638412
O9    O     O_3   0.714485 0.994008 0.129691 -0.631542
O10   O     O_3   0.214450 0.492944 0.129735 -0.632376
O11   O     O_3   0.281193 0.984659 0.861931 -0.666770
O12   O     O_R   0.448200 0.923200 0.373930 -0.608864
O13   O     O_3   0.781212 0.484427 0.861939 -0.666746
O14   O     O_3   0.378760 0.749776 0.806565 -0.630137
O15   O     O_3   0.364266 0.230895 0.782408 -0.631983
O16   O     O_3   0.878830 0.249550 0.806514 -0.630168
O17   O     O_3   0.864190 0.730590 0.782558 -0.631987
O18   O     O_3   0.786013 0.147013 0.845974 -0.608979
O19   O     O_3   0.745667 0.766192 0.838808 -0.653702
O20   O     O_3   0.285843 0.647478 0.846181 -0.609086
O21   O     O_3   0.245814 0.266471 0.838824 -0.653793
O22   O     O_3   0.762204 0.120281 0.340173 -0.645511
O23   O     O_R   0.948200 0.576800 0.373930 -0.611529
O24   O     O_3   0.659875 0.738217 0.315394 -0.687986
O25   O     O_3   0.262183 0.620273 0.340362 -0.645832
O26   O     O_3   0.159496 0.237480 0.315681 -0.688015
O27   O     O_R   0.948200 0.423200 0.373930 -0.608791
O28   O     O_R   0.414750 0.076790 0.542400 -0.610937
O29   O     O_R   0.414750 0.923210 0.542400 -0.618801
O30   O     O_R   0.914750 0.576790 0.542400 -0.610993
O31   O     O_R   0.914750 0.423210 0.542400 -0.618814
O32   O     O_R   0.585240 0.923200 0.457600 -0.620138
Zn1   Zn    Zn3+2 0.522330 0.000000 0.387520 0.942219
Zn2   Zn    Zn3+2 0.022330 0.500000 0.387520 0.942312
Zn3   Zn    Zn3+2 0.477660 0.000000 0.612480 0.898775
Zn4   Zn    Zn3+2 0.977660 0.500000 0.612480 0.898731

loop_
_geom_bond_atom_site_label_1
_geom_bond_atom_site_label_2
_ccdc_geom_bond_type
C111  H55   S    
C41   H44   S    
C21   H138  S    
C37   H36   S    
C22   H141  S    
C66   H112  S    
C68   C75   A    
C6    H102  S    
C28   H9    S    
C133  H83   S    
C24   C98   A    
C4    H96   S    
C84   C86   A    
C40   O26   S    
C5    C6    S    
C86   C88   A    
C79   N3    A    
C36   H32   S    
C91   N2    A    
C64   C84   A    
C27   H7    S    
C93   C120  A    
C61   C105  A    
C15   H121  S    
C94   N2    A    
C30   H20   S    
C136  H92   S    
C21   C22   S    
C127  H64   S    
C51   C99   A    
C4    O14   S    
C3    H94   S    
C23   H142  S    
C77   C79   A    
C18   H130  S    
C60   O30   A    
C110  H54   S    
O32   Zn1   S    
C114  O22   S    
C128  H67   S    
C37   C38   S    
C115  C118  A    
C57   C97   A    
C7    H105  S    
C131  H74   S    
O28   Zn3   S    
N1    Zn1   S    
C9    H110  S    
C31   H21   S    
N3    Zn3   S    
C74   C101  S    
C81   C90   A    
N4    Zn4   S    
C87   C89   A    
C22   H139  S    
C104  C117  A    
C6    H100  S    
C108  H52   S    
C4    C5    S    
C38   H37   S    
C62   C106  A    
C119  C123  A    
C83   C91   A    
C55   H1    S    
C2    C96   A    
C130  C131  S    
C30   O22   S    
C91   H77   S    
C129  H70   S    
C30   C31   S    
C45   C50   A    
C57   H68   S    
C132  H82   S    
C13   C97   A    
C130  H72   S    
C14   H120  S    
C20   C21   S    
C89   H2    S    
C125  C127  S    
C24   C43   A    
C67   C69   A    
C43   C47   A    
C44   C48   A    
C52   H24   S    
C112  O25   S    
C58   C98   A    
C29   H12   S    
C63   C124  A    
C7    C8    S    
C19   H133  S    
O31   Zn4   S    
C33   H27   S    
C76   C78   A    
C13   C35   A    
C38   C39   S    
C16   H124  S    
C92   H50   S    
C38   H38   S    
C53   C104  A    
O27   Zn2   S    
C69   C76   A    
C3    C136  S    
C118  C122  A    
C72   O6    A    
C134  H86   S    
C32   H26   S    
C44   O16   S    
O7    Zn4   S    
C74   O4    A    
C34   H29   S    
C110  C114  A    
C114  C119  A    
C98   O21   S    
O3    Zn2   S    
C78   C83   A    
C2    C45   A    
C50   C124  A    
C39   H39   S    
C3    H95   S    
C23   H143  S    
C42   H48   S    
C25   C26   S    
C52   C100  A    
C116  C120  A    
C31   C32   S    
C17   C18   S    
C52   C93   A    
C128  H66   S    
C17   O18   S    
C75   C77   A    
C20   H135  S    
C64   O9    S    
C16   H125  S    
C42   H49   S    
C96   O19   S    
C1    O28   A    
C125  H62   S    
C5    H98   S    
C48   H59   S    
C131  H75   S    
C19   H131  S    
C129  C130  S    
C35   O14   S    
C105  C109  A    
C40   C41   S    
C12   H117  S    
C135  H89   S    
C107  C111  A    
C127  H63   S    
C57   C101  A    
C6    H103  S    
C28   H10   S    
C49   C59   S    
C59   C103  A    
C17   H128  S    
N2    Zn2   S    
O4    Zn2   S    
O8    Zn4   S    
C60   O23   A    
C95   C126  A    
O6    Zn3   S    
C62   C71   S    
C34   C36   S    
C66   N3    A    
C10   C11   S    
C7    H104  S    
O2    Zn1   S    
C55   C99   A    
C14   C15   S    
C10   H111  S    
C67   H123  S    
C72   C99   S    
C87   H101  S    
C41   C42   S    
C70   O32   A    
C3    H93   S    
C48   C123  A    
C1    O1    A    
C135  C136  S    
C28   C29   S    
C25   H3    S    
C26   H4    S    
C135  O13   S    
C112  C117  A    
C68   O11   S    
C18   C19   S    
C80   C89   A    
C82   C126  A    
C23   O20   S    
C50   H60   S    
C65   O10   S    
C53   C101  A    
C131  H73   S    
C111  C116  A    
C58   C102  A    
C26   H5    S    
C9    H109  S    
C103  H15   S    
C32   H23   S    
C58   H79   S    
C69   O13   S    
C90   N1    A    
C41   H45   S    
C82   C119  A    
C25   H144  S    
C79   C88   A    
C39   H41   S    
C22   H140  S    
O29   Zn3   S    
C116  O24   S    
O1    Zn1   S    
C133  H84   S    
C11   H114  S    
C72   O2    A    
C8    H107  S    
C36   H31   S    
O12   Zn1   S    
C108  C112  A    
C21   H137  S    
C40   H43   S    
C129  H69   S    
C76   H80   S    
C77   C81   A    
C54   C115  A    
C27   H8    S    
C73   O7    A    
C97   O20   S    
C33   O24   S    
C74   O8    A    
C15   H122  S    
C88   H134  S    
C30   H19   S    
C83   C85   A    
C136  H91   S    
C80   N4    A    
C133  C134  S    
C64   C92   A    
C127  C128  S    
C56   C96   A    
C105  H16   S    
C54   C102  A    
C46   H56   S    
C67   N4    A    
C1    C61   S    
C29   H11   S    
C18   H129  S    
C113  O26   S    
C12   H116  S    
C132  O11   S    
C90   H76   S    
C129  O10   S    
C14   O17   S    
C78   C80   A    
C31   H22   S    
C53   H35   S    
C10   O16   S    
C51   H13   S    
C134  H87   S    
C34   H30   S    
C35   C46   A    
C59   C121  A    
C66   C68   A    
C4    H97   S    
C47   H58   S    
C135  H88   S    
C44   C126  A    
C36   H33   S    
C60   C63   S    
C15   C16   S    
C49   O12   A    
C132  H81   S    
C117  C121  A    
C130  H71   S    
C29   H14   S    
C14   H119  S    
C109  H53   S    
C132  C133  S    
C54   H46   S    
C46   C121  A    
C103  C108  A    
C20   H136  S    
C109  C113  A    
C16   H126  S    
C106  H17   S    
C125  H61   S    
O23   Zn2   S    
C62   C123  A    
C70   C100  S    
C85   C87   A    
O30   Zn4   S    
C20   O19   S    
C12   H118  S    
C70   O5    A    
C33   H28   S    
C94   H51   S    
C55   C95   A    
C37   H34   S    
C8    C9    S    
C47   C122  A    
C11   H115  S    
C27   O21   S    
C61   C122  A    
C13   C104  A    
C17   H127  S    
C92   N1    A    
C73   O3    A    
C8    H106  S    
O5    Zn3   S    
C134  H85   S    
C32   H25   S    
C33   C34   S    
C51   C82   A    
C40   H42   S    
C65   C94   A    
C45   O17   S    
C86   H90   S    
C56   C100  A    
C63   C107  A    
C71   O27   A    
C81   C84   A    
C49   O29   A    
C106  C110  A    
C43   O15   S    
C73   C102  S    
C2    C93   A    
C39   H40   S    
C125  O9    S    
C11   C12   S    
C65   C85   A    
C7    O15   S    
C42   H47   S    
C75   H78   S    
C10   H113  S    
C37   O25   S    
C56   H57   S    
C95   O18   S    
C128  H65   S    
C23   C25   S    
C107  H18   S    
C113  C118  A    
C24   C115  A    
C5    H99   S    
C27   C28   S    
C26   H6    S    
C9    H108  S    
C120  C124  A    
C71   O31   A    
C19   H132  S    
