data_mof_unit_23068.cif
_audit_creation_date              2012-12-10T17:59:16-0500
_audit_creation_method            fapswitch 2.2
_symmetry_space_group_name_H-M    P1
_symmetry_Int_Tables_number       1
_space_group_crystal_system       triclinic
_cell_length_a                    10.753965
_cell_length_b                    9.58963
_cell_length_c                    10.736152
_cell_angle_alpha                 91.385829
_cell_angle_beta                  90.984402
_cell_angle_gamma                 88.603912
_cell_volume                      1106.37737116

loop_
_atom_site_label
_atom_site_type_symbol
_atom_type_description
_atom_site_fract_x
_atom_site_fract_y
_atom_site_fract_z
_atom_type_partial_charge
C1    C     C_R   0.262437 0.501388 0.498535 0.750344
C2    C     C_3   0.631133 0.487330 0.931214 0.761036
C3    C     C_R   0.065670 0.409265 0.417550 -0.174889
C4    C     C_R   0.063203 0.600098 0.571043 -0.212689
C5    C     C_R   0.936830 0.409627 0.416230 -0.235068
C6    C     C_R   0.934529 0.597160 0.572699 -0.142163
C7    C     C_R   0.871584 0.499970 0.497100 -0.015706
C8    C     C_R   0.128583 0.504130 0.495390 0.002777
C9    C     C_R   0.409163 0.074984 0.437963 -0.150048
C10   C     C_R   0.412193 0.926446 0.433685 -0.148726
C11   C     C_R   0.582813 0.925550 0.572392 0.448338
C12   C     C_R   0.595185 0.071070 0.554311 0.461323
C13   C     C_R   0.495002 0.498696 0.260138 0.765682
C14   C     C_R   0.737623 0.499145 0.498807 0.822583
C15   C     C_R   0.495417 0.500694 0.739974 0.847363
C16   C     C_3   0.436201 0.635714 0.073686 -0.397184
C17   C     C_3   0.415379 0.374345 0.067768 -0.396238
C18   C     C_3   0.424017 0.629948 0.931323 -0.501055
C19   C     C_3   0.421577 0.370953 0.924050 -0.422860
C20   C     C_3   0.628296 0.477766 0.076137 -0.488247
C21   C     C_3   0.493351 0.496376 0.122314 0.106275
C22   C     C_3   0.494204 0.498822 0.878399 0.110535
Cu1   Cu    Cu3+1 0.500020 0.640660 0.500000 0.969458
Cu2   Cu    Cu3+1 0.500020 0.359340 0.500000 0.968944
H1    H     H_    0.496253 0.724341 0.102199 0.177743
H2    H     H_    0.451015 0.272628 0.103335 0.181066
H3    H     H_    0.342821 0.656381 0.114391 0.172535
H4    H     H_    0.316920 0.387635 0.097032 0.162798
H5    H     H_    0.323823 0.625934 0.903774 0.179488
H6    H     H_    0.325528 0.371826 0.883651 0.158220
H7    H     H_    0.457508 0.727532 0.893643 0.176966
H8    H     H_    0.467481 0.271241 0.892658 0.210389
H9    H     H_    0.688889 0.557105 0.121886 0.139715
H10   H     H_    0.666443 0.374525 0.105877 0.162764
H11   H     H_    0.116182 0.336732 0.356900 0.127326
H12   H     H_    0.111701 0.674177 0.630921 0.138133
H13   H     H_    0.888277 0.339587 0.352678 0.121141
H14   H     H_    0.884153 0.669207 0.633839 0.173312
H15   H     H_    0.336074 0.130803 0.388104 0.157110
H16   H     H_    0.342201 0.871537 0.379621 0.160016
N1    N     N_R   0.500030 0.852070 0.500030 -0.210822
N2    N     N_R   0.500030 0.147930 0.500030 -0.216354
O1    O     O_R   0.319660 0.618740 0.499990 -0.591558
O2    O     O_R   0.319660 0.381260 0.499990 -0.592282
O3    O     O_R   0.499990 0.618790 0.317690 -0.591768
O4    O     O_R   0.499990 0.381210 0.317690 -0.597084
O5    O     O_R   0.680370 0.618830 0.500010 -0.546406
O6    O     O_R   0.680370 0.381170 0.500010 -0.551421
O7    O     O_R   0.500030 0.618780 0.682310 -0.553340
O8    O     O_R   0.500030 0.381220 0.682310 -0.548400
O9    O     O_3   0.660861 0.856273 0.655962 -0.588905
C23   C     C_3   0.654465 0.920558 0.776874 0.113242
H17   H     H_    0.602575 0.852449 0.836200 0.144126
H18   H     H_    0.603091 0.022899 0.782625 0.129166
C24   C     C_3   0.784887 0.938429 0.833547 -0.316668
H19   H     H_    0.837766 0.837516 0.828217 0.230942
H20   H     H_    0.835305 0.016728 0.780804 0.236385
C25   C     C_3   0.779132 0.989222 0.969380 -0.935924
H21   H     H_    0.728194 0.091211 0.976369 0.277220
H22   H     H_    0.874969 0.002564 0.007195 0.252721
H23   H     H_    0.731657 0.912566 0.026811 0.242841
O10   O     O_3   0.702796 0.133054 0.596955 -0.581576
C26   C     C_3   0.796078 0.117732 0.504856 0.060233
H24   H     H_    0.870251 0.190260 0.533742 0.195885
H25   H     H_    0.760213 0.149105 0.411294 0.136146
C27   C     C_3   0.857964 0.971448 0.494324 -0.385254
H26   H     H_    0.887185 0.934618 0.587508 0.237481
H27   H     H_    0.792355 0.896286 0.451026 0.234469
C28   C     C_3   0.972826 0.972765 0.412671 -0.941811
H28   H     H_    0.946975 0.008390 0.317777 0.253493
H29   H     H_    0.014358 0.865797 0.404799 0.271402
H30   H     H_    0.043607 0.043195 0.454370 0.257544
O11   O     O_3   0.699871 0.602439 0.894823 -0.754173
H31   H     H_    0.679031 0.682474 0.951166 0.298303
O12   O     O_3   0.688757 0.365233 0.881529 -0.730491
H32   H     H_    0.777845 0.366477 0.907447 0.334126

loop_
_geom_bond_atom_site_label_1
_geom_bond_atom_site_label_2
_ccdc_geom_bond_type
C27   H27   S    
C24   H19   S    
C26   H25   S    
C16   C21   S    
Cu1   O3    S    
C5    H13   S    
C1    C8    S    
Cu2   N2    S    
O11   H31   S    
C4    C8    A    
C4    H12   S    
C9    N2    A    
C17   H2    S    
C13   O4    A    
Cu1   O7    S    
C27   C28   S    
C25   H22   S    
C9    H15   S    
Cu1   O1    S    
C10   H16   S    
C15   O8    A    
C28   H29   S    
C12   N2    A    
C1    O1    A    
C7    C14   S    
C2    C22   S    
Cu1   Cu2   S    
C6    H14   S    
C9    C10   A    
C23   C24   S    
C20   H10   S    
C25   H23   S    
C27   H26   S    
C26   C27   S    
C10   N1    A    
C19   H8    S    
C23   H18   S    
C15   C22   S    
Cu2   O8    S    
Cu1   O5    S    
C2    C20   S    
O9    C23   S    
Cu2   O6    S    
C19   C22   S    
C4    C6    A    
C3    C8    A    
C5    C7    A    
C14   O6    A    
C25   H21   S    
C17   C21   S    
C28   H30   S    
O12   H32   S    
O10   C26   S    
C12   O10   S    
C1    O2    A    
C3    H11   S    
C13   C21   S    
C18   H5    S    
C6    C7    A    
C2    O11   S    
C20   H9    S    
C24   H20   S    
Cu2   O2    S    
C23   H17   S    
C16   H1    S    
C18   C22   S    
C17   H4    S    
C3    C5    A    
C11   C12   A    
C14   O5    A    
Cu1   N1    S    
Cu2   O4    S    
C13   O3    A    
C16   H3    S    
C17   C19   S    
C11   N1    A    
C15   O7    A    
C28   H28   S    
C11   O9    S    
C26   H24   S    
C20   C21   S    
C16   C18   S    
C24   C25   S    
C18   H7    S    
C19   H6    S    
C2    O12   S    
