data_mof_unit_43753.cif
_audit_creation_date              2012-12-10T17:48:45-0500
_audit_creation_method            fapswitch 2.2
_symmetry_space_group_name_H-M    P1
_symmetry_Int_Tables_number       1
_space_group_crystal_system       triclinic
_cell_length_a                    15.707581
_cell_length_b                    10.610925
_cell_length_c                    9.966233
_cell_angle_alpha                 86.499406
_cell_angle_beta                  90.482194
_cell_angle_gamma                 93.125624
_cell_volume                      1655.50429016

loop_
_atom_site_label
_atom_site_type_symbol
_atom_type_description
_atom_site_fract_x
_atom_site_fract_y
_atom_site_fract_z
_atom_type_partial_charge
C1    C     C_R   0.499108 0.260592 0.503722 0.865079
C2    C     C_R   0.726801 0.080838 0.613640 -0.155109
C3    C     C_R   0.736844 0.964556 0.560302 -0.095940
C4    C     C_R   0.338564 0.499538 0.499545 0.872828
C5    C     C_R   0.667236 0.899652 0.502557 0.137034
C6    C     C_R   0.584330 0.945120 0.511485 0.027926
C7    C     C_R   0.577649 0.070376 0.544470 0.074782
C8    C     C_R   0.501567 0.128032 0.510924 -0.104799
C9    C     C_R   0.430576 0.061965 0.461134 -0.261424
C10   C     C_R   0.431211 0.933022 0.452232 0.152086
C11   C     C_R   0.508183 0.874433 0.481266 -0.113146
C12   C     C_3   0.951454 0.517595 0.650865 -0.047328
C13   C     C_R   0.371579 0.358432 0.143494 -0.180076
C14   C     C_R   0.302429 0.308572 0.070376 0.131477
C15   C     C_R   0.312454 0.296757 0.932420 -0.144882
C16   C     C_R   0.505515 0.740071 0.495278 0.915332
C17   C     C_R   0.394049 0.320353 0.876763 0.207234
C18   C     C_R   0.444136 0.418444 0.933166 0.035978
C19   C     C_R   0.439822 0.425753 0.075835 0.105672
C20   C     C_R   0.556471 0.573478 0.068313 -0.127524
C21   C     C_R   0.555585 0.576051 0.925892 0.212268
C22   C     C_R   0.661147 0.495445 0.500852 0.924826
C23   C     C_3   0.916601 0.487624 0.507868 0.167338
C24   C     C_3   0.051267 0.531375 0.644314 0.018048
C25   C     C_3   0.044805 0.361248 0.467759 0.041393
C26   C     C_3   0.946473 0.358043 0.469742 -0.423013
C27   C     C_1   0.749750 0.489957 0.502613 -0.135538
C28   C     C_3   0.082662 0.494431 0.503792 0.130163
C29   C     C_3   0.915964 0.420663 0.763622 -0.349606
C30   C     C_3   0.902667 0.482239 0.896289 -0.785641
C31   C     C_3   0.349285 0.861930 0.412138 -0.406569
C32   C     C_3   0.346256 0.843029 0.261269 -0.778277
C33   C     C_3   0.221175 0.261072 0.140352 -0.366004
C34   C     C_3   0.951315 0.590962 0.402031 -0.437812
C35   C     C_3   0.221502 0.119874 0.177798 -0.860116
C36   C     C_3   0.439803 0.198620 0.865883 -0.390589
C37   C     C_3   0.389951 0.100735 0.785117 -0.816950
C38   C     C_3   0.049708 0.595041 0.398316 -0.075935
C39   C     C_1   0.824959 0.487321 0.504414 -0.057507
C40   C     C_1   0.174304 0.498161 0.499770 0.020330
C41   C     C_1   0.249710 0.499419 0.498517 -0.118861
C42   C     C_R   0.648754 0.136581 0.600187 -0.193575
H1    H     H_    0.068597 0.633986 0.651379 0.118536
H2    H     H_    0.263936 0.243134 0.878798 0.190975
H3    H     H_    0.064686 0.343539 0.364107 0.169061
H4    H     H_    0.920550 0.281344 0.541264 0.192090
H5    H     H_    0.921211 0.336138 0.368538 0.184901
H6    H     H_    0.074498 0.690917 0.424274 0.156081
H7    H     H_    0.930133 0.685210 0.426975 0.183513
H8    H     H_    0.961284 0.535317 0.928341 0.301521
H9    H     H_    0.850485 0.548725 0.884795 0.263357
H10   H     H_    0.884569 0.408240 0.976088 0.254190
H11   H     H_    0.852892 0.377660 0.735182 0.199993
H12   H     H_    0.928310 0.611876 0.672241 0.162346
H13   H     H_    0.957843 0.340198 0.779466 0.260101
H14   H     H_    0.393071 0.775053 0.233155 0.286682
H15   H     H_    0.281696 0.805131 0.233129 0.265401
H16   H     H_    0.360302 0.934041 0.202726 0.249601
H17   H     H_    0.341076 0.769372 0.469771 0.197415
H18   H     H_    0.293371 0.915629 0.437764 0.212160
H19   H     H_    0.230837 0.066369 0.087128 0.268249
H20   H     H_    0.273256 0.101265 0.251337 0.256951
H21   H     H_    0.159753 0.086873 0.224746 0.276000
H22   H     H_    0.212985 0.312126 0.233206 0.224094
H23   H     H_    0.924475 0.571748 0.301176 0.232446
H24   H     H_    0.165523 0.280218 0.074199 0.255082
H25   H     H_    0.336617 0.054710 0.845762 0.250084
H26   H     H_    0.363234 0.146318 0.692108 0.264297
H27   H     H_    0.432493 0.025723 0.759310 0.263619
H28   H     H_    0.505103 0.216949 0.825899 0.232419
H29   H     H_    0.449559 0.155015 0.968953 0.199425
H30   H     H_    0.373662 0.111262 0.433712 0.139625
H31   H     H_    0.645038 0.231535 0.632327 0.148119
H32   H     H_    0.781174 0.132376 0.655386 0.143899
H33   H     H_    0.800177 0.929866 0.554280 0.157526
H34   H     H_    0.602556 0.633240 0.119328 0.192043
H35   H     H_    0.369614 0.343418 0.250080 0.203720
I1    I     I_    0.700602 0.786379 0.346215 -0.390448
I2    I     I_    0.123867 0.460266 0.816935 -0.377163
I3    I     I_    0.648014 0.701595 0.828976 -0.344299
I4    I     I_    0.092591 0.201337 0.583770 -0.440423
I5    I     I_    0.095069 0.579396 0.196004 -0.430077
N1    N     N_R   0.499210 0.498800 0.142780 -0.120945
N2    N     N_R   0.499180 0.498720 0.857170 -0.132843
O1    O     O_R   0.500000 0.316780 0.614690 -0.635116
O2    O     O_R   0.499990 0.316750 0.385360 -0.622582
O3    O     O_R   0.377150 0.500020 0.614720 -0.591532
O4    O     O_R   0.377140 0.499990 0.385380 -0.636507
O5    O     O_R   0.500010 0.683250 0.614640 -0.588707
O6    O     O_R   0.500000 0.683220 0.385310 -0.601814
O7    O     O_R   0.622860 0.500010 0.614620 -0.601796
O8    O     O_R   0.622850 0.499980 0.385280 -0.591838
Zn1   Zn    Zn3+2 0.500010 0.500020 0.653130 0.979090
Zn2   Zn    Zn3+2 0.499990 0.499980 0.346870 0.957903

loop_
_geom_bond_atom_site_label_1
_geom_bond_atom_site_label_2
_ccdc_geom_bond_type
C30   H9    S    
C16   O6    A    
C37   H27   S    
C12   C29   S    
C1    C8    S    
C9    H30   S    
C32   H16   S    
C14   C33   S    
C7    C8    A    
C4    O3    A    
C25   C28   S    
C12   C23   S    
C36   C37   S    
C15   H2    S    
C5    C6    A    
C23   C26   S    
C4    C41   S    
C28   C40   S    
C37   H26   S    
O3    Zn1   S    
C20   H34   S    
C18   C19   A    
C7    C42   A    
C31   H17   S    
O2    Zn2   S    
O1    Zn1   S    
C10   C31   S    
C27   C39   T    
C8    C9    A    
C42   H31   S    
C18   N2    A    
C22   O7    A    
C17   C36   S    
C3    H33   S    
C9    C10   A    
C38   H6    S    
C2    H32   S    
C36   H29   S    
C30   H8    S    
C16   O5    A    
C13   C14   A    
C38   I5    S    
C25   I4    S    
C32   H15   S    
C19   N1    A    
C34   H23   S    
C36   H28   S    
C33   H24   S    
O6    Zn2   S    
C13   H35   S    
C1    O1    A    
O4    Zn2   S    
C13   C19   A    
C6    C11   A    
C29   H13   S    
C25   C26   S    
N1    Zn2   S    
C31   H18   S    
C29   C30   S    
O7    Zn1   S    
C11   C16   S    
C24   I2    S    
C31   C32   S    
C21   N2    A    
C28   C38   S    
C23   C34   S    
O8    Zn2   S    
C17   C18   A    
C35   H19   S    
C26   H5    S    
C40   C41   T    
C22   C27   S    
C25   H3    S    
C1    O2    A    
C15   C17   A    
C30   H10   S    
C34   H7    S    
C34   C38   S    
C24   C28   S    
C3    C5    A    
C6    C7    A    
C4    O4    A    
C12   C24   S    
C2    C3    A    
C29   H11   S    
C2    C42   A    
C33   H22   S    
C23   C39   S    
C37   H25   S    
C21   I3    S    
C33   C35   S    
C35   H20   S    
N2    Zn1   S    
O5    Zn1   S    
C10   C11   A    
C26   H4    S    
C20   C21   A    
C20   N1    A    
C24   H1    S    
C22   O8    A    
C14   C15   A    
C35   H21   S    
C5    I1    S    
C32   H14   S    
C12   H12   S    
