data_mof_unit_31124.cif
_audit_creation_date              2013-03-05T16:02:25-0500
_audit_creation_method            fapswitch 2.2
_symmetry_space_group_name_H-M    P1
_symmetry_Int_Tables_number       1
_space_group_crystal_system       triclinic
_cell_length_a                    15.321886
_cell_length_b                    14.127814
_cell_length_c                    11.053583
_cell_angle_alpha                 89.222899
_cell_angle_beta                  87.697927
_cell_angle_gamma                 90.624666
_cell_volume                      2390.40328233

loop_
_atom_site_label
_atom_site_type_symbol
_atom_site_description
_atom_site_fract_x
_atom_site_fract_y
_atom_site_fract_z
_atom_type_partial_charge
O1    O     O_R   0.367860 0.580280 0.500020 -0.620880
O2    O     O_R   0.367860 0.419720 0.500020 -0.605601
C1    C     C_R   0.325781 0.499273 0.500490 0.922675
O3    O     O_R   0.500000 0.580270 0.314790 -0.563657
O4    O     O_R   0.500000 0.419730 0.314790 -0.591512
C2    C     C_R   0.494202 0.500841 0.257815 0.953128
Zn1   Zn    Zn3+2 0.500020 0.607200 0.499990 1.068911
Zn2   Zn    Zn3+2 0.500020 0.392800 0.499990 1.086278
O5    O     O_R   0.632160 0.580270 0.499960 -0.563632
O6    O     O_R   0.632160 0.419730 0.499960 -0.619110
O7    O     O_R   0.500030 0.580270 0.685200 -0.603251
O8    O     O_R   0.500030 0.419730 0.685200 -0.553056
C3    C     C_R   0.674207 0.501259 0.504594 0.948998
C4    C     C_R   0.487852 0.498508 0.741441 1.019217
C5    C     C_3   0.457946 0.605101 0.069644 0.193971
C6    C     C_3   0.412432 0.424206 0.082484 0.175126
C7    C     C_3   0.465385 0.606542 0.924584 -0.313042
C8    C     C_3   0.395239 0.432052 0.937984 -0.298497
C9    C     C_3   0.578756 0.474674 0.061361 0.184383
C10   C     C_3   0.485812 0.501888 0.121437 -0.291431
C11   C     C_3   0.478308 0.495668 0.878352 -0.319076
C12   C     C_3   0.567323 0.448498 0.925342 0.227111
C13   C     C_R   0.822768 0.432523 0.466129 -0.089439
C14   C     C_R   0.771416 0.504916 0.518285 -0.207716
C15   C     C_R   0.815964 0.579677 0.578486 -0.083537
C16   C     C_R   0.908999 0.581985 0.572579 -0.023210
C17   C     C_R   0.953154 0.497100 0.543930 0.011234
C18   C     C_R   0.905455 0.416473 0.511162 -0.070350
C19   C     C_R   0.959505 0.664809 0.595333 0.165522
C20   C     C_R   0.050912 0.660146 0.594469 0.105975
C21   C     C_R   0.093256 0.578039 0.554332 0.008034
C22   C     C_R   0.044883 0.494606 0.537862 0.043523
C23   C     C_R   0.088564 0.410859 0.504691 -0.043674
C24   C     C_R   0.039396 0.330211 0.472847 0.104889
C25   C     C_R   0.948983 0.330549 0.489904 0.196129
C26   C     C_R   0.180366 0.581581 0.509794 -0.196641
C27   C     C_R   0.228122 0.496660 0.505766 -0.167170
C28   C     C_R   0.180123 0.409852 0.509208 0.001974
C29   C     C_R   0.572772 0.801446 0.455577 0.054068
C30   C     C_R   0.570823 0.200735 0.456120 0.106184
N1    N     N_R   0.500070 0.750030 0.500050 -0.134700
N2    N     N_R   0.500070 0.249970 0.500050 -0.136604
C31   C     C_R   0.433172 0.797189 0.557589 0.007628
C32   C     C_R   0.428163 0.199982 0.543889 0.038464
C33   C     C_R   0.428255 0.897276 0.553385 0.030899
C34   C     C_R   0.425355 0.099410 0.546057 0.001757
C35   C     C_R   0.498055 0.949570 0.499865 0.103251
C36   C     C_R   0.495808 0.050273 0.493991 0.101800
C37   C     C_R   0.574042 0.902153 0.461887 -0.113777
C38   C     C_R   0.566180 0.101460 0.439207 -0.111341
C39   C     C_R   0.356962 0.946662 0.604643 -0.103697
C40   C     C_R   0.355593 0.046532 0.601154 -0.139964
C41   C     C_R   0.636650 0.049708 0.388585 -0.196048
C42   C     C_R   0.649082 0.957885 0.432023 -0.094177
H1    H     H_    0.384611 0.757107 0.608945 0.144592
H2    H     H_    0.375404 0.238362 0.584679 0.180906
H3    H     H_    0.302607 0.908208 0.648288 0.179433
H4    H     H_    0.300438 0.081681 0.643221 0.150583
I1    I     I_    0.507672 0.740211 0.139214 -0.090391
I2    I     I_    0.442999 0.277825 0.145301 -0.081501
I3    I     I_    0.125586 0.771739 0.671951 -0.248482
C43   C     C_2   0.197746 0.652872 0.411787 1.015688
O9    O     O_2   0.158037 0.646127 0.318597 -0.504754
O10   O     O_R   0.253707 0.729849 0.424695 -0.717066
H5    H     H_    0.273316 0.733714 0.509923 0.299719
C44   C     C_2   0.220503 0.319527 0.539760 0.955045
O11   O     O_2   0.262177 0.276397 0.462210 -0.601055
O12   O     O_R   0.204790 0.281216 0.655948 -0.744055
H6    H     H_    0.229893 0.215970 0.666141 0.331210
I4    I     I_    0.090574 0.222255 0.354918 -0.041951
I5    I     I_    0.882851 0.197099 0.500161 -0.081139
C45   C     C_2   0.647388 0.754153 0.390598 1.015477
O13   O     O_2   0.633644 0.688790 0.324056 -0.555723
O14   O     O_R   0.733722 0.784271 0.401811 -0.778372
H7    H     H_    0.777158 0.745233 0.352697 0.376726
C46   C     C_2   0.656377 0.239665 0.478993 0.949731
O15   O     O_2   0.706989 0.260970 0.395259 -0.588754
O16   O     O_R   0.677998 0.253773 0.599230 -0.748318
H8    H     H_    0.733965 0.291256 0.607457 0.359269
C47   C     C_2   0.687804 0.082763 0.279224 1.057780
O17   O     O_2   0.761060 0.052471 0.256772 -0.521670
O18   O     O_R   0.649374 0.143525 0.196808 -0.739559
H9    H     H_    0.688438 0.156311 0.122021 0.375212
C48   C     C_2   0.721946 0.951970 0.515586 1.073832
O19   O     O_2   0.795511 0.977299 0.481682 -0.511162
O20   O     O_R   0.705006 0.923341 0.635900 -0.808864
H10   H     H_    0.758021 0.929345 0.687259 0.369195
I6    I     I_    0.335871 0.649185 0.156944 -0.042945
I7    I     I_    0.293983 0.411815 0.198783 -0.103176
C49   C     C_2   0.385898 0.658459 0.870839 0.958984
O21   O     O_2   0.361127 0.733515 0.913539 -0.515003
O22   O     O_R   0.349069 0.629936 0.763623 -0.805006
H11   H     H_    0.296079 0.668196 0.742669 0.344270
C50   C     C_2   0.307789 0.475728 0.901520 0.962207
O23   O     O_2   0.284380 0.465706 0.797413 -0.590955
O24   O     O_R   0.251607 0.522405 0.982107 -0.735516
H12   H     H_    0.196806 0.545774 0.943335 0.377022
C51   C     C_2   0.540941 0.674009 0.878920 0.986068
O25   O     O_2   0.611901 0.643935 0.848117 -0.594345
O26   O     O_R   0.527444 0.771763 0.864954 -0.742209
H13   H     H_    0.581689 0.808039 0.835028 0.360492
C52   C     C_2   0.375133 0.330689 0.893997 1.005520
O27   O     O_2   0.316395 0.284762 0.946835 -0.547181
O28   O     O_R   0.410211 0.293851 0.787490 -0.761286
H14   H     H_    0.395718 0.223916 0.781320 0.330571
I8    I     I_    0.678629 0.582419 0.086778 -0.033315
I9    I     I_    0.654930 0.370743 0.155737 -0.123414
I10   I     I_    0.688295 0.458929 0.816714 -0.156467
I11   I     I_    0.583209 0.296909 0.886201 -0.140125
C53   C     C_2   0.821504 0.424136 0.332751 1.021872
O29   O     O_2   0.803412 0.493489 0.272076 -0.585980
O30   O     O_R   0.851980 0.342633 0.275082 -0.720409
H15   H     H_    0.855265 0.349509 0.183606 0.373752
C54   C     C_2   0.770351 0.644685 0.663904 1.022679
O31   O     O_2   0.797014 0.652612 0.766258 -0.536921
O32   O     O_R   0.702988 0.702210 0.627217 -0.757692
H16   H     H_    0.684088 0.749275 0.690841 0.375590
I12   I     I_    0.907831 0.804759 0.593864 -0.105000

loop_
_geom_bond_atom_site_label_1
_geom_bond_atom_site_label_2
_geom_bond_distance
_ccdc_geom_bond_type
C44   O12   1.397784 S    
C8    C11   1.659460 S    
C9    C10   1.599902 S    
C42   C48   1.479633 S    
C54   O31   1.224345 D    
C29   N1    1.392417 A    
C41   C42   1.394820 A    
Zn1   O7    2.077214 S    
C16   C17   1.416669 A    
C43   O9    1.221507 D    
C4    C11   1.514493 S    
C26   C27   1.412362 A    
C27   C28   1.422389 A    
Zn2   N2    2.017877 S    
C6    I2    2.233059 S    
C20   C21   1.403781 A    
O7    C4    1.312278 A    
C12   I10   2.170128 S    
C33   C39   1.406650 A    
C37   C42   1.411945 A    
C34   C40   1.410484 A    
O32   H16   1.010497 S    
C5    C7    1.602740 S    
C24   C25   1.390614 A    
C8    C52   1.550273 S    
O5    C3    1.296331 A    
C53   O29   1.220534 D    
O22   H11   1.013059 S    
C43   O10   1.389950 S    
C21   C22   1.403378 A    
C18   C25   1.409405 A    
O12   H6    1.009302 S    
C29   C45   1.494339 S    
C39   H3    1.082704 S    
C7    C51   1.555451 S    
C24   I4    2.153640 S    
Zn2   O8    2.087360 S    
C36   C38   1.403901 A    
C44   O11   1.221665 D    
C25   I5    2.130126 S    
C6    I7    2.185503 S    
O1    Zn1   2.056255 S    
C11   C12   1.625242 S    
N1    C31   1.368598 A    
C50   O23   1.228574 D    
N2    C32   1.370507 A    
O3    Zn1   2.087258 S    
C26   C43   1.483346 S    
O28   H14   1.014110 S    
C32   C34   1.420886 A    
C46   O15   1.215861 D    
C33   C35   1.399864 A    
C5    C10   1.626927 S    
C34   C36   1.398448 A    
C38   C41   1.411824 A    
O14   H7    1.014351 S    
C39   C40   1.411345 A    
C28   C44   1.465452 S    
C41   C47   1.481301 S    
C14   C15   1.436697 A    
C47   O18   1.395155 S    
O16   H8    1.010792 S    
C45   O13   1.210251 D    
C15   C16   1.424335 A    
C7    C11   1.665624 S    
C30   C46   1.448935 S    
C3    C14   1.503542 S    
O1    C1    1.307269 A    
C50   O24   1.391432 S    
C19   C20   1.402452 A    
C32   H2    1.066610 S    
C49   O22   1.395357 S    
C35   C36   1.424168 A    
C6    C10   1.636686 S    
C12   I11   2.204771 S    
O24   H12   1.014289 S    
C9    C12   1.569322 S    
C23   C24   1.415304 A    
C13   C18   1.399337 A    
C48   O19   1.221723 D    
C52   O28   1.384777 S    
C31   C33   1.417072 A    
C40   H4    1.077417 S    
C45   O14   1.395901 S    
C29   C37   1.425372 A    
O8    C4    1.293811 A    
C51   O25   1.209471 D    
C51   O26   1.406014 S    
C8    C50   1.546992 S    
O3    C2    1.298167 A    
C31   H1    1.069886 S    
Zn1   O5    2.064130 S    
C13   C53   1.481545 S    
C17   C22   1.405229 A    
O20   H10   1.012992 S    
C5    I1    2.206930 S    
Zn2   O6    2.055975 S    
O2    Zn2   2.064407 S    
C7    C49   1.562038 S    
C46   O16   1.398909 S    
C47   O17   1.222928 D    
O6    C3    1.316215 A    
O4    Zn2   2.077113 S    
C54   O32   1.390396 S    
C35   C37   1.402105 A    
C2    C10   1.517955 S    
C19   I12   2.137907 S    
C23   C28   1.405971 A    
O10   H5    1.002264 S    
O2    C1    1.301753 A    
C15   C54   1.485894 S    
C22   C23   1.411218 A    
C49   O21   1.224412 D    
O4    C2    1.305680 A    
C30   C38   1.418848 A    
C30   N2    1.370457 A    
O26   H13   1.013348 S    
O30   H15   1.013659 S    
Zn1   N1    2.017877 S    
C52   O27   1.227532 D    
C53   O30   1.399267 S    
C13   C14   1.412288 A    
C9    I8    2.175539 S    
C1    C27   1.495145 S    
C16   C19   1.426594 A    
C6    C8    1.631718 S    
O18   H9    1.013950 S    
C20   I3    2.145716 S    
C17   C18   1.406103 A    
C21   C26   1.404043 A    
C48   O20   1.398201 S    
C5    I6    2.171232 S    
C9    I9    2.167964 S    
