data_mof_unit_21371.cif
_audit_creation_date              2012-12-10T17:05:44-0500
_audit_creation_method            fapswitch 2.2
_symmetry_space_group_name_H-M    P1
_symmetry_Int_Tables_number       1
_space_group_crystal_system       triclinic
_cell_length_a                    15.90231
_cell_length_b                    11.027667
_cell_length_c                    9.882033
_cell_angle_alpha                 110.841394
_cell_angle_beta                  96.809422
_cell_angle_gamma                 92.419395
_cell_volume                      1601.48725844

loop_
_atom_site_label
_atom_site_type_symbol
_atom_type_description
_atom_site_fract_x
_atom_site_fract_y
_atom_site_fract_z
_atom_type_partial_charge
C1    C     C_R   0.495208 0.254327 0.440645 0.862657
C2    C     C_3   0.949393 0.435704 0.595634 -0.372327
C3    C     C_3   0.915680 0.503640 0.490926 0.248530
C4    C     C_3   0.960751 0.642717 0.546276 -0.387350
C5    C     C_3   0.059222 0.637776 0.554853 -0.003471
C6    C     C_1   0.823638 0.506754 0.489121 -0.095747
C7    C     C_1   0.174378 0.487926 0.501672 -0.135887
C8    C     C_1   0.250366 0.490993 0.503919 -0.177088
C9    C     C_2   0.492508 0.114451 0.406408 -0.343234
C10   C     C_2   0.523690 0.067693 0.507173 -0.163819
C11   C     C_2   0.518956 0.885387 0.589258 -0.369741
C12   C     C_R   0.340292 0.496908 0.501525 0.833234
C13   C     C_2   0.511105 0.929141 0.478890 -0.158552
C14   C     C_2   0.508498 0.510367 0.080424 -0.116911
C15   C     C_2   0.491307 0.490715 0.921323 0.049551
C16   C     C_R   0.507913 0.745825 0.558709 0.855451
C17   C     C_R   0.659366 0.501964 0.497831 0.818369
C18   C     C_3   0.046489 0.422799 0.596182 -0.004797
C19   C     C_3   0.034837 0.423825 0.337959 -0.383610
C20   C     C_3   0.937240 0.427084 0.335736 -0.385905
C21   C     C_1   0.748433 0.505342 0.492174 -0.179311
C22   C     C_3   0.081384 0.491817 0.496789 0.212210
Cu1   Cu    Cu3+1 0.514650 0.521810 0.644910 0.941374
Cu2   Cu    Cu3+1 0.485350 0.478190 0.355090 0.938005
H1    H     H_    0.912456 0.339116 0.561459 0.179903
H2    H     H_    0.078880 0.475739 0.709972 0.125242
H3    H     H_    0.937231 0.492223 0.708725 0.143222
H4    H     H_    0.935816 0.692517 0.471698 0.177578
H5    H     H_    0.492775 0.862759 0.366361 0.182690
H6    H     H_    0.556603 0.132175 0.612507 0.171583
H7    H     H_    0.535060 0.952519 0.701872 0.147795
H8    H     H_    0.462687 0.049133 0.298704 0.146479
H9    H     H_    0.559660 0.581128 0.150273 0.156772
H10   H     H_    0.586578 0.618237 0.930244 0.182148
H11   H     H_    0.413991 0.378640 0.074181 0.212326
H12   H     H_    0.056415 0.472258 0.265322 0.161879
H13   H     H_    0.050810 0.321443 0.290907 0.160854
H14   H     H_    0.906611 0.325602 0.295250 0.165702
H15   H     H_    0.911557 0.473335 0.258023 0.164290
H16   H     H_    0.087610 0.681463 0.672318 0.138847
H17   H     H_    0.944966 0.700148 0.656591 0.146206
N1    N     N_2   0.463320 0.445430 0.137380 -0.290918
N2    N     N_2   0.536720 0.554500 0.862620 -0.309457
O1    O     O_R   0.507820 0.332330 0.577400 -0.571377
O2    O     O_R   0.483070 0.295500 0.332660 -0.576383
O3    O     O_R   0.391820 0.518430 0.622420 -0.569993
O4    O     O_R   0.367070 0.481600 0.377680 -0.571665
O5    O     O_R   0.516930 0.704500 0.667340 -0.576360
O6    O     O_R   0.492180 0.667670 0.422600 -0.577365
O7    O     O_R   0.632930 0.518400 0.622320 -0.573901
O8    O     O_R   0.608180 0.481570 0.377580 -0.573682
C23   C     C_R   0.418889 0.396954 0.834392 0.232647
C24   C     C_R   0.428536 0.262974 0.787120 -0.146150
C25   C     C_R   0.357706 0.172023 0.726768 -0.154765
C26   C     C_R   0.276396 0.214522 0.721211 -0.132679
C27   C     C_R   0.266126 0.347795 0.777553 -0.172336
C28   C     C_R   0.336857 0.438568 0.834917 -0.142134
H18   H     H_    0.490579 0.229819 0.803119 0.116809
H19   H     H_    0.365643 0.068816 0.688704 0.148033
H20   H     H_    0.221593 0.143926 0.677088 0.139804
H21   H     H_    0.203731 0.381957 0.780129 0.145487
H22   H     H_    0.327798 0.541224 0.882262 0.126545
C29   C     C_3   0.064359 0.277456 0.553184 -0.379536
C30   C     C_3   0.043746 0.222079 0.668820 -0.897566
H23   H     H_    0.071572 0.287880 0.780638 0.247189
H24   H     H_    0.974114 0.206156 0.665555 0.251452
H25   H     H_    0.069987 0.126931 0.646817 0.248995
H26   H     H_    0.025811 0.217076 0.447163 0.209696
H27   H     H_    0.132039 0.266416 0.538857 0.210393
C31   C     C_3   0.097155 0.721809 0.475400 -0.367140
C32   C     C_3   0.094757 0.867330 0.558871 -0.909529
H28   H     H_    0.028326 0.892054 0.569573 0.257944
H29   H     H_    0.132340 0.897065 0.669542 0.250994
H30   H     H_    0.122897 0.922820 0.498340 0.244181
H31   H     H_    0.164675 0.705011 0.463987 0.212859
H32   H     H_    0.061846 0.696211 0.363530 0.204762

loop_
_geom_bond_atom_site_label_1
_geom_bond_atom_site_label_2
_ccdc_geom_bond_type
C17   O7    A    
C32   H30   S    
Cu1   Cu2   S    
C5    C31   S    
C24   H18   S    
C16   O6    A    
C2    C18   S    
C7    C22   S    
C20   H14   S    
C11   C16   S    
C10   H6    S    
C1    O1    A    
C19   C20   S    
C18   H2    S    
C14   N1    D    
C8    C12   S    
C3    C6    S    
C26   H20   S    
C30   H23   S    
C17   O8    A    
C26   C27   A    
C15   C23   S    
C2    C3    S    
C15   N2    D    
C3    C20   S    
Cu1   O3    S    
C24   C25   A    
C23   C24   A    
C16   O5    A    
Cu2   N1    S    
C11   C13   D    
C1    O2    A    
C31   C32   S    
C14   H9    S    
C12   O4    A    
Cu2   O2    S    
Cu2   O6    S    
C25   C26   A    
C13   H5    S    
C4    H4    S    
C2    H1    S    
C25   H19   S    
C2    H3    S    
C31   H32   S    
C14   C15   S    
C18   C29   S    
Cu2   O8    S    
C7    C8    T    
C23   C28   A    
H10   N2    S    
C11   H7    S    
C29   C30   S    
C30   H25   S    
C29   H27   S    
C32   H28   S    
C19   C22   S    
C1    C9    S    
C27   C28   A    
C12   O3    A    
H11   N1    S    
C9    C10   D    
C5    H16   S    
C29   H26   S    
C31   H31   S    
C32   H29   S    
C20   H15   S    
C27   H21   S    
Cu1   O7    S    
Cu1   N2    S    
Cu1   O5    S    
C19   H13   S    
C9    H8    S    
C28   H22   S    
C19   H12   S    
C18   C22   S    
Cu2   O4    S    
C4    H17   S    
C17   C21   S    
C5    C22   S    
C3    C4    S    
C6    C21   T    
C4    C5    S    
Cu1   O1    S    
C10   C13   S    
C30   H24   S    
