data_mof_unit_34179.cif
_audit_creation_date              2012-12-10T17:01:37-0500
_audit_creation_method            fapswitch 2.2
_symmetry_space_group_name_H-M    P1
_symmetry_Int_Tables_number       1
_space_group_crystal_system       triclinic
_cell_length_a                    9.84032
_cell_length_b                    11.047423
_cell_length_c                    13.006022
_cell_angle_alpha                 90.079057
_cell_angle_beta                  75.42387
_cell_angle_gamma                 110.975118
_cell_volume                      1271.53464425

loop_
_atom_site_label
_atom_site_type_symbol
_atom_type_description
_atom_site_fract_x
_atom_site_fract_y
_atom_site_fract_z
_atom_type_partial_charge
C1    C     C_R   0.439515 0.253968 0.507764 0.742543
C2    C     C_R   0.560486 0.746032 0.492224 0.745519
C3    C     C_2   0.083069 0.511125 0.491308 0.000868
C4    C     C_2   0.916932 0.488868 0.508684 -0.000008
C5    C     C_R   0.472946 0.495358 0.702809 0.843800
C6    C     C_R   0.527094 0.504814 0.297184 0.833141
C7    C     C_R   0.543595 0.509666 0.182662 -0.139248
C8    C     C_R   0.456576 0.491344 0.817304 -0.172728
C9    C     C_R   0.296102 0.446776 0.998795 0.444294
C10   C     C_R   0.704212 0.556169 0.001168 0.393197
C11   C     C_R   0.313174 0.453181 0.889225 -0.181765
C12   C     C_R   0.687083 0.548600 0.110739 -0.258223
C13   C     C_R   0.585021 0.524892 0.854279 -0.162483
C14   C     C_R   0.415184 0.476702 0.145681 -0.158119
C15   C     C_R   0.573362 0.521243 0.963338 -0.000061
C16   C     C_R   0.426910 0.481176 0.036616 -0.027020
C17   C     C_2   0.404630 0.114612 0.512123 0.457414
C18   C     C_2   0.595377 0.885390 0.487837 0.455841
C19   C     C_2   0.516078 0.069515 0.498013 -0.215658
C20   C     C_2   0.483936 0.930489 0.501893 -0.209866
Cu1   Cu    Cu3+1 0.647370 0.522180 0.481340 1.023789
Cu2   Cu    Cu3+1 0.352630 0.477820 0.518660 1.032224
H1    H     H_    0.306202 0.447218 0.203304 0.229028
H2    H     H_    0.693928 0.553755 0.796671 0.231648
H3    H     H_    0.786263 0.574493 0.140322 0.210994
H4    H     H_    0.213961 0.427007 0.859675 0.235398
H5    H     H_    0.367216 0.863828 0.516509 0.206848
H6    H     H_    0.632802 0.136178 0.483369 0.205617
H7    H     H_    0.834491 0.414086 0.570267 0.161822
H8    H     H_    0.165510 0.585904 0.429722 0.160992
H9    H     H_    0.949725 0.626381 0.395770 0.226028
H10   H     H_    0.050273 0.373617 0.604227 0.228819
N1    N     N_2   0.131210 0.444490 0.546730 -0.264342
N2    N     N_2   0.868790 0.555510 0.453270 -0.266941
O1    O     O_R   0.578710 0.332530 0.490040 -0.621971
O2    O     O_R   0.421290 0.667470 0.509960 -0.619297
O3    O     O_R   0.329810 0.295070 0.521560 -0.511850
O4    O     O_R   0.670190 0.704930 0.478440 -0.512642
O5    O     O_R   0.604230 0.515670 0.637800 -0.582070
O6    O     O_R   0.395770 0.484330 0.362200 -0.583528
O7    O     O_R   0.355330 0.478200 0.669330 -0.562688
O8    O     O_R   0.644670 0.521800 0.330670 -0.569152
S1    S     S_3+6 0.109653 0.394099 0.084795 0.027813
O9    O     O_2   0.080971 0.275032 0.155373 -0.268797
O10   O     O_2   0.093836 0.500818 0.153052 -0.301091
O11   O     O_3   0.981003 0.357310 0.014108 -0.468368
H11   H     H_    0.884310 0.346852 0.066769 0.386671
S2    S     S_3+6 0.890771 0.611482 0.915104 0.023661
O12   O     O_2   0.909835 0.505481 0.847151 -0.258301
O13   O     O_2   0.916886 0.728892 0.843461 -0.269574
O14   O     O_3   0.020610 0.651299 0.984893 -0.461090
H12   H     H_    0.024573 0.736992 0.009899 0.359669
F1    F     F_    0.742095 0.967806 0.469418 -0.611384
F2    F     F_    0.257906 0.032193 0.530577 -0.609376

loop_
_geom_bond_atom_site_label_1
_geom_bond_atom_site_label_2
_ccdc_geom_bond_type
C14   H1    S    
C3    H8    S    
S1    O9    D    
C8    C13   A    
Cu1   O1    S    
C20   H5    S    
C2    C18   S    
S1    O10   D    
C2    O4    A    
C1    C17   S    
C19   C20   S    
Cu1   O5    S    
C1    O3    A    
C12   H3    S    
Cu2   O6    S    
H10   N1    S    
S2    O13   D    
C3    C4    S    
H9    N2    S    
Cu1   Cu2   S    
C19   H6    S    
C9    C11   A    
C6    C7    S    
C10   C12   A    
C8    C11   A    
S2    O12   D    
C17   C19   D    
C9    C16   A    
C18   C20   D    
C10   C15   A    
C13   C15   A    
C10   S2    S    
C7    C12   A    
S1    O11   S    
C4    N2    D    
C9    S1    S    
Cu2   O7    S    
C3    N1    D    
O14   H12   S    
C6    O6    A    
Cu2   O2    S    
C1    O1    A    
C6    O8    A    
C2    O2    A    
Cu2   N1    S    
C5    O5    A    
C5    C8    S    
O11   H11   S    
C5    O7    A    
Cu1   O8    S    
C11   H4    S    
C14   C16   A    
C18   F1    S    
Cu2   O3    S    
C17   F2    S    
Cu1   N2    S    
S2    O14   S    
C7    C14   A    
Cu1   O4    S    
C15   C16   A    
C13   H2    S    
C4    H7    S    
