data_mof_unit_14700.cif
_audit_creation_date              2012-12-11T15:35:03-0500
_audit_creation_method            fapswitch 2.2
_symmetry_space_group_name_H-M    P1
_symmetry_Int_Tables_number       1
_space_group_crystal_system       triclinic
_cell_length_a                    30.417887
_cell_length_b                    7.252949
_cell_length_c                    26.090112
_cell_angle_alpha                 89.999939
_cell_angle_beta                  111.95481
_cell_angle_gamma                 90.000021
_cell_volume                      5338.55480524

loop_
_atom_site_label
_atom_site_type_symbol
_atom_type_description
_atom_site_fract_x
_atom_site_fract_y
_atom_site_fract_z
_atom_type_partial_charge
O1    O     O_R   0.295360 0.592990 0.320420 -0.536605
O2    O     O_R   0.704640 0.407010 0.679580 -0.540823
O3    O     O_R   0.204640 0.092990 0.179580 -0.536602
O4    O     O_R   0.795360 0.907010 0.820420 -0.540824
O5    O     O_R   0.294060 0.265620 0.213230 -0.528069
O6    O     O_R   0.705940 0.734380 0.786770 -0.507624
O7    O     O_R   0.205940 0.765620 0.286770 -0.528068
O8    O     O_R   0.794060 0.234380 0.713230 -0.507619
C1    C     C_R   0.305100 0.432668 0.200597 0.802447
C2    C     C_R   0.694737 0.567616 0.799204 0.799762
C3    C     C_R   0.194900 0.932668 0.299403 0.802446
C4    C     C_R   0.805263 0.067615 0.700796 0.799770
O9    O     O_R   0.300850 0.263360 0.322080 -0.541582
O10   O     O_R   0.699150 0.736640 0.677920 -0.536439
O11   O     O_R   0.199150 0.763360 0.177920 -0.541582
O12   O     O_R   0.800850 0.236640 0.822080 -0.536424
O13   O     O_R   0.211480 0.091820 0.289210 -0.512725
O14   O     O_R   0.788520 0.908180 0.710790 -0.537740
O15   O     O_R   0.288520 0.591820 0.210790 -0.512725
O16   O     O_R   0.711480 0.408180 0.789210 -0.537739
C5    C     C_R   0.313032 0.431519 0.343276 0.708924
C6    C     C_R   0.686829 0.568238 0.656879 0.705490
C7    C     C_R   0.186968 0.931519 0.156724 0.708927
C8    C     C_R   0.813170 0.068238 0.843121 0.705507
O17   O     O_3   0.220670 0.426670 0.239090 -0.361490
O18   O     O_3   0.779330 0.573330 0.760910 -0.365142
O19   O     O_3   0.279330 0.926670 0.260910 -0.361492
O20   O     O_3   0.720670 0.073330 0.739090 -0.365152
V1    V     V_3+5 0.255440 0.152290 0.252020 1.573386
V2    V     V_3+5 0.744560 0.847710 0.747980 1.559873
V3    V     V_3+5 0.244560 0.652290 0.247980 1.573385
V4    V     V_3+5 0.755440 0.347710 0.752020 1.559898
C9    C     C_R   0.850058 0.060112 0.899103 -0.047935
C10   C     C_R   0.150315 0.939605 0.100497 -0.048871
C11   C     C_R   0.649942 0.560112 0.600897 -0.047939
C12   C     C_R   0.349685 0.439605 0.399503 -0.048871
C13   C     C_R   0.871617 0.080624 0.997933 -0.127398
C14   C     C_R   0.129884 0.948299 0.001639 -0.125999
C15   C     C_R   0.628384 0.580610 0.502066 -0.127404
C16   C     C_R   0.370116 0.448311 0.498361 -0.126005
C17   C     C_R   0.837425 0.089221 0.944645 -0.168584
C18   C     C_R   0.163982 0.940291 0.055059 -0.171062
C19   C     C_R   0.662575 0.589211 0.555355 -0.168583
C20   C     C_R   0.336018 0.440299 0.444941 -0.171061
C21   C     C_R   0.897640 0.024328 0.907176 -0.201375
C22   C     C_R   0.101917 0.947812 0.092060 -0.206670
C23   C     C_R   0.602359 0.524333 0.592824 -0.201370
C24   C     C_R   0.398083 0.447808 0.407940 -0.206670
C25   C     C_R   0.933648 0.021909 0.961148 0.080519
C26   C     C_R   0.066479 0.965425 0.038084 0.081555
C27   C     C_R   0.566352 0.521910 0.538852 0.080519
C28   C     C_R   0.433520 0.465425 0.461916 0.081555
C29   C     C_R   0.919335 0.047112 0.006591 0.115297
C30   C     C_R   0.081497 0.960939 0.992761 0.116203
C31   C     C_R   0.580665 0.547103 0.493409 0.115301
C32   C     C_R   0.418503 0.460948 0.507239 0.116208
C33   C     C_R   0.983155 0.997137 0.971673 0.045952
C34   C     C_R   0.016947 0.988835 0.027527 0.045450
C35   C     C_R   0.516845 0.497140 0.528327 0.045954
C36   C     C_R   0.483053 0.488832 0.472473 0.045450
C37   C     C_R   0.000308 0.010851 0.070937 -0.153068
C38   C     C_R   0.000185 0.986398 0.928298 -0.150945
C39   C     C_R   0.499692 0.510840 0.429063 -0.153071
C40   C     C_R   0.499815 0.486409 0.571702 -0.150940
C41   C     C_R   0.952651 0.040400 0.060521 -0.152954
C42   C     C_R   0.048283 0.970218 0.938787 -0.152803
C43   C     C_R   0.547349 0.540386 0.439479 -0.152964
C44   C     C_R   0.451716 0.470231 0.561213 -0.152816
H1    H     H_    0.941775 0.059431 0.095291 0.166006
H2    H     H_    0.059648 0.965905 0.904058 0.165724
H3    H     H_    0.558226 0.559410 0.404708 0.165998
H4    H     H_    0.440351 0.465926 0.595942 0.165715
H5    H     H_    0.093084 0.937542 0.128178 0.151630
H6    H     H_    0.905212 0.998258 0.870688 0.146982
H7    H     H_    0.406916 0.437533 0.371823 0.151631
H8    H     H_    0.594787 0.498269 0.629312 0.146990
H9    H     H_    0.201151 0.933187 0.060983 0.117265
H10   H     H_    0.800868 0.116768 0.938903 0.114910
H11   H     H_    0.298848 0.433199 0.439017 0.117264
H12   H     H_    0.699133 0.616753 0.561096 0.114910
H13   H     H_    0.860736 0.101500 0.032610 0.142257
H14   H     H_    0.141434 0.946389 0.967056 0.142859
H15   H     H_    0.639265 0.601479 0.467390 0.142253
H16   H     H_    0.358565 0.446408 0.532944 0.142854
H17   H     H_    0.023499 0.011401 0.113824 0.168591
H18   H     H_    0.977279 0.995316 0.885398 0.165275
H19   H     H_    0.476501 0.511385 0.386176 0.168590
H20   H     H_    0.522720 0.495332 0.614602 0.165279
C45   C     C_R   0.095063 0.937216 0.484502 0.670229
C46   C     C_R   0.906933 0.987092 0.518907 0.670992
C47   C     C_R   0.404937 0.437221 0.015499 0.670228
C48   C     C_R   0.593067 0.487095 0.981094 0.670990
N1    N     N_R   0.076159 0.928781 0.427989 -0.530242
N2    N     N_R   0.925703 0.991149 0.575473 -0.529573
N3    N     N_R   0.423841 0.428785 0.072012 -0.530245
N4    N     N_R   0.574298 0.491153 0.924528 -0.529573
C49   C     C_R   0.028215 0.909578 0.400037 0.760104
C50   C     C_R   0.973263 0.962950 0.604008 0.770165
C51   C     C_R   0.471785 0.409582 0.099964 0.760155
C52   C     C_R   0.526737 0.462956 0.895992 0.770213
C53   C     C_R   0.996469 0.923622 0.428233 -0.116213
C54   C     C_R   0.005061 0.951665 0.575791 -0.118540
C55   C     C_R   0.503531 0.423625 0.071768 -0.116174
C56   C     C_R   0.494939 0.451669 0.924210 -0.118493
C57   C     C_R   0.015850 0.935654 0.486723 -0.039089
C58   C     C_R   0.985787 0.948933 0.517196 -0.038633
C59   C     C_R   0.484150 0.435657 0.013278 -0.039096
C60   C     C_R   0.514213 0.448937 0.982805 -0.038638
C61   C     C_R   0.065368 0.935860 0.514905 -0.063526
C62   C     C_R   0.936395 0.960801 0.488859 -0.062716
C63   C     C_R   0.434632 0.435864 0.985095 -0.063527
C64   C     C_R   0.563605 0.460804 0.011141 -0.062716
C65   C     C_R   0.946386 0.929369 0.400680 0.305061
C66   C     C_R   0.055146 0.945047 0.603346 0.302831
C67   C     C_R   0.553615 0.429370 0.099321 0.305108
C68   C     C_R   0.444855 0.445051 0.896655 0.302884
C69   C     C_R   0.917355 0.950010 0.431039 -0.137676
C70   C     C_R   0.084336 0.939584 0.572808 -0.139146
C71   C     C_R   0.582646 0.450010 0.068961 -0.137674
C72   C     C_R   0.415664 0.439588 0.927193 -0.139133
O21   O     O_2   0.142445 0.950060 0.511210 -0.508919
O22   O     O_2   0.859897 0.010754 0.491715 -0.508366
O23   O     O_2   0.357555 0.450066 0.988791 -0.508916
O24   O     O_2   0.640104 0.510755 0.008286 -0.508363
O25   O     O_2   0.011830 0.876982 0.345278 -0.436130
O26   O     O_2   0.989204 0.944780 0.659335 -0.432375
O27   O     O_2   0.488171 0.376986 0.154723 -0.436158
O28   O     O_2   0.510796 0.444789 0.840666 -0.432413
H21   H     H_    0.879367 0.958049 0.408829 0.201659
H22   H     H_    0.122395 0.938892 0.594926 0.201702
H23   H     H_    0.620633 0.458048 0.091171 0.201657
H24   H     H_    0.377606 0.438896 0.905075 0.201700
C73   C     C_R   0.900692 0.178181 0.640680 0.373145
C74   C     C_R   0.103163 0.091076 0.360288 0.372284
C75   C     C_R   0.599308 0.678184 0.859321 0.373169
C76   C     C_R   0.396837 0.591078 0.139713 0.372303
C77   C     C_R   0.875354 0.186256 0.677099 0.315531
C78   C     C_R   0.128205 0.082775 0.323520 0.312445
C79   C     C_R   0.624646 0.686258 0.822901 0.315536
C80   C     C_R   0.371795 0.582776 0.176480 0.312447
C81   C     C_R   0.838141 0.056946 0.670221 -0.228827
C82   C     C_R   0.162553 0.940605 0.330666 -0.229743
C83   C     C_R   0.661859 0.556947 0.829779 -0.228825
C84   C     C_R   0.337447 0.440606 0.169335 -0.229745
C85   C     C_R   0.831239 0.912045 0.632289 -0.208962
C86   C     C_R   0.167589 0.802651 0.370196 -0.194193
C87   C     C_R   0.668761 0.412046 0.867711 -0.208956
C88   C     C_R   0.332411 0.302653 0.129804 -0.194188
H25   H     H_    0.803567 0.810856 0.626389 0.164498
H26   H     H_    0.193287 0.693054 0.376446 0.168531
H27   H     H_    0.696433 0.310857 0.873612 0.164500
H28   H     H_    0.306713 0.193056 0.123554 0.168533
C89   C     C_R   0.859944 0.892507 0.601870 -0.046370
C90   C     C_R   0.139671 0.801666 0.401964 -0.045213
C91   C     C_R   0.640057 0.392510 0.898131 -0.046382
C92   C     C_R   0.360330 0.301669 0.098036 -0.045225
H29   H     H_    0.854665 0.775203 0.574529 0.191307
H30   H     H_    0.143442 0.689682 0.430764 0.194073
H31   H     H_    0.645335 0.275207 0.925472 0.191316
H32   H     H_    0.356558 0.189686 0.069236 0.194077
C93   C     C_R   0.894951 0.022476 0.605784 0.187685
C94   C     C_R   0.106916 0.942134 0.396992 0.180904
C95   C     C_R   0.605050 0.522479 0.894217 0.187672
C96   C     C_R   0.393084 0.442137 0.103009 0.180892
Br1   Br    Br    0.913466 0.921843 0.321713 -0.342395
Br2   Br    Br    0.088071 0.953874 0.682297 -0.343283
Br3   Br    Br    0.586534 0.421841 0.178288 -0.342378
Br4   Br    Br    0.411930 0.453875 0.817704 -0.343277
S1    S     S_3+6 0.936347 0.365920 0.634271 0.088768
O29   O     O_2   0.935360 0.375928 0.576294 -0.354365
O30   O     O_2   0.918316 0.545567 0.647300 -0.284306
O31   O     O_3   0.992654 0.335211 0.678144 -0.421403
H33   H     H_    0.010592 0.438075 0.670225 0.392341
S2    S     S_3+6 0.069401 0.289060 0.364045 0.089843
O32   O     O_2   0.070364 0.312424 0.421711 -0.356810
O33   O     O_2   0.089019 0.461044 0.348726 -0.279673
O34   O     O_3   0.012890 0.262028 0.320355 -0.423002
H34   H     H_    0.995669 0.368482 0.327647 0.393776
S3    S     S_3+6 0.563654 0.865925 0.865730 0.088741
O35   O     O_2   0.564639 0.875934 0.923706 -0.354273
O36   O     O_2   0.581689 0.045568 0.852703 -0.284407
O37   O     O_3   0.507348 0.835226 0.821855 -0.421449
H35   H     H_    0.489433 0.938369 0.829675 0.392417
S4    S     S_3+6 0.430599 0.789063 0.135957 0.089822
O38   O     O_2   0.429639 0.812430 0.078292 -0.356740
O39   O     O_2   0.410978 0.961044 0.151274 -0.279749
O40   O     O_3   0.487110 0.762037 0.179647 -0.423038
H36   H     H_    0.504312 0.868691 0.172432 0.393830
S5    S     S_3+6 0.893777 0.339928 0.734808 0.088617
O41   O     O_2   0.945571 0.385241 0.752835 -0.244360
O42   O     O_2   0.865285 0.514660 0.719017 -0.312719
O43   O     O_3   0.885276 0.242823 0.788842 -0.535997
H37   H     H_    0.893693 0.340050 0.817578 0.348737
S6    S     S_3+6 0.113361 0.236543 0.266018 0.082314
O44   O     O_2   0.061920 0.289662 0.245819 -0.249942
O45   O     O_2   0.143431 0.406865 0.283478 -0.312914
O46   O     O_3   0.122931 0.138059 0.212960 -0.538593
H38   H     H_    0.117701 0.237970 0.185409 0.346150
S7    S     S_3+6 0.606224 0.839933 0.765193 0.088587
O47   O     O_2   0.554431 0.885257 0.747167 -0.244412
O48   O     O_2   0.634718 0.014659 0.780984 -0.312731
O49   O     O_3   0.614723 0.742825 0.711158 -0.535995
H39   H     H_    0.606330 0.840085 0.682433 0.348743
S8    S     S_3+6 0.386640 0.736541 0.233983 0.082290
O50   O     O_2   0.438080 0.789662 0.254182 -0.249991
O51   O     O_2   0.356569 0.906862 0.216524 -0.312913
O52   O     O_3   0.377070 0.638053 0.287041 -0.538591
H40   H     H_    0.382295 0.737968 0.314590 0.346152

loop_
_geom_bond_atom_site_label_1
_geom_bond_atom_site_label_2
_ccdc_geom_bond_type
O17   V3    S    
C51   C55   A    
C25   C29   A    
O1    C5    A    
O19   V1    S    
C53   C65   A    
S1    O29   D    
C16   H16   S    
O3    C7    A    
C10   C18   A    
C48   N4    A    
C76   C80   A    
O4    V2    S    
C11   C23   A    
C11   C19   A    
C25   C33   A    
C33   C38   A    
C5    C12   S    
C4    C81   S    
C73   C77   A    
C6    C11   S    
C38   H18   S    
C35   C40   A    
C26   C30   A    
C36   C39   A    
C54   C66   A    
C40   C44   A    
O9    V1    S    
C23   H8    S    
C14   C18   A    
C82   C86   A    
C80   S8    S    
C58   C62   A    
O4    C8    A    
C79   S7    S    
C44   H4    S    
S6    O46   S    
N2    C50   A    
N3    C51   A    
C45   C61   A    
O1    V3    S    
O13   V1    S    
S4    O38   D    
O2    V4    S    
C47   C63   A    
O3    V1    S    
C73   S1    S    
O37   H35   S    
C57   C61   A    
C28   C36   A    
S2    O32   D    
C79   C83   A    
C1    O15   A    
C52   C56   A    
C15   C31   A    
C2    O16   A    
C16   C32   A    
C86   C90   A    
O2    C6    A    
S7    O49   S    
C71   H23   S    
C59   C60   A    
C46   N2    A    
C10   C22   A    
C21   C25   A    
C23   C27   A    
C69   H21   S    
C27   C31   A    
C81   C85   A    
S3    O37   S    
C13   C29   A    
C34   C37   A    
O11   C7    A    
S6    O44   D    
O15   V3    S    
C35   C36   A    
O12   C8    A    
C47   O23   S    
C14   H14   S    
C89   H29   S    
C46   O22   S    
C24   H7    S    
C13   H13   S    
S5    O41   D    
C75   C95   A    
O10   V2    S    
C62   C69   A    
C1    C84   S    
O16   V4    S    
C61   C70   A    
C66   Br2   S    
O5    V1    S    
C78   S6    S    
C53   C57   A    
C39   C43   A    
O7    V3    S    
O49   H39   S    
C38   C42   A    
C91   H31   S    
O52   H40   S    
O8    V4    S    
C88   H28   S    
C92   H32   S    
C49   O25   S    
C78   C82   A    
C68   Br4   S    
C17   H10   S    
O18   V4    S    
C48   C64   A    
C51   O27   S    
C91   C95   A    
C19   H12   S    
C50   C54   A    
C45   N1    A    
C39   H19   S    
C68   C72   A    
C89   C93   A    
C21   H6    S    
C26   C34   A    
S5    O43   S    
O7    C3    A    
O5    C1    A    
C55   C67   A    
C70   H22   S    
C9    C21   A    
C31   C43   A    
C14   C30   A    
S8    O52   S    
C24   C28   A    
O8    C4    A    
C7    C10   S    
C29   C41   A    
C76   S4    S    
S6    O45   D    
O9    C5    A    
O11   V3    S    
N2    C93   S    
C92   C96   A    
C66   C70   A    
C37   H17   S    
C65   C69   A    
O6    V2    S    
S8    O51   D    
C83   C87   A    
C67   C71   A    
O14   V2    S    
S1    O31   S    
C77   S5    S    
C12   C20   A    
C27   C35   A    
C46   C62   A    
C67   Br3   S    
N1    C49   A    
C72   H24   S    
C56   C60   A    
C87   C91   A    
O31   H33   S    
S1    O30   D    
C50   O26   S    
C77   C81   A    
C3    O13   A    
C74   S2    S    
C76   C96   A    
C52   O28   S    
C59   C63   A    
C90   C94   A    
C20   H11   S    
S2    O34   S    
C80   C84   A    
C73   C93   A    
O6    C2    A    
C64   C71   A    
C15   C19   A    
S4    O40   S    
C86   H26   S    
C30   C42   A    
C74   C78   A    
O12   V4    S    
C57   C58   A    
C22   C26   A    
C43   H3    S    
C8    C9    S    
N4    C95   S    
C75   C79   A    
C9    C17   A    
O43   H37   S    
O10   C6    A    
C56   C68   A    
C48   O24   S    
C85   C89   A    
O40   H36   S    
C32   C44   A    
N3    C96   S    
C65   Br1   S    
C33   C34   A    
C42   H2    S    
C45   O21   S    
N1    C94   S    
C41   H1    S    
C87   H27   S    
N4    C52   A    
O20   V2    S    
S4    O39   D    
C12   C24   A    
S7    O47   D    
C2    C83   S    
C37   C41   A    
C13   C17   A    
O46   H38   S    
C3    C82   S    
S2    O33   D    
C15   H15   S    
C47   N3    A    
S3    O35   D    
C74   C94   A    
C60   C64   A    
C16   C20   A    
S8    O50   D    
C75   S3    S    
C18   H9    S    
O34   H34   S    
C54   C58   A    
C4    O14   A    
S7    O48   D    
C90   H30   S    
C85   H25   S    
C63   C72   A    
C55   C59   A    
C88   C92   A    
S5    O42   D    
C40   H20   S    
C22   H5    S    
C49   C53   A    
C28   C32   A    
S3    O36   D    
C84   C88   A    
