data_mof_unit_21677.cif
_audit_creation_date              2013-03-05T15:49:19-0500
_audit_creation_method            fapswitch 2.2
_symmetry_space_group_name_H-M    P1
_symmetry_Int_Tables_number       1
_space_group_crystal_system       triclinic
_cell_length_a                    10.669501
_cell_length_b                    11.948442
_cell_length_c                    12.851999
_cell_angle_alpha                 94.083483
_cell_angle_beta                  89.939552
_cell_angle_gamma                 86.122297
_cell_volume                      1630.49401713

loop_
_atom_site_label
_atom_site_type_symbol
_atom_site_description
_atom_site_fract_x
_atom_site_fract_y
_atom_site_fract_z
_atom_type_partial_charge
O1    O     O_R   0.506170 0.421690 0.658830 -0.587271
O2    O     O_R   0.491330 0.609320 0.646410 -0.580166
C1    C     C_R   0.496321 0.523083 0.700800 0.967309
O3    O     O_R   0.690660 0.406170 0.506210 -0.650462
O4    O     O_R   0.675810 0.593790 0.493790 -0.570572
C2    C     C_R   0.738324 0.496833 0.482439 0.920597
Zn1   Zn    Zn3+2 0.509910 0.374720 0.508290 0.981544
Zn2   Zn    Zn3+2 0.490090 0.625280 0.491710 1.032827
O5    O     O_R   0.508670 0.390680 0.353590 -0.633464
O6    O     O_R   0.493830 0.578310 0.341170 -0.613323
O7    O     O_R   0.324190 0.406210 0.506210 -0.633565
O8    O     O_R   0.309340 0.593830 0.493790 -0.625514
C3    C     C_R   0.502112 0.477027 0.299682 0.877382
C4    C     C_R   0.258827 0.500068 0.505561 0.928989
C5    C     C_R   0.896827 0.280544 0.452569 -0.111665
H1    H     H_    0.812543 0.269003 0.407392 0.168776
C6    C     C_R   0.958627 0.185579 0.490529 -0.077399
H2    H     H_    0.919980 0.104286 0.477704 0.177485
C7    C     C_R   0.068178 0.196276 0.547554 -0.091582
H3    H     H_    0.113809 0.123704 0.581166 0.169738
C8    C     C_R   0.121619 0.299743 0.558152 -0.091441
H4    H     H_    0.205495 0.303350 0.604610 0.218413
C9    C     C_R   0.064972 0.395140 0.512048 0.096369
C10   C     C_R   0.943622 0.388228 0.472590 0.055072
C11   C     C_R   0.871575 0.489969 0.458413 -0.247164
C12   C     C_R   0.930814 0.589668 0.445570 0.315236
H5    H     H_    0.103079 0.667751 0.454853 0.213459
C13   C     C_R   0.056929 0.591808 0.467678 -0.247939
C14   C     C_R   0.124053 0.496893 0.502354 -0.160958
C15   C     C_R   0.499167 0.461068 0.188802 -0.060240
C16   C     C_R   0.494672 0.538794 0.813123 -0.297703
C17   C     C_R   0.581946 0.622287 0.970674 -0.224531
C18   C     C_R   0.562040 0.623824 0.864481 0.291221
C19   C     C_R   0.439463 0.457651 0.869175 0.234965
C20   C     C_R   0.461897 0.455288 0.975672 0.044509
C21   C     C_R   0.533909 0.538464 0.025750 0.055333
C22   C     C_R   0.552645 0.540079 0.131812 -0.183109
C23   C     C_R   0.432020 0.375737 0.140536 -0.179416
C24   C     C_R   0.412376 0.373239 0.034018 -0.089307
H6    H     H_    0.605148 0.605385 0.170952 0.191296
H7    H     H_    0.389596 0.314944 0.185792 0.196609
H8    H     H_    0.634531 0.687177 0.010205 0.198504
H9    H     H_    0.356134 0.308818 0.998923 0.209401
N1    N     N_R   0.523130 0.207800 0.519340 -0.125607
N2    N     N_R   0.476870 0.792180 0.480660 -0.130627
C25   C     C_R   0.387007 0.951827 0.395874 0.301755
C26   C     C_R   0.397109 0.835815 0.409246 -0.080507
C27   C     C_R   0.550200 0.859092 0.541000 0.069466
C28   C     C_R   0.541732 0.976159 0.533607 0.018127
C29   C     C_R   0.458578 0.023987 0.460776 -0.056324
C30   C     C_R   0.451284 0.142199 0.455906 0.021459
C31   C     C_R   0.604378 0.162075 0.588568 0.058829
C32   C     C_R   0.615139 0.045866 0.597097 -0.212663
H10   H     H_    0.388669 0.183360 0.402406 0.190902
H11   H     H_    0.660985 0.216103 0.637340 0.149892
H12   H     H_    0.680046 0.010848 0.652921 0.181071
H13   H     H_    0.342541 0.779112 0.361560 0.175683
H14   H     H_    0.615519 0.820834 0.594514 0.189990
N3    N     N_R   0.865657 0.687141 0.406144 0.229450
O9    O     O_R   0.896853 0.787594 0.436888 -0.373008
O10   O     O_R   0.787351 0.675383 0.329161 -0.389477
N4    N     N_R   0.611594 0.711592 0.810085 0.213601
O11   O     O_R   0.731802 0.724029 0.811769 -0.369876
O12   O     O_R   0.535520 0.793875 0.782593 -0.375141
N5    N     N_R   0.357033 0.381153 0.818123 0.205101
O13   O     O_R   0.253470 0.420139 0.776473 -0.413195
O14   O     O_R   0.390696 0.274335 0.804931 -0.384994
S1    S     S_3+6 0.289207 0.001462 0.295359 0.030810
O15   O     O_2   0.185348 0.080210 0.342297 -0.274830
O16   O     O_2   0.364928 0.064116 0.222865 -0.307099
O17   O     O_3   0.225420 0.894349 0.227037 -0.492451
H15   H     H_    0.294798 0.857511 0.182990 0.361418

loop_
_geom_bond_atom_site_label_1
_geom_bond_atom_site_label_2
_geom_bond_distance
_ccdc_geom_bond_type
O4    Zn2   1.992357 S    
C20   C24   1.405879 A    
C9    C10   1.396500 A    
C16   C18   1.410250 A    
C27   H14   1.081839 S    
N4    O11   1.301110 A    
C26   H13   1.080994 S    
C12   N3    1.439348 S    
C25   C29   1.417824 A    
C12   C13   1.377101 A    
C7    H3    1.082708 S    
C31   H11   1.081817 S    
N4    O12   1.300919 A    
Zn2   O8    1.990080 S    
C30   H10   1.079659 S    
C17   C18   1.382670 A    
N1    C31   1.359544 A    
C8    C9    1.421056 A    
C6    H2    1.082669 S    
C11   C12   1.405501 A    
C16   C19   1.407747 A    
O17   H15   0.990812 S    
C29   C30   1.415177 A    
O1    Zn1   1.975334 S    
C8    H4    1.077919 S    
C31   C32   1.397611 A    
C1    C16   1.442348 S    
Zn1   O7    1.992357 S    
C15   C23   1.395443 A    
C23   C24   1.383664 A    
C21   C22   1.376860 A    
S1    O17   1.682617 S    
C27   C28   1.405558 A    
C28   C29   1.413939 A    
C9    C14   1.419895 A    
N1    C30   1.363164 A    
S1    O16   1.503568 D    
C5    C10   1.418091 A    
C7    C8    1.394116 A    
O8    C4    1.293865 A    
C19   C20   1.391647 A    
C22   H6    1.086061 S    
O2    C1    1.283907 A    
N2    C26   1.359492 A    
C24   H9    1.081476 S    
O4    C2    1.295944 A    
S1    O15   1.501295 D    
O7    C4    1.280487 A    
C28   C32   1.402044 A    
N3    O10   1.301724 A    
C2    C11   1.450198 S    
N5    O14   1.301442 A    
C4    C14   1.441592 S    
C6    C7    1.388644 A    
C5    H1    1.082262 S    
C17   C21   1.391574 A    
C3    C15   1.424876 S    
N3    O9    1.301645 A    
C10   C11   1.416809 A    
C19   N5    1.436658 S    
C23   H7    1.083927 S    
O3    C2    1.283264 A    
N5    O13   1.300623 A    
C25   C26   1.405833 A    
C32   H12   1.083515 S    
H5    C13   1.083771 S    
Zn1   O5    2.010772 S    
C17   H8    1.085063 S    
Zn2   N2    2.004797 S    
C13   C14   1.400162 A    
O5    C3    1.281198 A    
N2    C27   1.360258 A    
O3    Zn1   1.990083 S    
C25   S1    1.771330 S    
C5    C6    1.392340 A    
Zn1   N1    2.005033 S    
Zn2   O6    1.975335 S    
O2    Zn2   2.010773 S    
C20   C21   1.416151 A    
C15   C22   1.386981 A    
C18   N4    1.430608 S    
O1    C1    1.288131 A    
O6    C3    1.284594 A    
