data_mof_unit_30693.cif
_audit_creation_date              2013-03-05T16:36:14-0500
_audit_creation_method            fapswitch 2.2
_symmetry_space_group_name_H-M    P1
_symmetry_Int_Tables_number       1
_space_group_crystal_system       triclinic
_cell_length_a                    27.946568
_cell_length_b                    9.071908
_cell_length_c                    7.766449
_cell_angle_alpha                 90.075042
_cell_angle_beta                  90.224955
_cell_angle_gamma                 89.984763
_cell_volume                      1969.00073849

loop_
_atom_site_label
_atom_site_type_symbol
_atom_site_description
_atom_site_fract_x
_atom_site_fract_y
_atom_site_fract_z
_atom_type_partial_charge
O1    O     O_R   0.500000 0.288390 0.642760 -0.583760
O2    O     O_R   0.500000 0.711610 0.357240 -0.583770
O3    O     O_R   0.500000 0.711610 0.642760 -0.587446
O4    O     O_R   0.500000 0.288390 0.357240 -0.587445
C1    C     C_R   0.500001 0.219984 0.499926 0.827624
C2    C     C_R   0.499999 0.780016 0.500074 0.827636
O5    O     O_R   0.430260 0.500000 0.642770 -0.544192
O6    O     O_R   0.569740 0.500000 0.357230 -0.544167
O7    O     O_R   0.569740 0.500000 0.642770 -0.543876
O8    O     O_R   0.430260 0.500000 0.357230 -0.543926
C3    C     C_R   0.407089 0.499968 0.499605 0.839923
C4    C     C_R   0.592911 0.500035 0.500396 0.840035
Cu1   Cu    Cu3+1 0.500000 0.500000 0.669080 1.026782
Cu2   Cu    Cu3+1 0.500000 0.500000 0.330920 1.026776
C5    C     C_R   0.177803 0.379783 0.439400 0.614567
C6    C     C_R   0.822197 0.620297 0.560683 0.614556
C7    C     C_R   0.177995 0.627482 0.542293 0.612056
C8    C     C_R   0.822005 0.372609 0.457757 0.612040
O9    O     O_2   0.203217 0.258233 0.399475 -0.442383
O10   O     O_2   0.796782 0.741838 0.600629 -0.442398
O11   O     O_2   0.203748 0.747456 0.586145 -0.446295
O12   O     O_2   0.796253 0.252644 0.413872 -0.446329
N1    N     N_R   0.201669 0.502991 0.492586 -0.463216
N2    N     N_R   0.798331 0.497096 0.507472 -0.463218
C9    C     C_R   0.277977 0.519879 0.649737 -0.179033
C10   C     C_R   0.722027 0.480231 0.350298 -0.179186
C11   C     C_R   0.278407 0.483144 0.341540 -0.181203
C12   C     C_R   0.721590 0.516896 0.658493 -0.181318
C13   C     C_R   0.328038 0.523571 0.652435 0.378757
C14   C     C_R   0.671966 0.476482 0.347587 0.378711
C15   C     C_R   0.328416 0.477549 0.342300 0.379354
C16   C     C_R   0.671579 0.522477 0.657716 0.379275
C17   C     C_R   0.253113 0.502004 0.494710 0.205633
C18   C     C_R   0.746887 0.498083 0.505331 0.205770
C19   C     C_R   0.101900 0.503875 0.490367 -0.153656
C20   C     C_R   0.898100 0.496207 0.509714 -0.153659
C21   C     C_R   0.127383 0.378762 0.430242 -0.097823
C22   C     C_R   0.872617 0.621318 0.569842 -0.097824
C23   C     C_R   0.127479 0.630578 0.546174 -0.100714
C24   C     C_R   0.872521 0.369507 0.453897 -0.100709
C25   C     C_R   0.101561 0.258042 0.362343 0.453494
C26   C     C_R   0.898438 0.742037 0.637745 0.453494
C27   C     C_R   0.101607 0.755836 0.601203 0.449467
C28   C     C_R   0.898394 0.244246 0.398880 0.449470
C29   C     C_R   0.353974 0.500219 0.498233 -0.255847
C30   C     C_R   0.646026 0.499805 0.501779 -0.255658
H1    H     H_    0.259105 0.471245 0.221064 0.176364
H2    H     H_    0.740890 0.528759 0.778973 0.176277
H3    H     H_    0.258330 0.532574 0.768823 0.176286
H4    H     H_    0.741680 0.467587 0.231219 0.176216
C31   C     C_R   0.974529 0.372785 0.445063 0.017985
C32   C     C_R   0.025471 0.627295 0.555027 0.017986
C33   C     C_R   0.974538 0.623910 0.564085 0.018931
C34   C     C_R   0.025463 0.376171 0.436005 0.018932
C35   C     C_R   0.949188 0.497765 0.505855 0.081601
C36   C     C_R   0.050812 0.502316 0.494232 0.081602
C37   C     C_R   0.948026 0.246550 0.397917 -0.238578
C38   C     C_R   0.051974 0.753529 0.602178 -0.238577
C39   C     C_R   0.948056 0.741603 0.634927 -0.237648
C40   C     C_R   0.051944 0.258478 0.365160 -0.237651
H5    H     H_    0.964721 0.144605 0.361019 0.175622
H6    H     H_    0.035280 0.855471 0.639090 0.175622
H7    H     H_    0.964752 0.835504 0.694533 0.176992
H8    H     H_    0.035248 0.164579 0.305551 0.176993
C41   C     C_1   0.500000 0.065400 0.499898 -0.183429
C42   C     C_1   0.499999 0.934600 0.500102 -0.183428
N3    N     N_1   0.500000 0.500000 0.076820 -0.032003
N4    N     N_1   0.500000 0.500000 0.923180 -0.032003
O13   O     O_3   0.352140 0.457841 0.188133 -0.539942
C43   C     C_3   0.351167 0.306741 0.145349 -0.165852
H9    H     H_    0.314097 0.269031 0.116689 0.166793
H10   H     H_    0.367417 0.238141 0.249123 0.126053
H11   H     H_    0.372738 0.289859 0.027341 0.200230
O14   O     O_3   0.647844 0.542147 0.811860 -0.540106
C44   C     C_3   0.648904 0.693174 0.854916 -0.165743
H12   H     H_    0.632786 0.762033 0.751132 0.126045
H13   H     H_    0.685980 0.730551 0.883991 0.166853
H14   H     H_    0.627261 0.710072 0.972739 0.200229
O15   O     O_3   0.351407 0.542518 0.808078 -0.539996
C45   C     C_3   0.350951 0.693753 0.850441 -0.167673
H15   H     H_    0.367697 0.761548 0.747417 0.126382
H16   H     H_    0.372338 0.710038 0.969605 0.200930
H17   H     H_    0.313969 0.732947 0.876925 0.165725
O16   O     O_3   0.648598 0.457535 0.191946 -0.540108
C46   C     C_3   0.649145 0.306351 0.149382 -0.167844
H18   H     H_    0.627831 0.290112 0.030051 0.201102
H19   H     H_    0.632372 0.238405 0.252206 0.126542
H20   H     H_    0.686155 0.267303 0.123097 0.165689
Cl1   Cl    Cl    0.128180 0.104017 0.260605 -0.458335
Cl2   Cl    Cl    0.871819 0.896063 0.739482 -0.458353
Cl3   Cl    Cl    0.128069 0.921809 0.674315 -0.454533
Cl4   Cl    Cl    0.871932 0.078270 0.325777 -0.454549

loop_
_geom_bond_atom_site_label_1
_geom_bond_atom_site_label_2
_geom_bond_distance
_ccdc_geom_bond_type
C38   H6    1.074824 S    
O5    Cu1   1.958878 S    
C25   Cl1   1.769570 S    
O3    C2    1.270803 A    
C33   C39   1.411249 A    
C34   C40   1.411249 A    
C46   H18   1.109410 S    
C11   C17   1.396439 A    
O5    C3    1.284505 A    
C7    N1    1.364806 A    
C2    C42   1.402372 S    
C21   C25   1.412129 A    
O1    C1    1.270384 A    
C19   C21   1.419244 A    
C22   C26   1.412131 A    
C10   H4    1.083404 S    
C16   O14   1.382256 S    
C7    C23   1.412468 A    
O7    Cu1   1.960471 S    
C5    C21   1.410619 A    
C20   C24   1.420123 A    
C8    C24   1.412462 A    
C27   C38   1.387264 A    
C5    O9    1.347938 S    
C10   C18   1.397012 A    
N1    C17   1.437747 S    
N2    C18   1.437743 S    
Cu2   N3    1.973454 S    
C43   H9    1.112646 S    
C31   C37   1.411158 A    
O3    Cu1   1.930825 S    
C6    O10   1.347929 S    
C46   H19   1.114347 S    
C12   C18   1.396391 A    
C6    N2    1.364487 A    
Cu1   Cu2   2.626303 S    
C14   O16   1.382207 S    
O2    C2    1.270383 A    
C45   H17   1.112739 S    
C44   H14   1.109336 S    
C33   C35   1.418646 A    
C9    C13   1.399500 A    
C34   C36   1.418646 A    
O14   C44   1.410182 S    
C11   C15   1.398489 A    
N3    N4    1.193238 T    
C12   C16   1.398518 A    
O16   C46   1.410477 S    
C4    C30   1.484382 S    
O8    Cu2   1.960474 S    
O4    C1    1.270802 A    
C23   C27   1.413294 A    
C27   Cl3   1.769596 S    
C13   C29   1.417944 A    
C26   Cl2   1.769569 S    
C19   C23   1.420125 A    
C44   H12   1.114064 S    
C13   O15   1.382226 S    
C15   O13   1.382298 S    
C28   C37   1.387260 A    
O6    C4    1.284516 A    
C43   H11   1.109392 S    
C44   H13   1.112533 S    
C32   C38   1.411160 A    
C1    C41   1.402372 S    
C10   C14   1.399531 A    
C8    N2    1.364802 A    
C3    C29   1.484371 S    
O1    Cu1   1.930294 S    
C32   C33   1.425765 A    
C46   H20   1.112763 S    
C11   H1    1.083475 S    
C12   H2    1.083443 S    
O6    Cu2   1.958875 S    
C19   C36   1.428228 A    
C8    O12   1.347606 S    
C16   C30   1.418309 A    
C14   C30   1.417892 A    
C25   C40   1.386907 A    
C45   H15   1.114392 S    
C28   Cl4   1.769596 S    
C26   C39   1.386913 A    
C37   H5    1.074824 S    
C39   H7    1.074779 S    
C40   H8    1.074782 S    
C31   C34   1.425763 A    
C20   C22   1.419244 A    
C20   C35   1.428229 A    
C5    N1    1.364492 A    
C45   H16   1.109474 S    
C31   C35   1.418025 A    
O4    Cu2   1.930826 S    
O13   C43   1.410285 S    
O2    Cu2   1.930293 S    
O7    C4    1.283598 A    
C9    H3    1.083429 S    
O8    C3    1.283606 A    
O15   C45   1.410538 S    
C24   C28   1.413294 A    
C41   C42   1.186613 T    
C15   C29   1.418352 A    
C9    C17   1.397054 A    
C43   H10   1.114176 S    
C32   C36   1.418026 A    
C6    C22   1.410622 A    
Cu1   N4    1.973454 S    
C7    O11   1.347618 S    
