data_mof_unit_50677.cif
_audit_creation_date              2012-12-10T17:53:11-0500
_audit_creation_method            fapswitch 2.2
_symmetry_space_group_name_H-M    P1
_symmetry_Int_Tables_number       1
_space_group_crystal_system       triclinic
_cell_length_a                    14.651871
_cell_length_b                    14.501852
_cell_length_c                    27.689357
_cell_angle_alpha                 76.637575
_cell_angle_beta                  102.29484
_cell_angle_gamma                 114.598207
_cell_volume                      5159.14668361

loop_
_atom_site_label
_atom_site_type_symbol
_atom_type_description
_atom_site_fract_x
_atom_site_fract_y
_atom_site_fract_z
_atom_type_partial_charge
C1    C     C_R   0.880504 0.311023 0.507539 0.884008
C2    C     C_R   0.119474 0.689161 0.492086 0.857811
C3    C     C_R   0.995233 0.464515 0.902334 -0.088278
C4    C     C_R   0.999269 0.449773 0.108220 -0.088321
C5    C     C_R   0.908254 0.402940 0.873553 -0.104771
C6    C     C_R   0.091854 0.489041 0.139690 -0.088945
C7    C     C_R   0.827251 0.325041 0.898329 -0.081555
C8    C     C_R   0.184736 0.516012 0.121221 -0.083291
C9    C     C_R   0.079830 0.537648 0.878842 -0.008180
C10   C     C_R   0.905639 0.415467 0.126964 -0.008391
C11   C     C_R   0.994303 0.495666 0.645554 -0.089511
C12   C     C_R   0.998594 0.490572 0.355802 -0.100174
C13   C     C_R   0.908160 0.399805 0.027088 0.061594
C14   C     C_R   0.087413 0.508631 0.984207 0.059055
C15   C     C_R   0.092118 0.490027 0.037256 0.001162
C16   C     C_R   0.910518 0.388696 0.977670 0.002031
C17   C     C_R   0.999984 0.446062 0.057648 0.076118
C18   C     C_R   0.997723 0.453608 0.954713 0.076012
C19   C     C_R   0.816509 0.372244 0.045461 -0.215589
C20   C     C_R   0.167376 0.585425 0.959828 -0.217836
C21   C     C_R   0.814078 0.378566 0.094617 0.173360
C22   C     C_R   0.164999 0.600058 0.908084 0.173276
C23   C     C_R   0.998513 0.498974 0.592474 0.895196
C24   C     C_R   0.000421 0.499120 0.407764 0.920915
C25   C     C_R   0.829546 0.316262 0.950566 -0.098755
C26   C     C_R   0.184634 0.514008 0.070277 -0.101405
C27   C     C_R   0.813887 0.200649 0.510269 -0.065404
C28   C     C_R   0.186136 0.799913 0.488022 -0.132066
C29   C     C_R   0.782710 0.019071 0.516706 -0.022226
C30   C     C_R   0.219273 0.982769 0.478602 0.020749
C31   C     C_R   0.851213 0.121984 0.519444 0.045206
C32   C     C_R   0.149878 0.880179 0.477722 0.050158
C33   C     C_R   0.709784 0.174700 0.503003 -0.209806
C34   C     C_R   0.290337 0.825315 0.494389 -0.173093
C35   C     C_R   0.640612 0.072673 0.505982 0.056302
C36   C     C_R   0.360150 0.927234 0.490653 0.054018
C37   C     C_R   0.676486 0.996037 0.505493 0.028056
C38   C     C_R   0.324952 0.004726 0.490354 -0.002359
C39   C     C_R   0.535536 0.047584 0.504930 0.014713
C40   C     C_R   0.465260 0.951869 0.491854 0.013532
C41   C     C_R   0.501985 0.885685 0.478416 0.090969
C42   C     C_R   0.498798 0.113621 0.518499 0.112652
C43   C     C_R   0.606090 0.903602 0.488840 0.115465
C44   C     C_R   0.395133 0.096753 0.507284 0.117488
C45   C     C_R   0.907298 0.419613 0.820993 0.625238
C46   C     C_R   0.087596 0.497676 0.189030 0.623313
C47   C     C_R   0.710644 0.660156 0.410444 0.089272
C48   C     C_R   0.288881 0.339531 0.589491 0.069088
C49   C     C_R   0.796099 0.636049 0.427902 0.008981
C50   C     C_R   0.203096 0.362323 0.571296 0.112887
C51   C     C_R   0.715104 0.512445 0.493642 0.047142
C52   C     C_R   0.285943 0.489546 0.507201 0.037456
C53   C     C_R   0.629175 0.539346 0.480913 -0.094299
C54   C     C_R   0.371622 0.462252 0.519581 -0.051936
C55   C     C_R   0.622784 0.605949 0.435084 0.148822
C56   C     C_R   0.378085 0.395250 0.565442 0.111365
C57   C     C_R   0.547899 0.497614 0.510851 -0.008940
C58   C     C_R   0.452626 0.504032 0.489346 -0.012002
C59   C     C_R   0.441231 0.550520 0.438161 -0.118474
C60   C     C_R   0.559890 0.452468 0.562069 -0.174171
C61   C     C_R   0.527673 0.609751 0.413338 0.064965
C62   C     C_R   0.474021 0.392870 0.587161 0.055859
C63   C     C_R   0.076009 0.546048 0.826777 0.592884
C64   C     C_R   0.907011 0.421324 0.177234 0.592400
C65   C     C_R   0.982294 0.576991 0.711217 -0.002524
C66   C     C_R   0.985229 0.383624 0.295841 -0.005975
C67   C     C_R   0.984890 0.578290 0.660107 0.068596
C68   C     C_R   0.986056 0.394803 0.345369 0.018460
C69   C     C_R   0.001773 0.411868 0.681922 -0.091939
C70   C     C_R   0.008031 0.575187 0.316861 -0.091805
C71   C     C_R   0.001828 0.412944 0.732147 -0.148114
C72   C     C_R   0.005386 0.562526 0.267962 -0.133598
C73   C     C_R   0.991158 0.493193 0.746953 0.235198
C74   C     C_R   0.995762 0.469031 0.257384 0.233028
Cu1   Cu    Cu3+1 0.081740 0.475690 0.513040 0.997528
Cu2   Cu    Cu3+1 0.918260 0.524310 0.486960 0.981344
H1    H     H_    0.317538 0.763878 0.505359 0.188026
H2    H     H_    0.682306 0.235946 0.492240 0.189594
H3    H     H_    0.284145 0.553175 0.478353 0.147702
H4    H     H_    0.717486 0.450110 0.523181 0.137066
H5    H     H_    0.135724 0.321145 0.589611 0.168588
H6    H     H_    0.862410 0.675280 0.408696 0.139042
H7    H     H_    0.007498 0.349190 0.760402 0.184743
H8    H     H_    0.013618 0.626641 0.237583 0.184620
H9    H     H_    0.745190 0.349202 0.021201 0.159165
H10   H     H_    0.231547 0.638043 0.980500 0.160372
N1    N     N_R   0.990800 0.487945 0.799409 -0.454719
N2    N     N_R   0.996722 0.462036 0.206596 -0.462430
N3    N     N_R   0.795430 0.560780 0.467350 -0.192560
N4    N     N_R   0.204570 0.439220 0.532650 -0.214438
O1    O     O_R   0.977900 0.338120 0.517190 -0.539246
O2    O     O_R   0.022100 0.661880 0.482810 -0.590495
O3    O     O_R   0.839850 0.379180 0.495160 -0.606068
O4    O     O_R   0.160150 0.620820 0.504840 -0.589558
O5    O     O_R   0.069030 0.479490 0.580750 -0.595941
O6    O     O_R   0.930970 0.520510 0.419250 -0.588984
O7    O     O_R   0.930970 0.520550 0.558720 -0.535085
O8    O     O_R   0.069030 0.479450 0.441280 -0.546938
O9    O     O_2   0.823652 0.369431 0.791128 -0.484608
O10   O     O_2   0.172912 0.542128 0.219454 -0.494250
O11   O     O_2   0.819889 0.387328 0.196975 -0.477867
O12   O     O_2   0.156722 0.610679 0.803371 -0.484685
C75   C     C_2   0.004011 0.319320 0.668722 0.866683
O13   O     O_2   0.055293 0.274917 0.696419 -0.567880
O14   O     O_R   0.944434 0.280272 0.625811 -0.765390
H11   H     H_    0.950976 0.215785 0.621591 0.338306
C76   C     C_2   0.025212 0.678636 0.326066 0.862194
O15   O     O_2   0.996013 0.736597 0.293229 -0.570858
O16   O     O_R   0.077574 0.711606 0.371385 -0.770124
H12   H     H_    0.086215 0.784241 0.372391 0.330616
N5    N     N_3   0.043685 0.860257 0.466637 -0.514806
H13   H     H_    0.013382 0.824568 0.434890 0.225154
H14   H     H_    0.007359 0.813729 0.497396 0.271679
N6    N     N_3   0.958340 0.147275 0.530873 -0.551025
H15   H     H_    0.983035 0.131966 0.502033 0.296016
H16   H     H_    0.973203 0.102333 0.564560 0.237253
C77   C     C_2   0.822507 0.936204 0.529616 0.891326
O17   O     O_2   0.889079 0.940780 0.507908 -0.563878
O18   O     O_R   0.782704 0.852304 0.566561 -0.719095
H17   H     H_    0.815133 0.800501 0.571888 0.357213
C78   C     C_2   0.180254 0.066300 0.463542 0.941825
O19   O     O_2   0.108548 0.060518 0.481656 -0.557987
O20   O     O_R   0.225571 0.151390 0.428249 -0.731156
H18   H     H_    0.192324 0.202923 0.420913 0.352893
N7    N     N_3   0.435327 0.806570 0.449560 -0.574842
H19   H     H_    0.438024 0.736006 0.467932 0.209645
H20   H     H_    0.459362 0.823559 0.414477 0.244735
N8    N     N_3   0.564731 0.191179 0.548338 -0.604717
H21   H     H_    0.539127 0.172952 0.583119 0.225111
H22   H     H_    0.562946 0.262353 0.530413 0.200333
N9    N     N_3   0.517042 0.664370 0.363448 -0.518114
H23   H     H_    0.468071 0.612659 0.339588 0.262276
H24   H     H_    0.487850 0.718693 0.363912 0.254854
N10   N     N_3   0.486550 0.339908 0.637201 -0.606482
H25   H     H_    0.513692 0.284055 0.636734 0.223788
H26   H     H_    0.537463 0.391977 0.660455 0.270762
N11   N     N_3   0.714826 0.739923 0.368249 -0.536008
H27   H     H_    0.774323 0.807581 0.377280 0.235652
H28   H     H_    0.731638 0.719976 0.338217 0.244002
N12   N     N_3   0.280608 0.258503 0.631411 -0.557928
H29   H     H_    0.322387 0.289509 0.663511 0.277620
H30   H     H_    0.306010 0.206404 0.623900 0.252488
C79   C     C_2   0.339568 0.524198 0.407620 0.835770
O21   O     O_2   0.313745 0.591677 0.381163 -0.584780
O22   O     O_R   0.272776 0.421344 0.409967 -0.741372
H31   H     H_    0.206077 0.412779 0.387759 0.342396
C80   C     C_2   0.661410 0.485392 0.592926 0.866335
O23   O     O_2   0.708277 0.576401 0.595731 -0.541170
O24   O     O_R   0.704933 0.415344 0.618522 -0.718054
H32   H     H_    0.666197 0.344204 0.609391 0.294158
C81   C     C_2   0.744077 0.246657 0.871132 0.988578
O25   O     O_2   0.759504 0.178036 0.860004 -0.552308
O26   O     O_R   0.648736 0.252159 0.858094 -0.686830
H33   H     H_    0.598338 0.194673 0.839552 0.351762
C82   C     C_2   0.281040 0.536865 0.155682 0.987867
O27   O     O_2   0.345353 0.624309 0.154083 -0.517818
O28   O     O_R   0.296771 0.456405 0.190489 -0.702963
H34   H     H_    0.364724 0.480033 0.212254 0.349492
N13   N     N_3   0.975472 0.310288 0.385918 -0.576698
H35   H     H_    0.028559 0.279428 0.386078 0.241863
H36   H     H_    0.902493 0.254087 0.380822 0.269963
N14   N     N_3   0.977751 0.662439 0.622334 -0.560761
H37   H     H_    0.912929 0.673732 0.624579 0.277626
H38   H     H_    0.041816 0.728695 0.628608 0.253200
C83   C     C_2   0.975435 0.284409 0.284227 0.869466
O29   O     O_2   0.027787 0.283823 0.255391 -0.549307
O30   O     O_R   0.905975 0.191556 0.305858 -0.756545
H39   H     H_    0.906661 0.129749 0.294974 0.353916
C84   C     C_2   0.968200 0.660548 0.727559 0.892659
O31   O     O_2   0.010265 0.750169 0.708906 -0.580456
O32   O     O_R   0.907204 0.636648 0.764862 -0.731351
H40   H     H_    0.904095 0.699800 0.773069 0.350884
N15   N     N_3   0.717607 0.348376 0.110844 -0.486503
H41   H     H_    0.680491 0.393625 0.087589 0.232311
H42   H     H_    0.674664 0.271886 0.106173 0.244366
N16   N     N_3   0.249523 0.679770 0.885767 -0.487043
H43   H     H_    0.314583 0.665319 0.901884 0.242281
H44   H     H_    0.258509 0.749612 0.894631 0.234623
C85   C     C_2   0.757918 0.221451 0.978121 0.836201
O33   O     O_2   0.667003 0.189974 0.963576 -0.554526
O34   O     O_R   0.795320 0.169431 0.021478 -0.720062
H45   H     H_    0.739835 0.107092 0.037339 0.353061
C86   C     C_2   0.276983 0.518106 0.053735 0.836024
O35   O     O_2   0.359544 0.586019 0.063235 -0.551307
O36   O     O_R   0.268193 0.444594 0.026162 -0.722819
H46   H     H_    0.335328 0.455684 0.016406 0.347981
N17   N     N_3   0.640957 0.833388 0.476958 -0.565948
H47   H     H_    0.605525 0.760311 0.496979 0.247028
H48   H     H_    0.622514 0.830292 0.438627 0.231883
N18   N     N_3   0.360173 0.167084 0.518999 -0.573116
H49   H     H_    0.377769 0.169653 0.557379 0.214075
H50   H     H_    0.396503 0.240323 0.499347 0.252849

loop_
_geom_bond_atom_site_label_1
_geom_bond_atom_site_label_2
_ccdc_geom_bond_type
C66   C68   A    
O32   H40   S    
C82   O27   D    
N18   H49   S    
C32   N5    S    
C82   O28   S    
C8    C26   A    
C84   O31   D    
C14   C18   A    
O14   H11   S    
C52   N4    A    
C80   O23   D    
Cu1   Cu2   S    
N8    H21   S    
O22   H31   S    
C57   C58   A    
Cu1   O5    S    
O20   H18   S    
C47   C49   A    
O34   H45   S    
C27   C33   A    
C12   C68   A    
C83   O29   D    
C23   O5    A    
C24   O8    A    
C45   N1    A    
N12   H30   S    
C70   C76   S    
C24   O6    A    
C34   H1    S    
C54   C58   A    
C9    C22   A    
C79   O21   D    
C66   C74   A    
C79   O22   S    
C65   C73   A    
C30   C38   A    
C3    C18   A    
C60   C62   A    
C11   C23   S    
C69   C71   A    
C8    C82   S    
C51   H4    S    
C73   N1    S    
C12   C70   A    
Cu1   N4    S    
C44   N18   S    
C50   N4    A    
O28   H34   S    
N5    H14   S    
N5    H13   S    
C52   C54   A    
C65   C67   A    
C20   H10   S    
C76   O15   D    
N13   H36   S    
C60   C80   S    
C43   N17   S    
C68   N13   S    
C41   C43   A    
C31   N6    S    
C71   H7    S    
C42   N8    S    
Cu2   N3    S    
C63   N1    A    
C26   C86   S    
C53   C55   A    
C59   C79   S    
C83   O30   S    
C76   O16   S    
C42   C44   A    
C63   O12   S    
C28   C32   A    
C11   C67   A    
N6    H15   S    
C39   C42   A    
N14   H38   S    
C69   C75   S    
C10   C21   A    
C64   O11   S    
C54   C56   A    
C59   C61   A    
N17   H48   S    
C48   N12   S    
C27   C31   A    
C41   N7    S    
C2    O4    A    
N12   H29   S    
C72   C74   A    
C45   O9    S    
O30   H39   S    
C71   C73   A    
C53   C57   A    
C15   C26   A    
C6    C8    A    
C19   H9    S    
C58   C59   A    
N15   H41   S    
C5    C45   A    
C70   C72   A    
Cu1   O8    S    
C65   C84   S    
C51   C53   A    
C49   H6    S    
C37   C43   A    
C35   C39   A    
C86   O35   D    
C38   C44   A    
C3    C9    A    
C14   C20   A    
Cu2   O3    S    
C86   O36   S    
C5    C7    A    
C22   N16   S    
N13   H35   S    
C30   C78   S    
C36   C40   A    
C81   O25   D    
C47   N11   S    
C11   C69   A    
C75   O14   S    
C16   C18   A    
C2    O2    A    
N11   H28   S    
C78   O19   D    
C72   H8    S    
N15   H42   S    
Cu2   O2    S    
C7    C81   S    
C4    C17   A    
C4    C6    A    
N16   H43   S    
C23   O7    A    
C20   C22   A    
C21   N15   S    
N7    H19   S    
C56   C62   A    
C1    C27   S    
C4    C10   A    
N9    H23   S    
C52   H3    S    
C3    C5    A    
C39   C40   A    
C35   C37   A    
C47   C55   A    
N14   H37   S    
C84   O32   S    
C16   C25   A    
C48   C56   A    
C46   O10   S    
C40   C41   A    
N18   H50   S    
C6    C46   A    
C66   C83   S    
C19   C21   A    
C9    C63   A    
C10   C64   A    
C49   N3    A    
N9    H24   S    
N8    H22   S    
N6    H16   S    
O18   H17   S    
C25   C85   S    
C15   C17   A    
N10   H25   S    
Cu1   O1    S    
C80   O24   S    
N11   H27   S    
C12   C24   S    
C7    C25   A    
C46   N2    A    
C13   C17   A    
C62   N10   S    
C77   O18   S    
Cu2   O7    S    
N17   H47   S    
C29   C31   A    
O24   H32   S    
C51   N3    A    
C36   C38   A    
C30   C32   A    
C67   N14   S    
O36   H46   S    
C29   C77   S    
C55   C61   A    
C48   C50   A    
C33   C35   A    
N10   H26   S    
C34   C36   A    
C81   O26   S    
C33   H2    S    
C78   O20   S    
C61   N9    S    
C28   C34   A    
C85   O33   D    
O16   H12   S    
C57   C60   A    
C50   H5    S    
C1    O3    A    
C1    O1    A    
C13   C16   A    
C29   C37   A    
C75   O13   D    
N7    H20   S    
C13   C19   A    
C14   C15   A    
C2    C28   S    
C74   N2    S    
O26   H33   S    
C77   O17   D    
C64   N2    A    
Cu2   O6    S    
Cu1   O4    S    
N16   H44   S    
C85   O34   S    
