data_mof_unit_5414.cif
_audit_creation_date              2012-12-11T15:13:41-0500
_audit_creation_method            fapswitch 2.2
_symmetry_space_group_name_H-M    P1
_symmetry_Int_Tables_number       1
_space_group_crystal_system       triclinic
_cell_length_a                    6.978083
_cell_length_b                    13.664112
_cell_length_c                    20.035426
_cell_angle_alpha                 104.308506
_cell_angle_beta                  89.52103
_cell_angle_gamma                 90.089882
_cell_volume                      1851.03777149

loop_
_atom_site_label
_atom_site_type_symbol
_atom_type_description
_atom_site_fract_x
_atom_site_fract_y
_atom_site_fract_z
_atom_type_partial_charge
O1    O     O_R   0.506780 0.600060 0.449950 -0.535202
O2    O     O_R   0.179840 0.597110 0.589410 -0.548215
O3    O     O_R   0.004570 0.399940 0.550050 -0.544349
C1    C     C_R   0.346074 0.614204 0.618384 0.661951
O4    O     O_R   0.177380 0.612160 0.452890 -0.539442
O5    O     O_R   0.002100 0.415100 0.412560 -0.529583
C2    C     C_R   0.346599 0.638026 0.436022 0.731545
O6    O     O_R   0.509250 0.584900 0.587440 -0.546454
O7    O     O_3   0.337570 0.435330 0.486930 -0.354479
V1    V     V_3+5 0.064650 0.512000 0.502430 1.463087
O8    O     O_R   0.672090 0.402890 0.410590 -0.515113
C3    C     C_R   0.841172 0.382442 0.382716 0.729501
O9    O     O_R   0.674540 0.387840 0.547110 -0.542171
C4    C     C_R   0.843437 0.364032 0.565202 0.695060
V2    V     V_3+5 0.564040 0.488000 0.497570 1.489410
O10   O     O_3   0.840990 0.564670 0.513070 -0.381525
C5    C     C_R   0.019658 0.133984 0.611035 0.246137
H1    H     H_    0.020529 0.190188 0.520567 0.143772
C6    C     C_R   0.860625 0.286700 0.602979 -0.073977
C7    C     C_R   0.811055 0.317833 0.933898 0.137884
C8    C     C_R   0.781618 0.390879 0.896488 -0.117068
C9    C     C_R   0.798239 0.366947 0.825118 -0.205400
C10   C     C_R   0.849068 0.268889 0.787411 0.097287
C11   C     C_R   0.886081 0.194725 0.824464 0.008723
C12   C     C_R   0.871775 0.243635 0.714198 0.033642
C13   C     C_R   0.954424 0.149092 0.680226 0.037887
C14   C     C_R   0.965881 0.072382 0.715677 0.134550
C15   C     C_R   0.942597 0.097462 0.787674 -0.191952
C16   C     C_R   0.816245 0.309423 0.673249 -0.206002
C17   C     C_R   0.967909 0.201422 0.573025 -0.154387
C18   C     C_R   0.859041 0.218107 0.897376 -0.124115
H2    H     H_    0.742128 0.379585 0.694538 0.100020
H3    H     H_    0.777033 0.428460 0.801078 0.109257
H4    H     H_    0.744556 0.467952 0.921759 0.128964
H5    H     H_    0.964570 0.039513 0.814937 0.125936
C19   C     C_3   0.735580 0.172210 0.247806 -0.165366
C20   C     C_3   0.910209 0.201103 0.296207 -0.183559
H6    H     H_    0.957091 0.161056 0.335187 0.129253
H7    H     H_    0.636520 0.108156 0.245961 0.120484
C21   C     C_3   0.850243 0.313028 0.311598 -0.049075
C22   C     C_3   0.678106 0.284722 0.263699 0.308977
C23   C     C_3   0.799388 0.299624 0.202470 -0.199494
C24   C     C_3   0.972524 0.328942 0.250863 -0.111397
C25   C     C_3   0.033950 0.216173 0.234886 -0.043912
C26   C     C_3   0.860005 0.188101 0.187407 -0.072748
H8    H     H_    0.750243 0.338899 0.163549 0.134479
H9    H     H_    0.061608 0.396403 0.251525 0.159317
H10   H     H_    0.179464 0.184290 0.221641 0.154451
C27   C     C_3   0.441833 0.782972 0.709093 -0.144102
C28   C     C_3   0.267145 0.826269 0.754271 -0.134138
H11   H     H_    0.210959 0.903646 0.762221 0.117254
H12   H     H_    0.495223 0.814893 0.666820 0.120476
C29   C     C_3   0.361162 0.800026 0.816249 -0.014493
C30   C     C_3   0.537901 0.757048 0.772036 -0.108951
C31   C     C_3   0.441780 0.651643 0.753428 -0.142615
C32   C     C_3   0.265009 0.695396 0.798710 -0.150395
C33   C     C_3   0.170121 0.721220 0.735525 -0.103653
C34   C     C_3   0.347434 0.678824 0.691162 -0.002305
H13   H     H_    0.688712 0.769918 0.788837 0.112074
H14   H     H_    0.514249 0.579012 0.752449 0.095892
H15   H     H_    0.192215 0.659928 0.836267 0.101185
H16   H     H_    0.018958 0.704865 0.719883 0.109235
C35   C     C_R   0.407944 0.887617 0.392306 -0.116294
H17   H     H_    0.408846 0.837297 0.485611 0.150147
H18   H     H_    0.429872 0.012500 0.310508 0.129966
H19   H     H_    0.434232 0.965480 0.419301 0.156950
C36   C     C_R   0.358096 0.714609 0.396670 -0.059194
C37   C     C_R   0.321612 0.683823 0.066140 -0.175475
C38   C     C_R   0.301557 0.608219 0.101005 -0.130316
C39   C     C_R   0.313937 0.630876 0.172567 -0.151381
C40   C     C_R   0.345816 0.731182 0.211514 0.077287
C41   C     C_R   0.365549 0.808470 0.175334 0.073748
C42   C     C_R   0.358383 0.757456 0.285004 0.069446
C43   C     C_R   0.390928 0.859938 0.320316 0.124886
C44   C     C_R   0.407075 0.934203 0.283722 -0.205151
C45   C     C_R   0.394575 0.909109 0.212454 -0.201104
C46   C     C_R   0.340697 0.685733 0.324967 -0.210014
C47   C     C_R   0.393037 0.815150 0.430171 -0.139882
C48   C     C_R   0.354046 0.783607 0.102501 -0.067414
H20   H     H_    0.315484 0.606744 0.302233 0.125217
H21   H     H_    0.310708 0.664577 0.010485 0.098153
H22   H     H_    0.297252 0.568029 0.195618 0.125853
H23   H     H_    0.275801 0.531179 0.072325 0.125756
H24   H     H_    0.408084 0.969650 0.186617 0.115968
O11   O     O_R   0.203580 0.914920 0.912610 -0.541685
O12   O     O_R   0.535710 0.887810 0.047120 -0.542173
O13   O     O_R   0.710730 0.084950 0.087430 -0.538853
C49   C     C_R   0.366364 0.861209 0.063500 0.680932
O14   O     O_R   0.533010 0.902850 0.910600 -0.543636
O15   O     O_R   0.708010 0.100090 0.949930 -0.536664
C50   C     C_R   0.365229 0.876189 0.884988 0.672689
O16   O     O_R   0.206300 0.899780 0.050100 -0.539567
O17   O     O_3   0.375170 0.064580 0.013100 -0.368292
V3    V     V_3+5 0.648200 0.988020 0.997570 1.420927
O18   O     O_R   0.038030 0.112330 0.952840 -0.542022
C51   C     C_R   0.869515 0.137885 0.935345 0.678400
O19   O     O_R   0.040730 0.097300 0.089360 -0.543358
C52   C     C_R   0.871239 0.118233 0.116889 0.699884
V4    V     V_3+5 0.148780 0.012220 0.002360 1.420788
O20   O     O_3   0.871930 0.935430 0.986900 -0.373098
Br1   Br    Br    0.430705 0.346495 0.284094 -0.657847
C53   C     C_3   0.964877 0.962476 0.675415 -0.311328
C54   C     C_3   0.834676 0.897006 0.707121 -0.813896
H25   H     H_    0.891300 0.885621 0.755953 0.216066
H26   H     H_    0.693338 0.934867 0.718191 0.247028
H27   H     H_    0.821001 0.821732 0.670543 0.224585
H28   H     H_    0.904768 0.956311 0.623338 0.222818
H29   H     H_    0.111832 0.931484 0.667845 0.211857
Br2   Br    Br    0.215780 0.038640 0.569303 -0.666151
C55   C     C_3   0.793696 0.343930 0.012359 -0.369279
C56   C     C_3   0.766613 0.456136 0.047519 -0.761575
H30   H     H_    0.886760 0.501304 0.033998 0.228063
H31   H     H_    0.627996 0.483712 0.032406 0.228235
H32   H     H_    0.764813 0.467390 0.104274 0.222805
H33   H     H_    0.671179 0.301407 0.027118 0.184369
H34   H     H_    0.926225 0.318594 0.033587 0.170773

loop_
_geom_bond_atom_site_label_1
_geom_bond_atom_site_label_2
_ccdc_geom_bond_type
C31   C32   S    
C22   C23   S    
O17   V3    S    
C32   H15   S    
C42   C43   A    
O18   C51   A    
C36   C46   A    
C41   C45   A    
C45   H24   S    
O19   C52   A    
O11   C50   A    
C33   H16   S    
C29   C30   S    
C13   C14   A    
C38   H23   S    
C37   H21   S    
C8    C9    A    
C19   C20   S    
C41   C48   A    
C26   C52   S    
O5    C3    A    
O12   C49   A    
C29   C32   S    
C18   C51   S    
O13   V3    S    
C32   C33   S    
C23   H8    S    
O14   V3    S    
C55   C56   S    
O12   V3    S    
O8    V2    S    
C21   C24   S    
C49   O16   A    
C15   H5    S    
C37   C38   A    
C29   C50   S    
C10   C11   A    
C53   H29   S    
C39   C40   A    
O1    V2    S    
O14   C50   A    
O7    V1    S    
O17   V4    S    
C1    O6    A    
O13   C52   A    
C37   C48   A    
C35   H19   S    
C27   C30   S    
C31   H14   S    
C5    C17   A    
C19   C22   S    
C38   C39   A    
C36   C47   A    
C48   C49   S    
O19   V4    S    
O15   V3    S    
C30   H13   S    
C12   C16   A    
C28   C29   S    
C43   C44   A    
C19   C26   S    
C56   H31   S    
C40   C42   A    
C8    H4    S    
C56   H32   S    
C12   C13   A    
C27   C34   S    
C23   C26   S    
C3    C21   S    
O2    C1    A    
C44   C45   A    
C20   H6    S    
O11   V4    S    
V4    O20   S    
V3    O20   S    
C27   H12   S    
C28   H11   S    
C53   H28   S    
C54   H26   S    
O3    C4    A    
H1    C17   S    
C21   C22   S    
O6    V2    S    
O9    V2    S    
C24   C25   S    
C7    C55   S    
C23   C24   S    
C5    C13   A    
C20   C21   S    
O2    V1    S    
C55   H34   S    
C14   C15   A    
C25   C26   S    
O4    C2    A    
C46   H20   S    
C9    H3    S    
C30   C31   S    
C56   H30   S    
O1    C2    A    
C28   C33   S    
H17   C47   S    
C4    C6    S    
C19   H7    S    
C11   C15   A    
C5    Br2   S    
O5    V1    S    
O8    C3    A    
O15   C51   A    
C35   C43   A    
C16   H2    S    
C14   C53   S    
H18   C44   S    
C20   C25   S    
O7    V2    S    
C11   C18   A    
O4    V1    S    
O3    V1    S    
V1    O10   S    
C33   C34   S    
C22   Br1   S    
C54   H27   S    
O18   V4    S    
C10   C12   A    
C53   C54   S    
C39   H22   S    
C2    C36   S    
C25   H10   S    
C40   C41   A    
C7    C8    A    
C27   C28   S    
C31   C34   S    
C1    C34   S    
C54   H25   S    
C42   C46   A    
C9    C10   A    
O9    C4    A    
C6    C17   A    
C24   H9    S    
C55   H33   S    
C35   C47   A    
V2    O10   S    
O16   V4    S    
C7    C18   A    
C6    C16   A    
