data_mof_unit_36141.cif
_audit_creation_date              2012-12-10T17:31:18-0500
_audit_creation_method            fapswitch 2.2
_symmetry_space_group_name_H-M    P1
_symmetry_Int_Tables_number       1
_space_group_crystal_system       triclinic
_cell_length_a                    19.501909
_cell_length_b                    18.641382
_cell_length_c                    12.4413
_cell_angle_alpha                 90.400526
_cell_angle_beta                  129.412561
_cell_angle_gamma                 89.141107
_cell_volume                      3493.9881708

loop_
_atom_site_label
_atom_site_type_symbol
_atom_type_description
_atom_site_fract_x
_atom_site_fract_y
_atom_site_fract_z
_atom_type_partial_charge
C1    C     C_R   0.607660 0.895578 0.647290 0.925061
C2    C     C_R   0.609779 0.103052 0.650520 0.935842
C3    C     C_R   0.107660 0.395578 0.647290 0.925060
C4    C     C_R   0.109779 0.603052 0.650520 0.935842
C5    C     C_R   0.233426 0.785537 0.023204 0.046673
C6    C     C_R   0.243412 0.228134 0.042084 0.048797
C7    C     C_R   0.733426 0.285537 0.023204 0.046673
C8    C     C_R   0.743412 0.728134 0.042084 0.048797
C9    C     C_R   0.667997 0.267396 0.034964 -0.162941
C10   C     C_R   0.687028 0.759154 0.065645 -0.144835
C11   C     C_R   0.167997 0.767397 0.034964 -0.162941
C12   C     C_R   0.187028 0.259154 0.065645 -0.144835
C13   C     C_R   0.601715 0.219273 0.939947 0.426328
C14   C     C_R   0.607487 0.792830 0.952168 0.340228
C15   C     C_R   0.101715 0.719273 0.939947 0.426328
C16   C     C_R   0.107487 0.292830 0.952168 0.340230
C17   C     C_R   0.590961 0.199570 0.823063 0.386509
C18   C     C_R   0.592440 0.801881 0.827224 0.394685
C19   C     C_R   0.090961 0.699570 0.823063 0.386509
C20   C     C_R   0.092440 0.301881 0.827224 0.394685
C21   C     C_R   0.307905 0.823320 0.133931 -0.121591
C22   C     C_R   0.298782 0.170850 0.127307 -0.136974
C23   C     C_R   0.807905 0.323320 0.133931 -0.121591
C24   C     C_R   0.798782 0.670850 0.127307 -0.136974
C25   C     C_R   0.242254 0.838017 0.245982 0.352639
C26   C     C_R   0.267359 0.192753 0.284178 0.387972
C27   C     C_R   0.742254 0.338017 0.245982 0.352639
C28   C     C_R   0.767359 0.692754 0.284178 0.387972
C29   C     C_R   0.663237 0.169097 0.722680 -0.264853
C30   C     C_R   0.662216 0.830094 0.721833 -0.273683
C31   C     C_R   0.163237 0.669097 0.722680 -0.264853
C32   C     C_R   0.162216 0.330094 0.721833 -0.273684
C33   C     C_R   0.681564 0.995228 0.289154 0.617478
C34   C     C_R   0.181564 0.495228 0.289154 0.617477
C35   C     C_R   0.346257 0.009870 0.627940 0.747445
C36   C     C_R   0.846258 0.509870 0.627940 0.747445
C37   C     C_R   0.314657 0.024551 0.699039 0.472459
C38   C     C_R   0.814657 0.524551 0.699039 0.472459
C39   C     C_R   0.383850 0.098744 0.342196 0.860336
C40   C     C_R   0.384904 0.901261 0.342430 0.851391
C41   C     C_R   0.883850 0.598744 0.342196 0.860336
C42   C     C_R   0.884904 0.401261 0.342430 0.851391
C43   C     C_R   0.372499 0.026253 0.843688 0.649304
C44   C     C_R   0.872499 0.526253 0.843688 0.649302
C45   C     C_R   0.463253 0.006642 0.921635 -0.136674
C46   C     C_R   0.963253 0.506642 0.921635 -0.136673
C47   C     C_R   0.494558 0.998668 0.843883 -0.088332
C48   C     C_R   0.994558 0.498668 0.843883 -0.088332
C49   C     C_R   0.525758 0.001433 0.072955 -0.121803
C50   C     C_R   0.025758 0.501434 0.072955 -0.121804
C51   C     C_R   0.618204 0.995577 0.142754 -0.395823
C52   C     C_R   0.118204 0.495577 0.142754 -0.395822
C53   C     C_R   0.647227 0.991199 0.066541 0.678151
C54   C     C_R   0.147227 0.491199 0.066541 0.678151
C55   C     C_R   0.588528 0.993816 0.923380 0.583861
C56   C     C_R   0.088528 0.493816 0.923380 0.583861
C57   C     C_R   0.502459 0.999997 0.160721 0.816299
C58   C     C_R   0.002459 0.499997 0.160721 0.816299
C59   C     C_R   0.653746 0.998623 0.366791 0.711221
C60   C     C_R   0.153746 0.498623 0.366791 0.711221
C61   C     C_R   0.668784 0.299555 0.138613 0.404472
C62   C     C_R   0.706664 0.747081 0.194986 0.406455
C63   C     C_R   0.168784 0.799555 0.138613 0.404472
C64   C     C_R   0.206663 0.247081 0.194986 0.406454
C65   C     C_R   0.312302 0.851483 0.243212 -0.214802
C66   C     C_R   0.315113 0.154488 0.250952 -0.229151
C67   C     C_R   0.812302 0.351482 0.243212 -0.214802
C68   C     C_R   0.815113 0.654488 0.250952 -0.229151
C69   C     C_R   0.718133 0.194535 0.694862 0.560253
C70   C     C_R   0.720172 0.805315 0.699230 0.567399
C71   C     C_R   0.218133 0.694534 0.694862 0.560254
C72   C     C_R   0.220172 0.305314 0.699230 0.567399
C73   C     C_R   0.264943 0.757668 0.755401 0.348465
C74   C     C_R   0.289220 0.258741 0.793267 0.354878
C75   C     C_R   0.764943 0.257668 0.755401 0.348466
C76   C     C_R   0.789219 0.758741 0.793267 0.354877
C77   C     C_R   0.269963 0.790791 0.861819 0.272228
C78   C     C_R   0.304526 0.238226 0.915104 0.311454
C79   C     C_R   0.769963 0.290791 0.861819 0.272227
C80   C     C_R   0.804526 0.738226 0.915104 0.311453
C81   C     C_R   0.724861 0.260656 0.905932 -0.055670
C82   C     C_R   0.738162 0.752595 0.928567 -0.057236
C83   C     C_R   0.224861 0.760656 0.905932 -0.055671
C84   C     C_R   0.238162 0.252595 0.928567 -0.057236
C85   C     C_R   0.660030 0.208228 0.818084 -0.175682
C86   C     C_R   0.663692 0.795670 0.825083 -0.165692
C87   C     C_R   0.160030 0.708228 0.818084 -0.175682
C88   C     C_R   0.163692 0.295670 0.825083 -0.165692
Cu1   Cu    Cu3+1 0.526340 1.000000 0.421010 1.181201
Cu2   Cu    Cu3+1 0.026340 0.500000 0.421010 1.181201
Cu3   Cu    Cu3+1 0.473640 1.000000 0.578990 1.170299
Cu4   Cu    Cu3+1 0.973640 0.500000 0.578990 1.170299
H1    H     H_    0.365070 0.828729 0.139467 0.237355
H2    H     H_    0.324957 0.134729 0.092941 0.266885
H3    H     H_    0.865070 0.328729 0.139467 0.237355
H4    H     H_    0.824957 0.634729 0.092941 0.266885
N1    N     N_R   0.566260 0.000000 0.302220 -0.370091
N2    N     N_R   0.066260 0.500000 0.302220 -0.370091
N3    N     N_R   0.434410 0.000000 0.697680 -0.264622
N4    N     N_R   0.934410 0.500000 0.697680 -0.264622
O1    O     O_R   0.608610 0.924520 0.551740 -0.495760
O2    O     O_R   0.608610 0.075480 0.551740 -0.496267
O3    O     O_R   0.108610 0.424520 0.551740 -0.495760
O4    O     O_R   0.108610 0.575480 0.551740 -0.496267
O5    O     O_R   0.564110 0.924510 0.685150 -0.522079
O6    O     O_R   0.564110 0.075490 0.685150 -0.515742
O7    O     O_R   0.064110 0.424510 0.685150 -0.522079
O8    O     O_R   0.064110 0.575490 0.685150 -0.515742
O9    O     O_R   0.435880 0.075470 0.314850 -0.552758
O10   O     O_R   0.435880 0.924530 0.314850 -0.554003
O11   O     O_R   0.935880 0.575470 0.314850 -0.552758
O12   O     O_R   0.935880 0.424530 0.314850 -0.554003
O13   O     O_R   0.391380 0.075460 0.448260 -0.495763
O14   O     O_R   0.391380 0.924540 0.448260 -0.494312
O15   O     O_R   0.891380 0.575460 0.448260 -0.495763
O16   O     O_R   0.891380 0.424540 0.448260 -0.494312
Cl1   Cl    Cl    0.242109 0.867260 0.381324 -0.298080
Cl2   Cl    Cl    0.273227 0.170339 0.427594 -0.294313
Cl3   Cl    Cl    0.742109 0.367260 0.381324 -0.298080
Cl4   Cl    Cl    0.773227 0.670339 0.427594 -0.294313
F1    F     F_    0.735401 0.986230 0.131073 -0.520496
F2    F     F_    0.235401 0.486230 0.131073 -0.520496
F3    F     F_    0.770246 0.991548 0.357924 -0.481466
F4    F     F_    0.270246 0.491548 0.357924 -0.481466
F5    F     F_    0.417955 0.992662 0.109826 -0.547229
F6    F     F_    0.917955 0.492662 0.109826 -0.547228
F7    F     F_    0.288894 0.012116 0.487337 -0.530462
F8    F     F_    0.788894 0.512116 0.487337 -0.530462
F9    F     F_    0.339552 0.055790 0.902374 -0.535726
F10   F     F_    0.839552 0.555790 0.902374 -0.535725
F11   F     F_    0.227674 0.041896 0.626745 -0.503811
F12   F     F_    0.727674 0.541896 0.626745 -0.503811
F13   F     F_    0.631647 0.998405 0.873193 -0.612727
F14   F     F_    0.131647 0.498405 0.873193 -0.612727
Cl5   Cl    Cl    0.550795 0.164552 0.984671 -0.496701
Cl6   Cl    Cl    0.518049 0.810941 0.951374 -0.454873
Cl7   Cl    Cl    0.050795 0.664552 0.984671 -0.496701
Cl8   Cl    Cl    0.018049 0.310942 0.951374 -0.454874
Cl9   Cl    Cl    0.571015 0.307224 0.119783 -0.307137
Cl10  Cl    Cl    0.666694 0.805064 0.258609 -0.388933
Cl11  Cl    Cl    0.071015 0.807224 0.119783 -0.307137
Cl12  Cl    Cl    0.166693 0.305063 0.258608 -0.388932
F15   F     F_    0.721457 0.161708 0.600345 -0.534237
F16   F     F_    0.713078 0.828917 0.589325 -0.520735
F17   F     F_    0.221457 0.661708 0.600345 -0.534237
F18   F     F_    0.213079 0.328917 0.589324 -0.520735
Cl13  Cl    Cl    0.312052 0.878467 0.907737 -0.436346
Cl14  Cl    Cl    0.412903 0.206966 0.053591 -0.387884
Cl15  Cl    Cl    0.812052 0.378467 0.907737 -0.436346
Cl16  Cl    Cl    0.912903 0.706966 0.053591 -0.387884
Cl17  Cl    Cl    0.310267 0.797493 0.685660 -0.289870
Cl18  Cl    Cl    0.359735 0.231770 0.758990 -0.286767
Cl19  Cl    Cl    0.810267 0.297493 0.685660 -0.289871
Cl20  Cl    Cl    0.859735 0.731770 0.758990 -0.286767
Cl21  Cl    Cl    0.481018 0.199939 0.666910 -0.441800
Cl22  Cl    Cl    0.481718 0.800192 0.669007 -0.429473
Cl23  Cl    Cl    0.981018 0.699939 0.666910 -0.441800
Cl24  Cl    Cl    0.981718 0.300192 0.669007 -0.429473
F19   F     F_    0.714186 0.998268 0.507631 -0.507817
F20   F     F_    0.214186 0.498268 0.507631 -0.507817

loop_
_geom_bond_atom_site_label_1
_geom_bond_atom_site_label_2
_ccdc_geom_bond_type
C83   C87   A    
Cu1   O2    S    
C22   H2    S    
C14   C18   A    
C58   N2    A    
Cu2   O12   S    
C47   N3    A    
C32   C72   A    
C10   C62   A    
C80   Cl16  S    
C56   F14   S    
C4    O8    A    
C18   C86   A    
C14   Cl6   S    
C2    C29   S    
C17   C85   A    
C28   C68   A    
C5    C11   A    
C19   C87   A    
C24   H4    S    
C6    C12   A    
C12   C64   A    
C72   F18   S    
C1    O5    A    
C2    O2    A    
C44   F10   S    
C6    C22   A    
Cu1   O9    S    
C49   C57   A    
C48   C56   A    
C25   C63   A    
C23   C67   A    
C62   Cl10  S    
C9    C13   A    
C22   C66   A    
C26   C64   A    
C27   C61   A    
C11   C15   A    
Cu4   O8    S    
C40   O14   A    
C12   C16   A    
C44   C46   A    
C49   C51   A    
C50   C52   A    
C30   C86   A    
C77   Cl13  S    
C29   C85   A    
C78   Cl14  S    
C79   Cl15  S    
C21   C65   A    
C82   C86   A    
C45   C47   A    
C54   F2    S    
C33   C59   A    
C20   Cl24  S    
C73   Cl17  S    
C34   C60   A    
C13   Cl5   S    
Cu3   O6    S    
C74   Cl18  S    
C36   F8    S    
C59   F19   S    
Cu2   O11   S    
C41   O15   A    
C35   N3    A    
C30   C70   A    
C52   C54   A    
C41   C68   S    
C29   C69   A    
C53   C55   A    
C48   N4    A    
C54   C56   A    
C31   C87   A    
C28   C62   A    
C19   Cl23  S    
C76   C80   A    
C43   F9    S    
C6    C84   A    
C72   C74   A    
C10   C14   A    
C79   C81   A    
C61   Cl9   S    
C42   O12   A    
C41   O11   A    
C39   O13   A    
C55   F13   S    
Cu1   O10   S    
C2    O6    A    
C33   C51   A    
Cu3   O13   S    
Cu1   N1    S    
C51   C53   A    
C26   C66   A    
C37   C43   A    
C15   C19   A    
C38   C44   A    
C78   C84   A    
C43   C45   A    
C75   Cl19  S    
Cu4   O7    S    
Cu2   Cu4   S    
Cu3   O5    S    
C45   C49   A    
C16   C20   A    
C57   N1    A    
C63   Cl11  S    
C50   C58   A    
C25   C65   A    
C36   N4    A    
C35   F7    S    
Cu4   O16   S    
Cu2   O4    S    
C80   C82   A    
C20   C88   A    
C42   O16   A    
C7    C81   A    
C58   F6    S    
C64   Cl12  S    
C40   C65   S    
C28   Cl4   S    
C42   C67   S    
C59   N1    A    
C39   C66   S    
C9    C61   A    
Cu1   Cu3   S    
C70   C76   A    
C17   Cl21  S    
C1    O1    A    
C8    C82   A    
C18   Cl22  S    
Cu4   N4    S    
C47   C55   A    
C3    O3    A    
C7    C9    A    
C34   F4    S    
Cu1   O1    S    
C70   F16   S    
C16   Cl8   S    
C60   F20   S    
C25   Cl1   S    
C71   F17   S    
C40   O10   A    
C5    C83   A    
C27   Cl3   S    
C69   F15   S    
C26   Cl2   S    
C46   C50   A    
C34   C52   A    
Cu3   O14   S    
C13   C17   A    
C3    O7    A    
C36   C38   A    
C35   C37   A    
C53   F1    S    
C57   F5    S    
C84   C88   A    
C21   H1    S    
C7    C23   A    
C4    O4    A    
C31   C71   A    
C1    C30   S    
C8    C24   A    
C76   Cl20  S    
C23   H3    S    
C69   C75   A    
C3    C32   S    
Cu4   O15   S    
Cu2   O3    S    
C4    C31   S    
C27   C67   A    
C24   C68   A    
C46   C48   A    
C37   F11   S    
C39   O9    A    
C5    C21   A    
C73   C77   A    
C8    C10   A    
C74   C78   A    
C60   N2    A    
C71   C73   A    
C33   F3    S    
C77   C83   A    
Cu3   N3    S    
C11   C63   A    
C75   C79   A    
Cu2   N2    S    
C81   C85   A    
C38   F12   S    
C15   Cl7   S    
C32   C88   A    
