data_mof_unit_21467.cif
_audit_creation_date              2012-12-11T14:49:46-0500
_audit_creation_method            fapswitch 2.2
_symmetry_space_group_name_H-M    P1
_symmetry_Int_Tables_number       1
_space_group_crystal_system       triclinic
_cell_length_a                    16.900108
_cell_length_b                    7.007018
_cell_length_c                    16.847334
_cell_angle_alpha                 90.000344
_cell_angle_beta                  100.844908
_cell_angle_gamma                 89.99906
_cell_volume                      1959.41908497

loop_
_atom_site_label
_atom_site_type_symbol
_atom_type_description
_atom_site_fract_x
_atom_site_fract_y
_atom_site_fract_z
_atom_type_partial_charge
O1    O     O_R   0.579510 0.506290 0.439030 -0.521905
O2    O     O_R   0.420490 0.006290 0.560970 -0.521910
O3    O     O_R   0.412540 0.170090 0.405290 -0.550589
O4    O     O_R   0.587460 0.670090 0.594710 -0.550594
C1    C     C_R   0.384359 0.345979 0.382773 0.722955
C2    C     C_R   0.615644 0.845978 0.617224 0.722973
O5    O     O_R   0.578390 0.176230 0.429330 -0.522494
O6    O     O_R   0.421610 0.676230 0.570670 -0.522499
O7    O     O_R   0.587530 0.011250 0.585190 -0.538815
O8    O     O_R   0.412470 0.511250 0.414810 -0.538825
C3    C     C_R   0.605340 0.343786 0.413962 0.773006
C4    C     C_R   0.394660 0.843789 0.586038 0.773032
O9    O     O_3   0.502800 0.340940 0.551110 -0.366172
O10   O     O_3   0.497200 0.840940 0.448890 -0.366167
V1    V     V_3+5 0.499480 0.064020 0.490520 1.473022
V2    V     V_3+5 0.500520 0.564020 0.509480 1.473007
C5    C     C_R   0.167562 0.925451 0.862085 -0.066918
C6    C     C_R   0.832441 0.425462 0.137919 -0.066945
C7    C     C_R   0.331825 0.842419 0.638097 -0.084795
C8    C     C_R   0.668174 0.342407 0.361900 -0.084791
C9    C     C_R   0.224874 0.669609 0.687956 -0.241473
C10   C     C_R   0.775103 0.169555 0.312016 -0.241501
C11   C     C_R   0.276569 0.687679 0.632114 0.152305
C12   C     C_R   0.723413 0.187629 0.367864 0.152304
C13   C     C_R   0.330796 0.983028 0.698208 0.083015
C14   C     C_R   0.669218 0.483049 0.301806 0.082997
C15   C     C_R   0.276707 0.965122 0.753309 0.094444
C16   C     C_R   0.723302 0.465137 0.246701 0.094450
C17   C     C_R   0.224675 0.805130 0.748687 0.095692
C18   C     C_R   0.775315 0.305109 0.251302 0.095704
C19   C     C_R   0.171511 0.784519 0.803748 -0.214011
C20   C     C_R   0.828475 0.284496 0.196236 -0.214008
C21   C     C_R   0.219141 0.084200 0.865882 -0.150255
C22   C     C_R   0.780882 0.584248 0.134145 -0.150236
C23   C     C_R   0.273315 0.103014 0.813244 -0.178883
C24   C     C_R   0.726710 0.603063 0.186785 -0.178903
H1    H     H_    0.130998 0.663332 0.799007 0.119052
H2    H     H_    0.868973 0.163280 0.200961 0.119075
H3    H     H_    0.216981 0.196891 0.909338 0.118418
H4    H     H_    0.783056 0.696970 0.090707 0.118444
H5    H     H_    0.183941 0.549276 0.683499 0.122949
H6    H     H_    0.816022 0.049195 0.316458 0.122953
H7    H     H_    0.311267 0.228478 0.819316 0.122297
H8    H     H_    0.688774 0.728555 0.180730 0.122306
C25   C     C_3   0.733402 0.829140 0.841855 0.034179
C26   C     C_3   0.266580 0.328928 0.158152 0.034151
H9    H     H_    0.713868 0.944929 0.879254 0.115862
H10   H     H_    0.286129 0.444580 0.120697 0.115832
C27   C     C_3   0.663633 0.789693 0.768175 0.077931
C28   C     C_3   0.336355 0.289551 0.231835 0.077947
H11   H     H_    0.654759 0.632457 0.761081 0.149469
H12   H     H_    0.345220 0.132322 0.238970 0.149477
H13   H     H_    0.743098 0.595144 0.664913 0.158855
H14   H     H_    0.256853 0.095248 0.335114 0.158850
C29   C     C_3   0.833224 0.773413 0.743621 0.248005
C30   C     C_3   0.166751 0.273605 0.256416 0.247944
C31   C     C_3   0.787463 0.100620 0.771966 -0.462044
C32   C     C_3   0.212601 0.600650 0.227968 -0.462095
C33   C     C_3   0.811366 0.904545 0.812333 0.038583
C34   C     C_3   0.188639 0.404544 0.187661 0.038606
H15   H     H_    0.839401 0.163718 0.749232 0.168346
H16   H     H_    0.160680 0.663925 0.250672 0.168473
H17   H     H_    0.771250 0.202704 0.816929 0.171998
H18   H     H_    0.228857 0.702580 0.182973 0.171887
C35   C     C_3   0.686386 0.865449 0.688469 0.034395
C36   C     C_3   0.313619 0.365450 0.311526 0.034392
C37   C     C_3   0.759773 0.748640 0.672881 -0.443106
C38   C     C_3   0.240212 0.248764 0.327141 -0.443100
C39   C     C_3   0.715146 0.078471 0.700937 -0.331595
C40   C     C_3   0.284901 0.578493 0.299015 -0.331548
H19   H     H_    0.665151 0.171721 0.712069 0.167254
H20   H     H_    0.334917 0.671662 0.287878 0.167266
H21   H     H_    0.733265 0.132117 0.644770 0.143459
H22   H     H_    0.266777 0.632229 0.355166 0.143476
H23   H     H_    0.882589 0.845580 0.719334 0.055569
H24   H     H_    0.117428 0.345954 0.280704 0.055615
H25   H     H_    0.776918 0.796344 0.615399 0.116904
H26   H     H_    0.223093 0.296532 0.384628 0.116905
O11   O     O_R   0.087500 0.266000 0.085220 -0.512864
O12   O     O_R   0.912500 0.766000 0.914780 -0.512852
O13   O     O_R   0.921600 0.589950 0.070670 -0.547500
O14   O     O_R   0.078400 0.089950 0.929330 -0.547506
C41   C     C_R   0.894892 0.422937 0.086223 0.689145
C42   C     C_R   0.105109 0.922934 0.913777 0.689076
O15   O     O_R   0.087460 0.596020 0.094710 -0.544132
O16   O     O_R   0.912540 0.096020 0.905290 -0.544121
O17   O     O_R   0.079520 0.760970 0.939020 -0.536134
O18   O     O_R   0.920480 0.260970 0.060980 -0.536123
C43   C     C_R   0.116682 0.425605 0.117513 0.680343
C44   C     C_R   0.883322 0.925605 0.882483 0.680286
O19   O     O_3   0.997180 0.425140 0.948910 -0.360111
O20   O     O_3   0.002820 0.925140 0.051090 -0.360109
V3    V     V_3+5 0.000520 0.702080 0.009480 1.433928
V4    V     V_3+5 0.999480 0.202080 0.990520 1.433931
O21   O     O_3   0.861397 0.593744 0.773412 -0.647030
H27   H     H_    0.888147 0.534513 0.731847 0.271137
O22   O     O_3   0.138493 0.093963 0.226675 -0.647049
H28   H     H_    0.111746 0.034876 0.268273 0.271135
N1    N     N_3   0.272864 0.548712 0.568596 -0.651519
H29   H     H_    0.249850 0.617169 0.513985 0.196529
H30   H     H_    0.232625 0.438954 0.575044 0.217342
N2    N     N_3   0.727109 0.048630 0.431368 -0.651514
H31   H     H_    0.750137 0.117046 0.485985 0.196533
H32   H     H_    0.767331 0.938844 0.424904 0.217337
N3    N     N_3   0.386751 0.138912 0.704286 -0.640393
H33   H     H_    0.354433 0.266896 0.696494 0.245077
H34   H     H_    0.423225 0.137121 0.761754 0.227714
N4    N     N_3   0.613285 0.638979 0.295752 -0.640378
H35   H     H_    0.645619 0.766937 0.303557 0.245094
H36   H     H_    0.576807 0.637250 0.238285 0.227706
N5    N     N_3   0.746072 0.659408 0.893773 -0.689458
H37   H     H_    0.774760 0.551123 0.867630 0.283325
H38   H     H_    0.780835 0.694940 0.949771 0.225061
N6    N     N_3   0.253865 0.159077 0.106306 -0.689486
H39   H     H_    0.225126 0.050955 0.132488 0.283372
H40   H     H_    0.219132 0.194535 0.050284 0.225082
N7    N     N_3   0.586892 0.870446 0.781193 -0.693898
H41   H     H_    0.593711 0.015423 0.795393 0.226455
H42   H     H_    0.570768 0.802436 0.831085 0.242088
N8    N     N_3   0.413098 0.370229 0.218785 -0.693903
H43   H     H_    0.406281 0.515180 0.204535 0.226458
H44   H     H_    0.429214 0.302107 0.168914 0.242071

loop_
_geom_bond_atom_site_label_1
_geom_bond_atom_site_label_2
_ccdc_geom_bond_type
C32   H16   S    
C36   C38   S    
C30   H24   S    
C29   C33   S    
C15   C17   A    
C11   N1    S    
O21   H27   S    
O1    C3    A    
C42   O17   A    
O2    C4    A    
C2    O7    A    
O22   H28   S    
C13   N3    S    
C10   H6    S    
C34   C43   S    
O5    C3    A    
N3    H34   S    
C21   H3    S    
C27   C35   S    
C22   H4    S    
N7    H42   S    
C31   C33   S    
H14   C38   S    
C32   C34   S    
O13   V3    S    
N4    H35   S    
C39   H19   S    
O16   V4    S    
O15   V3    S    
C2    C35   S    
C27   N7    S    
C8    C12   A    
C27   H11   S    
C37   H25   S    
C40   H22   S    
C28   H12   S    
C39   H21   S    
C20   H2    S    
C23   H7    S    
C12   N2    S    
C29   H23   S    
O5    V1    S    
C41   O18   A    
O6    V2    S    
C32   H18   S    
C5    C21   A    
C30   O22   S    
H13   C37   S    
O13   C41   A    
N8    H44   S    
N6    H39   S    
C26   H10   S    
C25   H9    S    
C38   H26   S    
O18   V4    S    
C3    C8    S    
C26   N6    S    
O11   V4    S    
C29   O21   S    
O16   C44   A    
C14   N4    S    
O15   C43   A    
C32   C40   S    
C15   C23   A    
C30   C38   S    
C9    C17   A    
C30   C34   S    
C33   C44   S    
O4    V2    S    
C7    C11   A    
O19   V3    S    
C6    C22   A    
C29   C37   S    
N1    H29   S    
C25   C27   S    
O6    C4    A    
O20   V4    S    
C6    C41   S    
N5    H38   S    
O1    V2    S    
N2    H32   S    
O2    V1    S    
C28   C36   S    
C9    H5    S    
O4    C2    A    
N1    H30   S    
O14   C42   A    
C9    C11   A    
C5    C19   A    
C10   C12   A    
C24   H8    S    
C6    C20   A    
O14   V4    S    
O3    V1    S    
N8    H43   S    
C25   C33   S    
C10   C18   A    
N5    H37   S    
C26   C34   S    
C31   H17   S    
C1    C36   S    
O3    C1    A    
N6    H40   S    
C25   N5    S    
C31   H15   S    
C13   C15   A    
N3    H33   S    
C26   C28   S    
C14   C16   A    
C28   N8    S    
C35   C37   S    
C5    C42   S    
C16   C18   A    
O7    V1    S    
C1    O8    A    
C17   C19   A    
O8    V2    S    
N7    H41   S    
O19   V4    S    
C18   C20   A    
C36   C40   S    
C8    C14   A    
C35   C39   S    
O17   V3    S    
C4    C7    S    
O20   V3    S    
C21   C23   A    
N4    H36   S    
C22   C24   A    
O12   C44   A    
N2    H31   S    
C7    C13   A    
O11   C43   A    
C19   H1    S    
C16   C24   A    
O9    V2    S    
O10   V1    S    
C40   H20   S    
C31   C39   S    
O12   V3    S    
