data_mof_unit_62143.cif
_audit_creation_date              2012-12-10T19:20:22-0500
_audit_creation_method            fapswitch 2.2
_symmetry_space_group_name_H-M    P1
_symmetry_Int_Tables_number       1
_space_group_crystal_system       triclinic
_cell_length_a                    14.983155
_cell_length_b                    15.772336
_cell_length_c                    16.684039
_cell_angle_alpha                 89.852375
_cell_angle_beta                  84.721401
_cell_angle_gamma                 89.266817
_cell_volume                      3925.7152844

loop_
_atom_site_label
_atom_site_type_symbol
_atom_type_description
_atom_site_fract_x
_atom_site_fract_y
_atom_site_fract_z
_atom_type_partial_charge
C1    C     C_R   0.499428 0.662062 0.499924 0.908199
C2    C     C_R   0.521147 0.466170 0.263436 -0.046216
C3    C     C_3   0.421686 0.952216 0.444866 0.618341
C4    C     C_R   0.487318 0.498869 0.653953 0.862239
C5    C     C_3   0.591783 0.949192 0.450890 -0.322646
C6    C     C_3   0.595764 0.047868 0.457381 0.207401
C7    C     C_1   0.502078 0.249342 0.498334 -0.100825
C8    C     C_3   0.500020 0.917248 0.492909 0.018462
C9    C     C_3   0.425032 0.051964 0.444427 -0.367399
C10   C     C_3   0.502840 0.082822 0.493722 0.032497
C11   C     C_3   0.484530 0.048832 0.580878 -0.363301
C12   C     C_R   0.399094 0.453298 0.779160 -0.158944
C13   C     C_3   0.486924 0.951319 0.580736 -0.399029
C14   C     C_1   0.502892 0.174269 0.496344 0.013054
C15   C     C_1   0.498763 0.825713 0.495476 0.054825
C16   C     C_R   0.500603 0.337934 0.500032 0.895554
C17   C     C_1   0.498568 0.750647 0.497792 -0.082236
C18   C     C_3   0.944664 0.596592 0.510437 0.083601
C19   C     C_3   0.957065 0.463338 0.423635 0.252942
C20   C     C_3   0.061126 0.466685 0.423507 -0.433161
C21   C     C_3   0.909421 0.501881 0.503591 -0.131302
C22   C     C_3   0.050709 0.594292 0.513998 0.153178
C23   C     C_R   0.460487 0.383493 0.160032 -0.132089
C24   C     C_3   0.089698 0.501835 0.504239 -0.068492
C25   C     C_3   0.046097 0.447759 0.576030 -0.231420
C26   C     C_3   0.940994 0.444716 0.574136 -0.292883
C27   C     C_1   0.190629 0.501663 0.502535 0.175657
C28   C     C_R   0.512706 0.495542 0.346359 0.869436
C29   C     C_1   0.809033 0.499674 0.500152 0.300306
C30   C     C_R   0.479432 0.483687 0.740313 -0.052240
C31   C     C_R   0.555528 0.490107 0.782554 -0.168972
C32   C     C_R   0.552560 0.463406 0.861832 -0.130280
C33   C     C_R   0.473423 0.429169 0.899741 0.183883
C34   C     C_R   0.451560 0.418310 0.236434 -0.175622
C35   C     C_R   0.396163 0.426396 0.858740 -0.142846
C36   C     C_2   0.426057 0.092407 0.361286 1.000327
C37   C     C_2   0.673863 0.902455 0.477251 1.056408
C38   C     C_2   0.889681 0.460206 0.655754 0.972875
C39   C     C_2   0.895579 0.649519 0.577948 1.072456
C40   C     C_2   0.086848 0.359290 0.580094 0.926457
C41   C     C_R   0.601552 0.475478 0.214470 -0.154623
C42   C     C_R   0.609847 0.441771 0.137074 -0.133545
C43   C     C_R   0.538103 0.398293 0.108762 0.179485
C44   C     C_2   0.467059 0.405521 0.984786 -0.205801
C45   C     C_2   0.539214 0.383418 0.022357 -0.211897
Cl1   Cl    Cl    0.427190 0.905997 0.345440 -0.495905
Cl2   Cl    Cl    0.685890 0.086247 0.511772 -0.488536
Cl3   Cl    Cl    0.314395 0.919393 0.491692 -0.493291
Cl4   Cl    Cl    0.921113 0.655632 0.421652 -0.565549
Cl5   Cl    Cl    0.921735 0.357519 0.403684 -0.509902
Cl6   Cl    Cl    0.089278 0.644414 0.601604 -0.499382
H1    H     H_    0.617753 0.514677 0.753970 0.180320
H2    H     H_    0.534648 0.072866 0.620218 0.245652
H3    H     H_    0.082433 0.632230 0.463004 0.202231
H4    H     H_    0.937457 0.499798 0.370913 0.180882
H5    H     H_    0.088120 0.508350 0.373282 0.172198
H6    H     H_    0.092188 0.403384 0.410457 0.263688
H7    H     H_    0.656917 0.510023 0.235450 0.174165
H8    H     H_    0.923149 0.378413 0.560860 0.229905
H9    H     H_    0.062735 0.479903 0.631734 0.224046
H10   H     H_    0.603593 0.371947 0.988452 0.162023
H11   H     H_    0.333952 0.402533 0.888077 0.154684
H12   H     H_    0.670165 0.453597 0.097879 0.148243
H13   H     H_    0.405400 0.347883 0.139921 0.153013
H14   H     H_    0.339531 0.447738 0.747442 0.186502
H15   H     H_    0.402838 0.417503 0.018892 0.162075
H16   H     H_    0.611861 0.471271 0.893321 0.140861
H17   H     H_    0.489663 0.108970 0.250501 0.363325
H18   H     H_    0.748687 0.868334 0.566892 0.368288
H19   H     H_    0.773588 0.445400 0.725532 0.348350
H20   H     H_    0.881338 0.764090 0.631936 0.355958
H21   H     H_    0.103541 0.242485 0.531554 0.374298
H22   H     H_    0.592169 0.935138 0.385537 0.188003
H23   H     H_    0.611138 0.074185 0.396032 0.180070
H24   H     H_    0.423850 0.927317 0.612713 0.227957
H25   H     H_    0.541175 0.928305 0.616498 0.247445
H26   H     H_    0.417710 0.071522 0.607731 0.197558
H27   H     H_    0.390453 0.406886 0.274674 0.174224
H28   H     H_    0.361870 0.075774 0.477960 0.195838
N1    N     N_1   0.268730 0.501370 0.501580 -0.068108
N2    N     N_1   0.731270 0.498640 0.498400 -0.049037
O1    O     O_R   0.425740 0.622790 0.499920 -0.579333
O2    O     O_R   0.497549 0.078011 0.302758 -0.779686
O3    O     O_2   0.723622 0.864034 0.427214 -0.549913
O4    O     O_R   0.692546 0.902239 0.557821 -0.756177
O5    O     O_2   0.924460 0.495555 0.709960 -0.567743
O6    O     O_R   0.801282 0.432426 0.669094 -0.771837
O7    O     O_2   0.831673 0.621769 0.620293 -0.644678
O8    O     O_R   0.919589 0.734235 0.587001 -0.671160
O9    O     O_2   0.131628 0.340781 0.635462 -0.600646
O10   O     O_R   0.072794 0.298689 0.521723 -0.734576
O11   O     O_R   0.574190 0.622930 0.500090 -0.601480
O12   O     O_R   0.417000 0.499930 0.615710 -0.608917
O13   O     O_R   0.565450 0.500080 0.615870 -0.596229
O14   O     O_R   0.425810 0.377070 0.499910 -0.614125
O15   O     O_R   0.574260 0.377210 0.500080 -0.583048
O16   O     O_R   0.434550 0.499920 0.384130 -0.616349
O17   O     O_R   0.583000 0.500070 0.384290 -0.609895
O18   O     O_2   0.363426 0.138195 0.345692 -0.580538
Zn1   Zn    Zn3+2 0.400880 0.499910 0.499890 1.036089
Zn2   Zn    Zn3+2 0.599120 0.500090 0.500110 1.066335

loop_
_geom_bond_atom_site_label_1
_geom_bond_atom_site_label_2
_ccdc_geom_bond_type
C28   O16   A    
C21   C26   S    
C8    C13   S    
C5    C37   S    
C18   C21   S    
C41   C42   A    
C44   H15   S    
C19   C20   S    
C24   C27   S    
C31   H1    S    
C20   H5    S    
C22   H3    S    
N2    Zn2   S    
C38   O5    D    
C37   O4    S    
C19   C21   S    
C41   H7    S    
C25   C40   S    
C30   C31   A    
C2    C41   A    
C28   O17   A    
C3    Cl3   S    
C23   C43   A    
C9    H28   S    
C11   H26   S    
C7    C14   T    
C13   H24   S    
O13   Zn2   S    
C9    C36   S    
C37   O3    D    
C25   H9    S    
C35   H11   S    
C9    C10   S    
C11   H2    S    
C2    C34   A    
O15   Zn2   S    
N1    Zn1   S    
C33   C44   S    
C39   O7    D    
H19   O6    S    
C6    H23   S    
C16   O15   A    
C6    Cl2   S    
C20   C24   S    
C24   C25   S    
C27   N1    T    
C10   C14   S    
H21   O10   S    
O14   Zn1   S    
C26   C38   S    
C25   C26   S    
C21   C29   S    
C18   C39   S    
C29   N2    T    
C3    C9    S    
C31   C32   A    
H20   O8    S    
C13   H25   S    
C23   C34   A    
C12   C35   A    
C43   C45   S    
O12   Zn1   S    
O11   Zn2   S    
C32   H16   S    
C4    O13   A    
C23   H13   S    
C3    C8    S    
C8    C15   S    
C22   C24   S    
C42   C43   A    
O16   Zn1   S    
H18   O4    S    
C44   C45   D    
C26   H8    S    
C19   H4    S    
C15   C17   T    
C7    C16   S    
C16   O14   A    
C12   C30   A    
C18   C22   S    
H17   O2    S    
O1    Zn1   S    
C6    C10   S    
C5    C8    S    
C1    O11   A    
O17   Zn2   S    
C12   H14   S    
C3    Cl1   S    
C1    C17   S    
C38   O6    S    
C32   C33   A    
C1    O1    A    
C34   H27   S    
C11   C13   S    
C19   Cl5   S    
C5    C6    S    
C45   H10   S    
C33   C35   A    
C36   O18   D    
C40   O10   S    
C5    H22   S    
C10   C11   S    
C4    O12   A    
C2    C28   S    
C36   O2    S    
C40   O9    D    
C20   H6    S    
C42   H12   S    
C39   O8    S    
C4    C30   S    
C18   Cl4   S    
C22   Cl6   S    
