data_mof_unit_21668.cif
_audit_creation_date              2012-12-10T17:33:01-0500
_audit_creation_method            fapswitch 2.2
_symmetry_space_group_name_H-M    P1
_symmetry_Int_Tables_number       1
_space_group_crystal_system       triclinic
_cell_length_a                    15.548167
_cell_length_b                    15.505109
_cell_length_c                    17.91555
_cell_angle_alpha                 90.205224
_cell_angle_beta                  109.312863
_cell_angle_gamma                 68.360716
_cell_volume                      3754.0507169

loop_
_atom_site_label
_atom_site_type_symbol
_atom_type_description
_atom_site_fract_x
_atom_site_fract_y
_atom_site_fract_z
_atom_type_partial_charge
C1    C     C_R   0.462598 0.740536 0.531915 0.501523
C2    C     C_R   0.568123 0.390131 0.070785 -0.108890
C3    C     C_R   0.613099 0.326118 0.027231 0.267381
C4    C     C_R   0.533880 0.259854 0.468525 0.491974
C5    C     C_R   0.605096 0.356160 0.950686 0.002062
C6    C     C_R   0.546800 0.451071 0.916062 -0.022107
C7    C     C_R   0.653139 0.291730 0.907620 -0.124234
C8    C     C_R   0.639180 0.318360 0.828772 0.220993
C9    C     C_R   0.542070 0.478213 0.839252 -0.177769
C10   C     C_R   0.316762 0.993172 0.521844 -0.130645
C11   C     C_R   0.441917 0.838639 0.540036 0.014370
C12   C     C_R   0.352169 0.677228 0.164532 -0.113482
C13   C     C_R   0.645836 0.106841 0.451439 -0.179609
C14   C     C_R   0.678298 0.010569 0.456148 -0.126687
C15   C     C_R   0.627255 0.962443 0.477269 0.262090
C16   C     C_R   0.757517 0.447648 0.532320 0.538550
C17   C     C_R   0.534336 0.014447 0.486833 0.032440
C18   C     C_R   0.497024 0.114482 0.472712 -0.015226
C19   C     C_R   0.475338 0.973138 0.508306 0.035631
C20   C     C_R   0.378426 0.031505 0.505688 0.037505
C21   C     C_R   0.341528 0.127514 0.484107 -0.142819
C22   C     C_R   0.399272 0.168214 0.467281 -0.117528
C23   C     C_R   0.472030 0.525428 0.162010 -0.155162
C24   C     C_R   0.507154 0.876357 0.531552 -0.112943
C25   C     C_R   0.347295 0.897020 0.536463 -0.125238
C26   C     C_R   0.557040 0.159534 0.461886 0.004725
C27   C     C_R   0.026765 0.379561 0.646521 -0.128982
C28   C     C_R   0.241711 0.553169 0.469613 0.486542
C29   C     C_R   0.861629 0.427780 0.548891 0.045630
C30   C     C_R   0.066795 0.626103 0.379585 -0.129696
C31   C     C_R   0.969656 0.632944 0.354339 -0.143773
C32   C     C_R   0.940294 0.584603 0.399811 -0.120587
C33   C     C_R   0.007149 0.531071 0.474316 0.041805
C34   C     C_R   0.457171 0.549229 0.081673 -0.011603
C35   C     C_R   0.104364 0.530778 0.502921 0.028796
C36   C     C_R   0.980751 0.478579 0.521862 0.013612
C37   C     C_R   0.050488 0.430812 0.598014 -0.000891
C38   C     C_R   0.141855 0.438195 0.627319 -0.142529
C39   C     C_R   0.167299 0.489401 0.581590 -0.117661
C40   C     C_R   0.560284 0.439907 0.711429 0.529245
C41   C     C_R   0.886781 0.473573 0.497593 -0.186870
C42   C     C_R   0.931249 0.380926 0.623835 0.253416
C43   C     C_R   0.135900 0.573000 0.452463 0.016213
C44   C     C_R   0.441040 0.559884 0.287626 0.508795
C45   C     C_R   0.390234 0.641116 0.044043 0.057688
C46   C     C_R   0.419900 0.587964 0.203084 -0.028128
C47   C     C_R   0.585516 0.412485 0.795799 0.042380
C48   C     C_R   0.338948 0.705181 0.086062 0.250406
C49   C     C_3   0.753469 0.823324 0.542340 -0.016096
C50   C     C_3   0.784476 0.716927 0.550414 -0.250313
C51   C     C_3   0.879493 0.668173 0.622063 -0.472500
C52   C     C_3   0.905702 0.378603 0.742281 -0.000124
C53   C     C_3   0.857449 0.339373 0.787494 -0.222907
C54   C     C_3   0.850631 0.388136 0.860719 -0.469139
C55   C     C_3   0.637426 0.190258 0.766044 0.012916
C56   C     C_R   0.507409 0.484622 0.038128 -0.010512
C57   C     C_3   0.676822 0.129486 0.707966 -0.243041
C58   C     C_3   0.631112 0.056887 0.686262 -0.480323
C59   C     C_3   0.611407 0.179555 0.039002 -0.003065
C60   C     C_3   0.564791 0.172959 0.100835 -0.258996
C61   C     C_3   0.512452 0.105149 0.081782 -0.486554
C62   C     C_3   0.321134 0.856811 0.071820 -0.001671
C63   C     C_3   0.251951 0.954121 0.026079 -0.249103
C64   C     C_3   0.301389 0.024143 0.046447 -0.490250
C65   C     C_R   0.494294 0.514828 0.958670 0.031121
C66   C     C_R   0.426897 0.606956 0.923596 -0.143720
C67   C     C_R   0.375767 0.668172 0.965243 -0.124062
H1    H     H_    0.324539 0.737650 0.935014 0.150050
H2    H     H_    0.502502 0.549311 0.809945 0.103378
H3    H     H_    0.193432 0.405735 0.686905 0.105191
H4    H     H_    0.081291 0.341535 0.703616 0.105839
H5    H     H_    0.829259 0.509411 0.441539 0.103617
H6    H     H_    0.088713 0.659867 0.340471 0.138277
H7    H     H_    0.864474 0.591566 0.375143 0.105573
H8    H     H_    0.917292 0.673680 0.297623 0.120503
H9    H     H_    0.236233 0.497752 0.610009 0.142826
H10   H     H_    0.311418 0.726514 0.195791 0.145802
H11   H     H_    0.525289 0.458922 0.195236 0.137814
H12   H     H_    0.699646 0.219858 0.934080 0.152043
H13   H     H_    0.409376 0.633923 0.862831 0.101780
H14   H     H_    0.580032 0.361294 0.129490 0.119300
H15   H     H_    0.745336 0.847649 0.599266 0.119714
H16   H     H_    0.813372 0.839227 0.532534 0.135771
H17   H     H_    0.725120 0.698431 0.558144 0.177931
H18   H     H_    0.796302 0.690965 0.495247 0.173263
H19   H     H_    0.942530 0.677831 0.612374 0.154634
H20   H     H_    0.895860 0.592220 0.630309 0.156828
H21   H     H_    0.871112 0.696624 0.677384 0.141656
H22   H     H_    0.863072 0.455824 0.726403 0.147946
H23   H     H_    0.295885 0.867823 0.542090 0.114325
H24   H     H_    0.982817 0.364512 0.782243 0.117327
H25   H     H_    0.781917 0.349248 0.747105 0.224028
H26   H     H_    0.901422 0.263090 0.806704 0.178973
H27   H     H_    0.925342 0.380727 0.901226 0.138183
H28   H     H_    0.818601 0.355842 0.893810 0.172411
H29   H     H_    0.802288 0.463643 0.842321 0.156170
H30   H     H_    0.555610 0.227546 0.736929 0.151766
H31   H     H_    0.654259 0.143937 0.820682 0.116095
H32   H     H_    0.659647 0.174659 0.652648 0.185890
H33   H     H_    0.758527 0.092802 0.735709 0.170471
H34   H     H_    0.266827 0.171735 0.479574 0.116492
H35   H     H_    0.646830 0.011190 0.740733 0.141021
H36   H     H_    0.663559 0.012404 0.646007 0.142916
H37   H     H_    0.549777 0.092021 0.655233 0.165988
H38   H     H_    0.661803 0.107980 0.036018 0.150224
H39   H     H_    0.553043 0.205211 0.978293 0.109287
H40   H     H_    0.623285 0.148676 0.161104 0.181643
H41   H     H_    0.509868 0.243045 0.101534 0.153130
H42   H     H_    0.452649 0.128891 0.022170 0.143189
H43   H     H_    0.479089 0.102349 0.127316 0.152906
H44   H     H_    0.565913 0.033651 0.082457 0.145961
H45   H     H_    0.242780 0.037429 0.518963 0.111926
H46   H     H_    0.389897 0.833778 0.057037 0.127769
H47   H     H_    0.340376 0.861265 0.137020 0.137227
H48   H     H_    0.230643 0.950273 0.960874 0.168982
H49   H     H_    0.183712 0.978932 0.041217 0.179027
H50   H     H_    0.322254 0.030120 0.111253 0.153056
H51   H     H_    0.249277 0.094063 0.012483 0.147274
H52   H     H_    0.368668 0.001589 0.030126 0.144768
H53   H     H_    0.579861 0.826940 0.540505 0.169290
H54   H     H_    0.691628 0.140100 0.440585 0.147753
H55   H     H_    0.745352 0.972577 0.444298 0.121538
H56   H     H_    0.364457 0.242633 0.447205 0.149404
O1    O     O_3   0.500000 0.500000 0.500000 -0.433731
O2    O     O_R   0.596500 0.492780 0.688380 -0.555049
O3    O     O_R   0.388780 0.611210 0.325000 -0.545703
O4    O     O_R   0.499860 0.410860 0.661600 -0.542102
O5    O     O_R   0.514860 0.485140 0.325020 -0.543985
O6    O     O_3   0.662906 0.866318 0.477359 -0.586790
O7    O     O_3   0.905567 0.334161 0.673220 -0.568014
O8    O     O_3   0.683926 0.254436 0.785304 -0.589014
O9    O     O_3   0.669288 0.234085 0.062429 -0.576469
O10   O     O_3   0.272775 0.794433 0.049518 -0.579181
O11   O     O_R   0.707110 0.418540 0.472990 -0.537312
O12   O     O_R   0.267620 0.606720 0.435250 -0.549432
O13   O     O_R   0.540230 0.674660 0.578090 -0.553747
O14   O     O_R   0.485030 0.300080 0.513670 -0.551250
O15   O     O_R   0.403610 0.721990 0.472930 -0.535601
O16   O     O_R   0.571130 0.303270 0.435320 -0.542727
O17   O     O_R   0.717650 0.497270 0.578120 -0.548563
O18   O     O_R   0.307610 0.477470 0.513630 -0.550822
Zn1   Zn    Zn3+2 0.572030 0.427990 0.434470 0.941987
Zn2   Zn    Zn3+2 0.587090 0.540470 0.584680 0.923305
Zn3   Zn    Zn3+2 0.449010 0.423430 0.546420 0.921668
Zn4   Zn    Zn3+2 0.391880 0.608100 0.434430 0.934018

loop_
_geom_bond_atom_site_label_1
_geom_bond_atom_site_label_2
_ccdc_geom_bond_type
C40   C47   S    
C38   H3    S    
C34   C56   A    
C14   H55   S    
C29   C42   A    
C28   O12   A    
C19   C20   A    
C18   C26   A    
O17   Zn2   S    
C12   C48   A    
C61   H42   S    
C6    C9    A    
C52   H22   S    
C50   H17   S    
C22   H56   S    
C53   C54   S    
C44   O3    A    
C25   H23   S    
C62   C63   S    
C64   H52   S    
C62   O10   S    
C36   C37   A    
C9    H2    S    
C62   H47   S    
O13   Zn2   S    
C32   H7    S    
C30   C31   A    
O16   Zn1   S    
C11   C25   A    
O15   Zn4   S    
C56   C65   A    
C57   H32   S    
C11   C24   A    
C33   C36   A    
C64   H51   S    
C49   C50   S    
C50   H18   S    
C17   C19   A    
C4    O14   A    
C6    C65   A    
C10   C20   A    
O12   Zn4   S    
C1    C11   S    
C45   C67   A    
O1    Zn2   S    
C10   H45   S    
C58   H35   S    
C1    O13   A    
C35   C43   A    
C54   H29   S    
C60   H41   S    
C21   H34   S    
C66   C67   A    
C16   O11   A    
C59   C60   S    
C23   C46   A    
C13   C14   A    
O1    Zn1   S    
C36   C41   A    
C16   O17   A    
C8    O8    S    
C61   H43   S    
C51   H19   S    
O3    Zn4   S    
C44   C46   S    
C50   C51   S    
C38   C39   A    
C59   O9    S    
C24   H53   S    
C59   H39   S    
C53   H26   S    
C67   H1    S    
C48   O10   S    
C7    C8    A    
C62   H46   S    
C12   C46   A    
O18   Zn3   S    
C51   H20   S    
C5    C7    A    
C30   H6    S    
C16   C29   S    
C57   H33   S    
C49   O6    S    
C64   H50   S    
C3    O9    S    
C60   C61   S    
C49   H15   S    
C35   C39   A    
C37   C38   A    
O11   Zn1   S    
C13   H54   S    
C31   H8    S    
C31   C32   A    
C15   O6    S    
C23   C34   A    
C12   H10   S    
C55   H30   S    
C53   H25   S    
C17   C18   A    
C42   O7    S    
C34   C45   A    
C59   H38   S    
C39   H9    S    
C54   H28   S    
C60   H40   S    
C41   H5    S    
C63   H49   S    
C10   C25   A    
O14   Zn3   S    
C9    C47   A    
C55   O8    S    
C55   C57   S    
C30   C43   A    
C58   H37   S    
C61   H44   S    
C27   H4    S    
C52   C53   S    
C7    H12   S    
C45   C48   A    
C15   C17   A    
C44   O5    A    
C29   C41   A    
C18   C22   A    
C3    C5    A    
C51   H21   S    
C4    C26   S    
C58   H36   S    
C66   H13   S    
O1    Zn4   S    
C28   C43   S    
C52   O7    S    
C32   C33   A    
C49   H16   S    
C2    C3    A    
C8    C47   A    
C63   H48   S    
C2    C56   A    
C4    O16   A    
C40   O4    A    
C27   C42   A    
C57   C58   S    
C5    C6    A    
O2    Zn2   S    
C40   O2    A    
C55   H31   S    
C33   C35   A    
C19   C24   A    
O4    Zn3   S    
C23   H11   S    
C13   C26   A    
C54   H27   S    
C63   C64   S    
C20   C21   A    
C65   C66   A    
C14   C15   A    
O1    Zn3   S    
C2    H14   S    
C28   O18   A    
C52   H24   S    
C21   C22   A    
O5    Zn1   S    
C1    O15   A    
C27   C37   A    
