data_mof_unit_15285.cif
_audit_creation_date              2012-12-10T19:44:31-0500
_audit_creation_method            fapswitch 2.2
_symmetry_space_group_name_H-M    P1
_symmetry_Int_Tables_number       1
_space_group_crystal_system       triclinic
_cell_length_a                    8.593055
_cell_length_b                    14.945886
_cell_length_c                    14.175015
_cell_angle_alpha                 90.150642
_cell_angle_beta                  98.653146
_cell_angle_gamma                 90.01371
_cell_volume                      1799.77981903

loop_
_atom_site_label
_atom_site_type_symbol
_atom_type_description
_atom_site_fract_x
_atom_site_fract_y
_atom_site_fract_z
_atom_type_partial_charge
C1    C     C_R   0.497898 0.327667 0.499662 0.872783
C2    C     C_R   0.375321 0.461836 0.883338 -0.275010
C3    C     C_R   0.500204 0.499958 0.053399 0.134329
C4    C     C_R   0.500162 0.499989 0.946668 0.137965
C5    C     C_R   0.201007 0.500001 0.475069 0.972115
C6    C     C_R   0.798995 0.500050 0.524939 0.975169
C7    C     C_2   0.035953 0.500057 0.461619 -0.379858
C8    C     C_2   0.964057 0.500089 0.538410 -0.389068
C9    C     C_R   0.527665 0.090698 0.576983 -0.160634
C10   C     C_R   0.530643 0.909220 0.428702 -0.158368
C11   C     C_R   0.543855 0.182553 0.578484 -0.191801
C12   C     C_R   0.498063 0.672312 0.499948 0.870961
C13   C     C_R   0.546912 0.817381 0.430430 -0.193464
C14   C     C_R   0.482852 0.231936 0.497920 -0.041032
C15   C     C_R   0.483155 0.767996 0.498814 -0.039840
C16   C     C_R   0.401644 0.190052 0.416663 -0.233293
C17   C     C_R   0.399089 0.809787 0.563830 -0.232335
C18   C     C_R   0.382382 0.097971 0.415345 0.027931
C19   C     C_R   0.379617 0.901838 0.561258 0.024171
C20   C     C_R   0.447670 0.048308 0.495767 0.056506
C21   C     C_R   0.447737 0.951549 0.493908 0.056997
C22   C     C_1   0.294884 0.056036 0.331816 0.139394
C23   C     C_R   0.428544 0.430441 0.098531 -0.273437
C24   C     C_1   0.288935 0.943690 0.627189 0.142940
C25   C     C_R   0.624938 0.538152 0.906246 -0.273937
C26   C     C_R   0.429397 0.431894 0.197846 0.025719
C27   C     C_R   0.622262 0.537697 0.806757 0.020570
C28   C     C_R   0.570817 0.568017 0.211145 0.023957
C29   C     C_R   0.377857 0.462283 0.784347 0.021040
C30   C     C_R   0.571850 0.569455 0.112011 -0.273176
H1    H     H_    0.974041 0.500059 0.388775 0.182185
H2    H     H_    0.725524 0.567153 0.950975 0.136556
H3    H     H_    0.373753 0.378123 0.231335 0.123026
H4    H     H_    0.718784 0.567352 0.776909 0.128194
H5    H     H_    0.626510 0.621762 0.255103 0.124313
H6    H     H_    0.281339 0.432486 0.736860 0.127189
H7    H     H_    0.626597 0.625498 0.081674 0.137849
H8    H     H_    0.274799 0.432809 0.909606 0.135859
H9    H     H_    0.025950 0.500118 0.611257 0.173318
H10   H     H_    0.580175 0.052290 0.638368 0.147955
H11   H     H_    0.585275 0.947661 0.377809 0.146851
H12   H     H_    0.606534 0.214803 0.641548 0.157182
H13   H     H_    0.611725 0.785128 0.379875 0.147288
H14   H     H_    0.351488 0.229172 0.355168 0.148390
H15   H     H_    0.346796 0.770591 0.615257 0.158988
H16   H     H_    0.373900 0.374377 0.057885 0.138138
N1    N     N_R   0.500000 0.499980 0.252470 -0.094497
N2    N     N_R   0.500000 0.500020 0.747530 -0.094663
N3    N     N_1   0.224810 0.022416 0.264945 -0.199142
N4    N     N_1   0.216296 0.977244 0.679956 -0.198594
O1    O     O_R   0.500010 0.369070 0.579480 -0.620480
O2    O     O_R   0.499990 0.630930 0.420520 -0.629222
O3    O     O_R   0.500010 0.369060 0.420520 -0.630347
O4    O     O_R   0.499990 0.630940 0.579480 -0.621746
O5    O     O_R   0.271750 0.500000 0.560890 -0.624775
O6    O     O_R   0.728250 0.500000 0.439110 -0.614076
O7    O     O_R   0.271750 0.499990 0.401930 -0.624021
O8    O     O_R   0.728250 0.500010 0.598070 -0.634789
Zn1   Zn    Zn3+2 0.500000 0.500010 0.606140 0.941570
Zn2   Zn    Zn3+2 0.500000 0.499990 0.393860 0.944210

loop_
_geom_bond_atom_site_label_1
_geom_bond_atom_site_label_2
_ccdc_geom_bond_type
C27   N2    A    
C3    C30   A    
C2    C4    A    
C5    C7    S    
C28   N1    A    
C16   H14   S    
C8    H9    S    
O5    Zn1   S    
C25   C27   A    
C1    O1    A    
C2    H8    S    
C26   H3    S    
C3    C23   A    
C12   C15   S    
C5    O7    A    
C25   H2    S    
C28   C30   A    
C19   C24   S    
N1    Zn2   S    
C7    C8    D    
C27   H4    S    
C23   H16   S    
C10   H11   S    
C1    O3    A    
C9    C11   A    
C29   H6    S    
C26   N1    A    
N2    Zn1   S    
C2    C29   A    
C12   O2    A    
O3    Zn2   S    
C17   H15   S    
C4    C25   A    
C18   C20   A    
O4    Zn1   S    
C13   C15   A    
C10   C21   A    
C24   N4    T    
C11   C14   A    
C14   C16   A    
C7    H1    S    
C29   N2    A    
C3    C4    S    
C13   H13   S    
O1    Zn1   S    
C20   C21   S    
C30   H7    S    
C11   H12   S    
C16   C18   A    
C23   C26   A    
C22   N3    T    
C15   C17   A    
C6    O8    A    
O7    Zn2   S    
C6    C8    S    
C1    C14   S    
C9    C20   A    
O2    Zn2   S    
C17   C19   A    
O8    Zn1   S    
C18   C22   S    
C5    O5    A    
C9    H10   S    
C12   O4    A    
O6    Zn2   S    
C28   H5    S    
C6    O6    A    
C19   C21   A    
C10   C13   A    
