data_mof_unit_18647.cif
_audit_creation_date              2012-10-26T19:46:10-0400
_audit_creation_method            fapswitch 2.2
_symmetry_space_group_name_H-M    P1
_symmetry_Int_Tables_number       1
_space_group_crystal_system       triclinic
_cell_length_a                    10.836699
_cell_length_b                    9.51507
_cell_length_c                    15.891987
_cell_angle_alpha                 89.34587
_cell_angle_beta                  90.143373
_cell_angle_gamma                 90.069132
_cell_volume                      1638.5407036

loop_
_atom_site_label
_atom_site_type_symbol
_atom_type_description
_atom_site_fract_x
_atom_site_fract_y
_atom_site_fract_z
_atom_type_partial_charge
C1    C     C_R   0.262054 0.499950 0.500067 0.548922
C2    C     C_R   0.936321 0.627731 0.500483 -0.140250
C3    C     C_R   0.871805 0.500052 0.500348 0.020013
C4    C     C_R   0.128217 0.499937 0.500253 0.019763
C5    C     C_R   0.425176 0.075319 0.446450 0.015326
C6    C     C_R   0.425206 0.926474 0.446433 0.013081
C7    C     C_R   0.499949 0.500828 0.340159 0.553352
C8    C     C_R   0.574569 0.924675 0.553810 0.008026
C9    C     C_R   0.574545 0.073524 0.553823 0.008461
C10   C     C_R   0.737958 0.500046 0.500152 0.549565
C11   C     C_R   0.500507 0.499220 0.659790 0.545829
C12   C     C_3   0.634682 0.470896 0.950014 -0.221073
C13   C     C_3   0.458152 0.648646 0.047221 -0.195347
C14   C     C_3   0.411185 0.390970 0.051271 -0.243195
C15   C     C_3   0.417131 0.384567 0.953683 0.161951
C16   C     C_3   0.470842 0.654139 0.949682 0.162107
C17   C     C_1   0.501825 0.497614 0.749245 -0.042298
C18   C     C_3   0.502972 0.504419 0.082815 0.030357
C19   C     C_3   0.502577 0.503297 0.916647 0.033285
C20   C     C_3   0.385805 0.799497 0.842864 0.003029
C21   C     C_3   0.385932 0.953713 0.869121 -0.270678
C22   C     C_3   0.408086 0.050427 0.793195 -0.462314
C23   C     C_3   0.637175 0.475391 0.048671 0.447552
C24   C     C_3   0.209503 0.462664 0.926878 0.053299
C25   C     C_3   0.090599 0.384115 0.948677 -0.295957
C26   C     C_3   0.984381 0.485209 0.964758 -0.461208
C27   C     C_1   0.502649 0.498850 0.824658 -0.030435
C28   C     C_1   0.501435 0.504849 0.175056 -0.034299
C29   C     C_1   0.500543 0.503136 0.250551 -0.022184
C30   C     C_R   0.063708 0.372254 0.500279 -0.138827
C31   C     C_R   0.064003 0.627676 0.500420 -0.141155
C32   C     C_R   0.936026 0.372310 0.500344 -0.137668
Cu1   Cu    Cu3+1 0.500020 0.640660 0.500000 0.932335
Cu2   Cu    Cu3+1 0.500020 0.359340 0.500000 0.942267
H1    H     H_    0.634376 0.867856 0.596839 0.103878
H2    H     H_    0.666438 0.366973 0.926972 0.082319
H3    H     H_    0.111610 0.272395 0.500196 0.127295
H4    H     H_    0.112137 0.727522 0.500452 0.126811
H5    H     H_    0.887899 0.272460 0.500329 0.129426
H6    H     H_    0.888425 0.727592 0.500580 0.128693
H7    H     H_    0.365110 0.132146 0.403596 0.109860
H8    H     H_    0.365211 0.871068 0.403554 0.108678
H9    H     H_    0.310722 0.783487 0.796204 0.155979
H10   H     H_    0.473687 0.775047 0.809953 0.124492
H11   H     H_    0.295677 0.979990 0.898021 0.185942
H12   H     H_    0.634282 0.128917 0.596875 0.104198
H13   H     H_    0.459752 0.971310 0.916528 0.149412
H14   H     H_    0.499264 0.028003 0.764520 0.133576
H15   H     H_    0.406987 0.161690 0.813074 0.191125
H16   H     H_    0.334630 0.035540 0.745223 0.155691
H17   H     H_    0.194167 0.525382 0.868386 0.182713
H18   H     H_    0.230206 0.536556 0.978191 0.170523
H19   H     H_    0.065162 0.313750 0.896004 0.174262
H20   H     H_    0.105974 0.318258 0.005970 0.172127
H21   H     H_    0.006961 0.555545 0.017955 0.172925
H22   H     H_    0.900564 0.423909 0.981196 0.205868
H23   H     H_    0.360815 0.667276 0.066157 0.129151
H24   H     H_    0.964889 0.549645 0.907543 0.141565
H25   H     H_    0.734585 0.574755 0.133193 0.355084
H26   H     H_    0.639756 0.268596 0.056942 0.297313
H27   H     H_    0.317047 0.412712 0.074990 0.118663
H28   H     H_    0.434581 0.286313 0.078822 0.100318
H29   H     H_    0.513009 0.735526 0.075140 0.128534
H30   H     H_    0.467241 0.284741 0.941504 0.115405
H31   H     H_    0.551408 0.724851 0.936925 0.112924
H32   H     H_    0.701339 0.548469 0.923193 0.133587
N1    N     N_R   0.500030 0.852070 0.500020 -0.222910
N2    N     N_R   0.500030 0.147930 0.500020 -0.222632
O1    O     O_R   0.319660 0.618740 0.500000 -0.509962
O2    O     O_3   0.302970 0.363087 0.911002 -0.579790
O3    O     O_3   0.716355 0.585890 0.072235 -0.701987
O4    O     O_3   0.684930 0.348366 0.082235 -0.690308
O5    O     O_R   0.319660 0.381260 0.500000 -0.508930
O6    O     O_R   0.500020 0.618840 0.379440 -0.497298
O7    O     O_R   0.500020 0.381160 0.379440 -0.491181
O8    O     O_R   0.680370 0.618830 0.500010 -0.507109
O9    O     O_R   0.680370 0.381170 0.500010 -0.506579
O10   O     O_R   0.500010 0.618730 0.620560 -0.506896
O11   O     O_R   0.500010 0.381270 0.620560 -0.495761
O12   O     O_3   0.361449 0.710242 0.913037 -0.598626

loop_
_geom_bond_atom_site_label_1
_geom_bond_atom_site_label_2
_ccdc_geom_bond_type
C24   H18   S    
C22   H14   S    
C7    C29   S    
C14   C18   S    
C26   H21   S    
C24   O2    S    
C15   C19   S    
C12   C23   S    
C13   C18   S    
C28   C29   T    
C25   H19   S    
Cu2   O9    S    
C5    C6    A    
Cu1   O10   S    
C13   H23   S    
H26   O4    S    
C14   H28   S    
C32   H5    S    
C10   O8    A    
C8    C9    A    
C15   H30   S    
C12   H2    S    
C19   C27   S    
Cu1   O1    S    
Cu2   O7    S    
C22   H16   S    
C24   H17   S    
C9    H12   S    
C21   C22   S    
C5    N2    A    
C20   H10   S    
C10   O9    A    
C7    O6    A    
C21   H11   S    
C20   O12   S    
C18   C23   S    
C17   C27   T    
C23   O3    S    
C18   C28   S    
C24   C25   S    
Cu2   N2    S    
C7    O7    A    
C25   C26   S    
C14   H27   S    
C12   H32   S    
C1    O1    A    
C30   H3    S    
C2    C31   A    
C16   O12   S    
C8    H1    S    
C11   O10   A    
Cu2   O11   S    
Cu1   O8    S    
C13   H29   S    
Cu1   Cu2   S    
C25   H20   S    
C26   H24   S    
C11   O11   A    
C22   H15   S    
C6    N1    A    
C20   H9    S    
Cu1   N1    S    
C15   O2    S    
C5    H7    S    
C11   C17   S    
C23   O4    S    
C26   H22   S    
C31   H4    S    
C1    C4    S    
C1    O5    A    
C2    C3    A    
C9    N2    A    
C3    C10   S    
C30   C32   A    
C16   C19   S    
C12   C19   S    
C3    C32   A    
C4    C31   A    
Cu2   O5    S    
C2    H6    S    
Cu1   O6    S    
C20   C21   S    
C8    N1    A    
C6    H8    S    
C13   C16   S    
C14   C15   S    
C16   H31   S    
C4    C30   A    
H25   O3    S    
C21   H13   S    
