data_mof_unit_19173.cif
_audit_creation_date              2012-12-11T16:09:04-0500
_audit_creation_method            fapswitch 2.2
_symmetry_space_group_name_H-M    P1
_symmetry_Int_Tables_number       1
_space_group_crystal_system       triclinic
_cell_length_a                    12.954501
_cell_length_b                    13.288672
_cell_length_c                    27.682581
_cell_angle_alpha                 95.117522
_cell_angle_beta                  89.976353
_cell_angle_gamma                 119.049578
_cell_volume                      4144.35747708

loop_
_atom_site_label
_atom_site_type_symbol
_atom_type_description
_atom_site_fract_x
_atom_site_fract_y
_atom_site_fract_z
_atom_type_partial_charge
C1    C     C_R   0.628150 0.896026 0.427272 0.546341
C2    C     C_R   0.174970 0.747194 0.299008 -0.003887
C3    C     C_R   0.165058 0.744130 0.198424 0.010171
C4    C     C_R   0.601215 0.222189 0.440658 0.545994
C5    C     C_R   0.178055 0.658789 0.219465 -0.121315
C6    C     C_R   0.181021 0.659252 0.269524 -0.111710
C7    C     C_R   0.155781 0.739361 0.148473 -0.148596
C8    C     C_R   0.128715 0.815357 0.126819 -0.019994
C9    C     C_R   0.183195 0.934984 0.358566 0.255626
C10   C     C_R   0.155661 0.921998 0.308306 0.018909
C11   C     C_R   0.160757 0.832980 0.278346 0.022881
C12   C     C_R   0.659710 0.423389 0.238029 -0.081310
C13   C     C_R   0.130078 0.999648 0.286958 -0.124257
C14   C     C_R   0.125200 0.998882 0.236773 -0.121755
C15   C     C_R   0.138082 0.915334 0.206288 -0.007497
C16   C     C_R   0.268185 0.875922 0.425743 0.560537
C17   C     C_R   0.153815 0.830529 0.227627 0.044508
C18   C     C_R   0.131742 0.911282 0.155188 0.048258
C19   C     C_R   0.205647 0.852332 0.378305 0.005426
C20   C     C_R   0.741079 0.950885 0.354426 -0.119542
C21   C     C_R   0.741797 0.939958 0.304468 0.012549
C22   C     C_R   0.739287 0.923474 0.203647 0.025365
C23   C     C_R   0.651783 0.407538 0.287431 -0.080637
C24   C     C_R   0.819920 0.026522 0.230574 -0.128769
C25   C     C_R   0.822507 0.034055 0.280829 -0.143324
C26   C     C_R   0.744587 0.912364 0.153632 -0.106624
C27   C     C_R   0.678195 0.804139 0.127304 -0.002676
C28   C     C_R   0.627070 0.899066 0.565040 0.550276
C29   C     C_R   0.572935 0.757520 0.352866 -0.122952
C30   C     C_R   0.573872 0.741900 0.301959 -0.010396
C31   C     C_R   0.657522 0.836252 0.277879 0.040813
C32   C     C_R   0.493941 0.636656 0.274149 0.051284
C33   C     C_R   0.500271 0.628083 0.223432 -0.148103
C34   C     C_R   0.671287 0.321832 0.304505 0.030730
C35   C     C_R   0.580951 0.722407 0.199970 -0.021325
C36   C     C_R   0.658258 0.827567 0.227177 0.057106
C37   C     C_R   0.591142 0.711157 0.149851 -0.134428
C38   C     C_R   0.651825 0.863743 0.378462 -0.013326
C39   C     C_R   0.743193 0.303529 0.650700 -0.160349
C40   C     C_R   0.604437 0.230035 0.577915 0.573786
C41   C     C_R   0.756422 0.326571 0.701247 0.006119
C42   C     C_R   0.769586 0.351408 0.803327 0.006914
C43   C     C_R   0.863156 0.352382 0.777413 -0.133461
C44   C     C_R   0.855036 0.336527 0.726699 -0.132884
C45   C     C_R   0.686646 0.353342 0.205396 0.037068
C46   C     C_R   0.778672 0.371428 0.853953 -0.159340
C47   C     C_R   0.684452 0.369545 0.879699 -0.017791
C48   C     C_R   0.572899 0.334913 0.650991 0.039178
C49   C     C_R   0.568988 0.329303 0.701626 -0.002074
C50   C     C_R   0.664410 0.330772 0.726968 0.040080
C51   C     C_R   0.469491 0.313710 0.727063 -0.076166
C52   C     C_R   0.271664 0.879644 0.563403 0.544216
C53   C     C_R   0.467703 0.307551 0.776907 -0.114011
C54   C     C_R   0.568541 0.324609 0.803509 -0.019629
C55   C     C_R   0.667609 0.335978 0.778022 0.041254
C56   C     C_1   0.695481 0.372053 0.154765 -0.047621
C57   C     C_R   0.573825 0.331641 0.854719 0.052626
C58   C     C_R   0.646137 0.298626 0.625722 -0.018831
C59   C     C_1   0.221505 0.863052 0.610092 0.007005
C60   C     C_R   0.131632 0.737027 0.720562 -0.156539
C61   C     C_R   0.119533 0.728413 0.770343 -0.119823
C62   C     C_R   0.181533 0.933008 0.784089 -0.086175
C63   C     C_R   0.190859 0.941783 0.733717 0.297183
C64   C     C_1   0.634187 0.270433 0.395178 -0.024634
C65   C     C_R   0.168177 0.843394 0.702145 0.048522
C66   C     C_R   0.145773 0.826491 0.802252 -0.004910
C67   C     C_1   0.654254 0.298660 0.354550 -0.062907
C68   C     C_1   0.127546 0.814751 0.853151 -0.041224
C69   C     C_1   0.192066 0.852910 0.651450 -0.003226
C70   C     C_1   0.102578 0.797546 0.894650 0.003476
C71   C     C_1   0.641795 0.867123 0.611610 -0.001227
C72   C     C_R   0.665754 0.924186 0.738345 -0.106134
C73   C     C_R   0.666608 0.911460 0.787892 -0.103230
C74   C     C_R   0.637633 0.717483 0.768653 -0.097107
C75   C     C_R   0.636803 0.730245 0.719016 -0.098763
C76   C     C_R   0.698885 0.252197 0.271935 -0.107135
C77   C     C_R   0.651629 0.833999 0.703794 0.028491
C78   C     C_1   0.704024 0.396798 0.113541 -0.001099
C79   C     C_R   0.652682 0.808167 0.803194 0.034128
C80   C     C_1   0.664714 0.798757 0.854042 -0.045725
C81   C     C_1   0.648254 0.848323 0.652992 -0.050457
C82   C     C_1   0.682743 0.789925 0.895762 0.003488
C83   C     C_R   0.066582 0.774092 0.078815 0.557366
C84   C     C_R   0.717021 0.441439 0.067301 0.553519
C85   C     C_R   0.719515 0.782719 0.080609 0.544484
C86   C     C_R   0.056947 0.766189 0.941360 0.550605
C87   C     C_R   0.709339 0.432157 0.929040 0.557215
C88   C     C_R   0.706908 0.268081 0.222491 -0.102753
C89   C     C_R   0.190436 0.754137 0.348804 -0.169856
C90   C     C_R   0.716292 0.776085 0.943015 0.542616
C91   C     C_3   0.296965 0.129452 0.380971 -0.069596
C92   C     C_2   0.403837 0.533207 0.296024 0.538745
C93   C     C_2   0.465794 0.300339 0.882454 0.587255
C94   C     C_2   0.515586 0.391852 0.625527 0.576304
C95   C     C_3   0.147349 0.085702 0.723221 -0.134559
C96   C     C_2   0.128504 0.005506 0.131266 0.591392
Cr1   Cr    Cr6+3 0.416430 0.829200 0.492370 1.043202
Cr2   Cr    Cr6+3 0.674630 0.087020 0.504170 1.030697
Cr3   Cr    Cr6+3 0.408920 0.083740 0.503490 1.075405
Cr4   Cr    Cr6+3 0.914010 0.832750 0.013970 1.072532
Cr5   Cr    Cr6+3 0.922310 0.578600 0.003000 1.031363
Cr6   Cr    Cr6+3 0.656280 0.574630 0.003870 1.068700
H1    H     H_    0.712566 0.184645 0.284695 0.119573
H2    H     H_    0.728151 0.213688 0.197689 0.112646
H3    H     H_    0.509353 0.690477 0.373109 0.183282
H4    H     H_    0.861752 0.395425 0.873015 0.137530
H5    H     H_    0.804616 0.283427 0.631229 0.135178
H6    H     H_    0.941783 0.363647 0.796388 0.113290
H7    H     H_    0.926361 0.333415 0.707386 0.111081
H8    H     H_    0.387043 0.291815 0.794016 0.160744
H9    H     H_    0.389209 0.298409 0.708436 0.188394
H10   H     H_    0.114049 0.660979 0.696466 0.122864
H11   H     H_    0.644262 0.489909 0.225224 0.127964
H12   H     H_    0.110859 0.064392 0.222591 0.170966
H13   H     H_    0.090168 0.645252 0.783993 0.129198
H14   H     H_    0.202450 0.008856 0.808935 0.125488
H15   H     H_    0.676584 0.004591 0.726959 0.122230
H16   H     H_    0.679810 0.982624 0.814202 0.122147
H17   H     H_    0.628286 0.637678 0.780096 0.130174
H18   H     H_    0.625229 0.659782 0.692657 0.151305
H19   H     H_    0.629034 0.460961 0.312115 0.135590
H20   H     H_    0.158181 0.668642 0.126612 0.142000
H21   H     H_    0.203915 0.688451 0.363771 0.170775
H22   H     H_    0.184620 0.590956 0.197190 0.114625
H23   H     H_    0.115743 0.062986 0.308826 0.150874
H24   H     H_    0.190919 0.592450 0.285161 0.161369
H25   H     H_    0.372799 0.113000 0.375051 0.131036
H26   H     H_    0.318900 0.191915 0.413720 0.173270
H27   H     H_    0.287324 0.172434 0.350148 0.115262
H28   H     H_    0.274722 0.466963 0.343467 0.335384
H29   H     H_    0.358021 0.201654 0.931687 0.343799
H30   H     H_    0.417151 0.472327 0.629401 0.341801
H31   H     H_    0.151579 0.118893 0.761867 0.113523
H32   H     H_    0.055736 0.016780 0.711615 0.124327
H33   H     H_    0.169327 0.158494 0.701095 0.146745
H34   H     H_    0.809376 0.985099 0.135914 0.154457
H35   H     H_    0.044091 0.095936 0.120602 0.329661
H36   H     H_    0.804063 0.032637 0.374108 0.143836
H37   H     H_    0.883097 0.100037 0.212804 0.123477
H38   H     H_    0.886512 0.114120 0.301241 0.110158
H39   H     H_    0.538321 0.627582 0.129264 0.136504
H40   H     H_    0.441181 0.547384 0.202023 0.141389
O1    O     O_R   0.296680 0.802170 0.437540 -0.523670
O2    O     O_R   0.637200 0.461990 0.052510 -0.497097
O3    O     O_R   0.664790 0.681920 0.057970 -0.508841
O4    O     O_R   0.525380 0.838530 0.443500 -0.494321
O5    O     O_R   0.815840 0.852920 0.961840 -0.511054
O6    O     O_R   0.012100 0.822630 0.963670 -0.489372
O7    O     O_R   0.037010 0.668460 0.953040 -0.509857
O8    O     O_R   0.813390 0.478970 0.949660 -0.509088
O9    O     O_R   0.632250 0.456930 0.945520 -0.470092
O10   O     O_R   0.660200 0.677230 0.958780 -0.486317
O11   O     O_3   0.830870 0.661990 0.006950 -0.263262
O12   O     O_R   0.662610 0.183990 0.557860 -0.510387
O13   O     O_R   0.702130 0.995190 0.446810 -0.517432
O14   O     O_R   0.661770 0.181390 0.458760 -0.493312
O15   O     O_R   0.499820 0.198480 0.455280 -0.523238
O16   O     O_R   0.311660 0.976250 0.449080 -0.464950
O17   O     O_R   0.297580 0.804960 0.544440 -0.509792
O18   O     O_R   0.526220 0.841130 0.542590 -0.490521
O19   O     O_R   0.703030 0.997990 0.553710 -0.508609
O20   O     O_3   0.190279 0.028135 0.388263 -0.566338
O21   O     O_2   0.387532 0.437096 0.280737 -0.540137
O22   O     O_R   0.333805 0.544165 0.332292 -0.742277
O23   O     O_R   0.500730 0.201280 0.562180 -0.465436
O24   O     O_2   0.410622 0.352711 0.879408 -0.528964
O25   O     O_R   0.431472 0.214486 0.914118 -0.686674
O26   O     O_2   0.536822 0.412461 0.583360 -0.498906
O27   O     O_R   0.446811 0.432161 0.650490 -0.741460
O28   O     O_3   0.230729 0.047282 0.715247 -0.569825
O29   O     O_2   0.204054 0.057616 0.102840 -0.507470
O30   O     O_R   0.037020 0.031201 0.139555 -0.720447
O31   O     O_R   0.312500 0.978850 0.548170 -0.486864
O32   O     O_3   0.499990 0.999990 0.500010 -0.261176
O33   O     O_R   0.820790 0.857990 0.068830 -0.493829
O34   O     O_R   0.016700 0.827330 0.062850 -0.462491
O35   O     O_R   0.041970 0.673520 0.060040 -0.523283
O36   O     O_R   0.817980 0.483660 0.048840 -0.497179

loop_
_geom_bond_atom_site_label_1
_geom_bond_atom_site_label_2
_ccdc_geom_bond_type
C53   H8    S    
Cr4   O11   S    
C15   C18   A    
C66   C68   S    
C63   C65   A    
C42   C43   A    
C8    C83   S    
C18   C96   S    
Cr1   O4    S    
C35   C36   A    
C95   H31   S    
C40   O12   A    
Cr2   O12   S    
C7    C8    A    
C39   C41   A    
C32   C92   S    
C53   C54   A    
C39   H5    S    
C74   H17   S    
C21   C31   A    
C12   C23   A    
C26   C27   A    
C90   O5    A    
C37   H39   S    
C19   C89   A    
Cr1   O17   S    
C35   C37   A    
C85   O3    A    
C3    C7    A    
Cr6   O3    S    
C30   C31   A    
Cr2   O32   S    
C84   O2    A    
Cr4   O5    S    
Cr5   O8    S    
C28   O18   A    
C56   C78   T    
C27   C85   S    
C42   C46   A    
C20   H36   S    
C1    O13   A    
Cr1   O1    S    
H35   O30   S    
Cr5   O36   S    
C72   C77   A    
C85   O33   A    
C54   C55   A    
C61   C66   A    
C9    C19   A    
C23   H19   S    
C45   C56   S    
C49   C51   A    
C87   O8    A    
Cr3   O31   S    
C72   H15   S    
Cr4   O34   S    
C91   O20   S    
Cr1   O32   S    
C77   C81   S    
C29   C30   A    
C9    C10   A    
C76   C88   A    
Cr6   O9    S    
C13   H23   S    
C44   H7    S    
C92   O22   S    
C52   O17   A    
H29   O25   S    
C57   C93   S    
C83   O34   A    
C29   H3    S    
C1    O4    A    
C2    C6    A    
Cr6   O2    S    
C2    C11   A    
C88   H2    S    
C28   O19   A    
C24   H37   S    
C91   H25   S    
Cr2   O14   S    
C40   C58   S    
C91   H26   S    
C62   C66   A    
C16   O16   A    
C64   C67   T    
C16   O1    A    
C26   H34   S    
C24   C25   A    
C6    H24   S    
C90   O10   A    
C74   C75   A    
C86   O7    A    
C94   O26   D    
C83   O35   A    
C72   C73   A    
C63   O28   S    
C89   H21   S    
C14   H12   S    
C39   C58   A    
C96   O29   D    
C95   H32   S    
C8    C18   A    
C60   C61   A    
C51   C53   A    
C47   C87   S    
C29   C38   A    
C2    C89   A    
C43   C44   A    
Cr1   O18   S    
C61   H13   S    
C62   C63   A    
C60   H10   S    
C52   C59   S    
C42   C55   A    
C47   C57   A    
C20   C38   A    
C4    O15   A    
C5    H22   S    
Cr5   O11   S    
C23   C34   A    
C25   H38   S    
Cr4   O33   S    
C95   H33   S    
C73   C79   A    
C46   C47   A    
C84   O36   A    
C75   C77   A    
Cr6   O11   S    
C40   O23   A    
C48   C94   S    
C1    C38   S    
C59   C69   T    
C45   C88   A    
C92   O21   D    
C80   C82   T    
C48   C49   A    
C4    O14   A    
C93   O24   D    
C74   C79   A    
Cr3   O15   S    
C96   O30   S    
C41   C44   A    
C22   C24   A    
C28   C71   S    
H30   O27   S    
C7    H20   S    
C70   C86   S    
C41   C50   A    
Cr2   O19   S    
C12   H11   S    
H28   O22   S    
C15   C17   A    
C21   C25   A    
Cr2   O13   S    
C11   C17   A    
C51   H9    S    
C73   H16   S    
C31   C36   A    
C75   H18   S    
C12   C45   A    
C3    C5    A    
C10   C13   A    
C86   O6    A    
C34   C67   S    
C60   C65   A    
C48   C58   A    
C91   H27   S    
C33   H40   S    
C76   H1    S    
C22   C36   A    
C4    C64   S    
C50   C55   A    
C82   C90   S    
C10   C11   A    
C32   C33   A    
C94   O27   S    
C30   C32   A    
C5    C6    A    
Cr3   O32   S    
Cr4   O6    S    
C16   C19   S    
C65   C69   S    
C46   H4    S    
Cr5   O7    S    
C33   C35   A    
C3    C17   A    
C43   H6    S    
C9    O20   S    
C95   O28   S    
Cr5   O35   S    
C62   H14   S    
C79   C80   S    
C78   C84   S    
C20   C21   A    
C93   O25   S    
C68   C70   T    
C49   C50   A    
C22   C26   A    
Cr3   O16   S    
Cr6   O10   S    
C14   C15   A    
C87   O9    A    
Cr3   O23   S    
C13   C14   A    
C52   O31   A    
C27   C37   A    
C34   C76   A    
C71   C81   T    
C54   C57   A    
