data_mof_unit_26707.cif
_audit_creation_date              2013-03-05T15:48:14-0500
_audit_creation_method            fapswitch 2.2
_symmetry_space_group_name_H-M    P1
_symmetry_Int_Tables_number       1
_space_group_crystal_system       triclinic
_cell_length_a                    15.731124
_cell_length_b                    15.731176
_cell_length_c                    34.500473
_cell_angle_alpha                 89.999264
_cell_angle_beta                  90.000732
_cell_angle_gamma                 120.000102
_cell_volume                      7393.94437253

loop_
_atom_site_label
_atom_site_type_symbol
_atom_site_description
_atom_site_fract_x
_atom_site_fract_y
_atom_site_fract_z
_atom_type_partial_charge
O1    O     O_R   0.498680 0.159540 0.541860 -0.493168
O2    O     O_R   0.840460 0.339140 0.541860 -0.493164
O3    O     O_R   0.660860 0.501320 0.541860 -0.493250
O4    O     O_R   0.159540 0.498680 0.041860 -0.493172
O5    O     O_R   0.339140 0.840460 0.041860 -0.493167
O6    O     O_R   0.501320 0.660860 0.041860 -0.493169
O7    O     O_R   0.532760 0.358060 0.540030 -0.465311
O8    O     O_R   0.641940 0.174700 0.540030 -0.465344
O9    O     O_R   0.825300 0.467240 0.540030 -0.465377
O10   O     O_R   0.358060 0.532760 0.040030 -0.465309
O11   O     O_R   0.174700 0.641940 0.040030 -0.465308
O12   O     O_R   0.467240 0.825300 0.040030 -0.465308
C1    C     C_R   0.578448 0.441559 0.555096 0.574171
C2    C     C_R   0.558439 0.136884 0.555095 0.574179
C3    C     C_R   0.863107 0.421549 0.555098 0.574249
C4    C     C_R   0.441560 0.578445 0.055095 0.574168
C5    C     C_R   0.136886 0.558440 0.055095 0.574166
C6    C     C_R   0.421555 0.863115 0.055095 0.574169
O13   O     O_R   0.498590 0.161190 0.456930 -0.422988
O14   O     O_R   0.838810 0.337400 0.456930 -0.422987
O15   O     O_R   0.662600 0.501410 0.456930 -0.422982
O16   O     O_R   0.161190 0.498590 0.956930 -0.422972
O17   O     O_R   0.337400 0.838810 0.956930 -0.422983
O18   O     O_R   0.501410 0.662600 0.956930 -0.422992
O19   O     O_R   0.532680 0.359580 0.461300 -0.462008
O20   O     O_R   0.640420 0.173100 0.461300 -0.462007
O21   O     O_R   0.826900 0.467320 0.461300 -0.461996
O22   O     O_R   0.359580 0.532680 0.961300 -0.462014
O23   O     O_R   0.173100 0.640420 0.961300 -0.462024
O24   O     O_R   0.467320 0.826900 0.961300 -0.462017
C7    C     C_R   0.576870 0.442765 0.445781 0.594337
C8    C     C_R   0.557234 0.134104 0.445782 0.594334
C9    C     C_R   0.865894 0.423129 0.445781 0.594351
C10   C     C_R   0.442765 0.576871 0.945781 0.594322
C11   C     C_R   0.134106 0.557237 0.945780 0.594316
C12   C     C_R   0.423130 0.865895 0.945781 0.594322
Cr1   Cr    Cr6+3 0.522350 0.263930 0.500020 1.214440
Cr2   Cr    Cr6+3 0.736070 0.258420 0.500020 1.214434
Cr3   Cr    Cr6+3 0.741580 0.477650 0.500020 1.214371
Cr4   Cr    Cr6+3 0.263930 0.522350 0.000020 1.214446
Cr5   Cr    Cr6+3 0.258420 0.736070 0.000020 1.214445
Cr6   Cr    Cr6+3 0.477650 0.741580 0.000020 1.214446
O25   O     O_3   0.666667 0.333333 0.499990 -0.341160
O26   O     O_3   0.333333 0.666667 0.999990 -0.341153
N1    N     N_R   0.896046 0.423819 0.776917 -0.100404
N2    N     N_R   0.576175 0.472408 0.776888 -0.100415
N3    N     N_R   0.527617 0.103751 0.776881 -0.100395
N4    N     N_R   0.423824 0.896243 0.276885 -0.100400
N5    N     N_R   0.472415 0.576181 0.276885 -0.100399
N6    N     N_R   0.103764 0.527584 0.276886 -0.100398
N7    N     N_R   0.886604 0.417991 0.738537 -0.121985
N8    N     N_R   0.581994 0.468802 0.738507 -0.122022
N9    N     N_R   0.531224 0.113173 0.738501 -0.121998
N10   N     N_R   0.418006 0.886818 0.238505 -0.121986
N11   N     N_R   0.468810 0.581999 0.238504 -0.121990
N12   N     N_R   0.113188 0.531189 0.238506 -0.121987
C13   C     C_R   0.912240 0.451297 0.593228 -0.063442
C14   C     C_R   0.548669 0.460965 0.593216 -0.063472
C15   C     C_R   0.539026 0.087684 0.593213 -0.063490
C16   C     C_R   0.451345 0.912311 0.093214 -0.063500
C17   C     C_R   0.460968 0.548656 0.093214 -0.063501
C18   C     C_R   0.087690 0.539033 0.093214 -0.063500
C19   C     C_R   0.916220 0.378840 0.615579 -0.108760
C20   C     C_R   0.621071 0.537501 0.615545 -0.108736
C21   C     C_R   0.462498 0.083557 0.615543 -0.108678
C22   C     C_R   0.378957 0.916474 0.115539 -0.108683
C23   C     C_R   0.537520 0.621045 0.115540 -0.108682
C24   C     C_R   0.083529 0.462481 0.115540 -0.108685
C25   C     C_R   0.933278 0.390802 0.655156 0.203840
C26   C     C_R   0.609097 0.542667 0.655117 0.203845
C27   C     C_R   0.457338 0.066420 0.655115 0.203863
C28   C     C_R   0.390924 0.933601 0.155113 0.203857
C29   C     C_R   0.542680 0.609080 0.155113 0.203857
C30   C     C_R   0.066404 0.457321 0.155113 0.203857
C31   C     C_R   0.948979 0.477385 0.673254 -0.022230
C32   C     C_R   0.522563 0.471746 0.673231 -0.022230
C33   C     C_R   0.528245 0.050781 0.673226 -0.022235
C34   C     C_R   0.477447 0.949189 0.173229 -0.022247
C35   C     C_R   0.471745 0.522558 0.173229 -0.022248
C36   C     C_R   0.050815 0.528254 0.173229 -0.022247
C37   C     C_R   0.955672 0.555598 0.650705 0.154212
C38   C     C_R   0.444388 0.400096 0.650703 0.154161
C39   C     C_R   0.599875 0.044228 0.650695 0.154175
C40   C     C_R   0.555617 0.955697 0.150704 0.154148
C41   C     C_R   0.400084 0.444387 0.150704 0.154147
C42   C     C_R   0.044304 0.599915 0.150703 0.154147
C43   C     C_R   0.937749 0.542764 0.610389 0.173652
C44   C     C_R   0.457235 0.394956 0.610390 0.173676
C45   C     C_R   0.605020 0.062232 0.610382 0.173662
C46   C     C_R   0.542771 0.937712 0.110390 0.173673
C47   C     C_R   0.394944 0.457230 0.110390 0.173673
C48   C     C_R   0.062288 0.605055 0.110390 0.173674
N13   N     N_R   0.040488 0.559388 0.731980 -0.122495
N14   N     N_R   0.440630 0.481353 0.731959 -0.122519
N15   N     N_R   0.518613 0.959232 0.731955 -0.122508
N16   N     N_R   0.559384 0.040723 0.231958 -0.122538
N17   N     N_R   0.481343 0.440624 0.231960 -0.122537
N18   N     N_R   0.959279 0.518653 0.231958 -0.122538
N19   N     N_R   0.049954 0.565088 0.770310 -0.137398
N20   N     N_R   0.434941 0.485113 0.770290 -0.137393
N21   N     N_R   0.514853 0.949786 0.770287 -0.137404
N22   N     N_R   0.565072 0.050172 0.270289 -0.137399
N23   N     N_R   0.485101 0.434936 0.270291 -0.137402
N24   N     N_R   0.949831 0.514894 0.270289 -0.137402
C49   C     C_R   0.978226 0.497284 0.793428 0.401943
C50   C     C_R   0.502728 0.481145 0.793404 0.401982
C51   C     C_R   0.518850 0.021556 0.793399 0.401985
C52   C     C_R   0.497277 0.978421 0.293402 0.401972
C53   C     C_R   0.481141 0.502729 0.293403 0.401973
C54   C     C_R   0.021584 0.518856 0.293402 0.401972
C55   C     C_R   0.958820 0.485463 0.715489 0.402774
C56   C     C_R   0.514530 0.473575 0.715464 0.402908
C57   C     C_R   0.526422 0.040923 0.715459 0.402917
C58   C     C_R   0.485478 0.959050 0.215463 0.402894
C59   C     C_R   0.473574 0.514529 0.215463 0.402896
C60   C     C_R   0.040954 0.526424 0.215463 0.402895
C61   C     C_R   0.982602 0.424324 0.857379 0.231537
C62   C     C_R   0.575680 0.558379 0.857367 0.231549
C63   C     C_R   0.441618 0.017285 0.857361 0.231538
C64   C     C_R   0.424322 0.982708 0.357364 0.231546
C65   C     C_R   0.558377 0.575682 0.357366 0.231551
C66   C     C_R   0.017303 0.441624 0.357367 0.231546
C67   C     C_R   0.018869 0.439085 0.895455 0.240940
C68   C     C_R   0.560919 0.579822 0.895452 0.240954
C69   C     C_R   0.420175 0.981087 0.895447 0.240949
C70   C     C_R   0.439081 0.018910 0.395449 0.240960
C71   C     C_R   0.579822 0.560920 0.395451 0.240965
C72   C     C_R   0.981097 0.420180 0.395452 0.240953
C73   C     C_R   0.066688 0.612181 0.890973 0.136025
C74   C     C_R   0.387817 0.454569 0.890955 0.136021
C75   C     C_R   0.545431 0.933242 0.890955 0.136018
C76   C     C_R   0.612180 0.066744 0.390957 0.136017
C77   C     C_R   0.454564 0.387820 0.390956 0.136019
C78   C     C_R   0.933245 0.545429 0.390953 0.136023
C79   C     C_R   0.027184 0.596431 0.853453 0.148417
C80   C     C_R   0.403566 0.430878 0.853424 0.148410
C81   C     C_R   0.569117 0.972669 0.853422 0.148409
C82   C     C_R   0.596434 0.027310 0.353425 0.148406
C83   C     C_R   0.430872 0.403570 0.353425 0.148408
C84   C     C_R   0.972687 0.569121 0.353423 0.148410
C85   C     C_R   0.991969 0.504390 0.835675 -0.054284
C86   C     C_R   0.495612 0.487727 0.835652 -0.054302
C87   C     C_R   0.512268 0.007862 0.835647 -0.054300
C88   C     C_R   0.504391 0.992121 0.335651 -0.054303
C89   C     C_R   0.487723 0.495614 0.335651 -0.054301
C90   C     C_R   0.007885 0.512274 0.335651 -0.054301
C91   C     C_R   0.069839 0.535134 0.911129 -0.064507
C92   C     C_R   0.464867 0.534729 0.911124 -0.064489
C93   C     C_R   0.465270 0.930134 0.911122 -0.064491
C94   C     C_R   0.535131 0.069861 0.411124 -0.064485
C95   C     C_R   0.534728 0.464869 0.411124 -0.064487
C96   C     C_R   0.930137 0.465271 0.411123 -0.064486
H1    H     H_    0.899581 0.309301 0.602812 0.228843
H2    H     H_    0.690587 0.590431 0.602769 0.228735
H3    H     H_    0.409571 0.100146 0.602768 0.228877
H4    H     H_    0.309457 0.899923 0.102759 0.228887
H5    H     H_    0.590469 0.690544 0.102759 0.228888
H6    H     H_    0.100081 0.409534 0.102760 0.228887
N25   N     N_R   0.941721 0.620864 0.587435 0.122990
O27   O     O_R   0.894796 0.665377 0.598319 -0.222084
O28   O     O_R   0.992507 0.647765 0.555497 -0.231523
N26   N     N_R   0.379199 0.320709 0.587453 0.123103
O29   O     O_R   0.352129 0.344476 0.555530 -0.231419
O30   O     O_R   0.334959 0.229270 0.598325 -0.222466
N27   N     N_R   0.679252 0.058425 0.587442 0.123086
O31   O     O_R   0.655472 0.007615 0.555512 -0.231431
O32   O     O_R   0.770689 0.105578 0.598317 -0.222433
N28   N     N_R   0.620801 0.941480 0.087455 0.123107
O33   O     O_R   0.665021 0.894264 0.098329 -0.222486
O34   O     O_R   0.647885 0.992317 0.055532 -0.231437
N29   N     N_R   0.320683 0.379200 0.087455 0.123107
O35   O     O_R   0.344436 0.352116 0.055533 -0.231441
O36   O     O_R   0.229246 0.334979 0.098329 -0.222487
N30   N     N_R   0.058518 0.679316 0.087455 0.123109
O37   O     O_R   0.007679 0.655563 0.055532 -0.231441
O38   O     O_R   0.105734 0.770752 0.098328 -0.222484
Cl1   Cl    Cl    0.998063 0.335560 0.923118 -0.293179
Cl2   Cl    Cl    0.664443 0.662483 0.923129 -0.293210
Cl3   Cl    Cl    0.337510 0.001951 0.923120 -0.293201
Cl4   Cl    Cl    0.335556 0.998051 0.423124 -0.293171
Cl5   Cl    Cl    0.662488 0.664444 0.423127 -0.293189
Cl6   Cl    Cl    0.001960 0.337519 0.423129 -0.293175
Cl7   Cl    Cl    0.933237 0.294318 0.681227 -0.332008
Cl8   Cl    Cl    0.705515 0.639232 0.681165 -0.331969
Cl9   Cl    Cl    0.360800 0.066318 0.681167 -0.331873
Cl10  Cl    Cl    0.294506 0.933753 0.181159 -0.331893
Cl11  Cl    Cl    0.639249 0.705499 0.181160 -0.331893
Cl12  Cl    Cl    0.066255 0.360753 0.181161 -0.331894
N31   N     N_R   0.978654 0.647073 0.668654 0.129703
O39   O     O_R   0.927334 0.648712 0.697931 -0.187488
O40   O     O_R   0.050022 0.729302 0.655303 -0.164648
N32   N     N_R   0.352962 0.331516 0.668671 0.129686
O41   O     O_R   0.270628 0.320082 0.655199 -0.164362
O42   O     O_R   0.351469 0.278962 0.698067 -0.187723
N33   N     N_R   0.668424 0.021330 0.668658 0.129706
O43   O     O_R   0.679823 0.950418 0.655176 -0.164369
O44   O     O_R   0.720975 0.072347 0.698063 -0.187614
N34   N     N_R   0.647035 0.978522 0.168674 0.129689
O45   O     O_R   0.729378 0.049411 0.155204 -0.164330
O46   O     O_R   0.648510 0.927450 0.198070 -0.187731
N35   N     N_R   0.331491 0.352969 0.168674 0.129689
O47   O     O_R   0.320037 0.270626 0.155205 -0.164328
O48   O     O_R   0.278944 0.351494 0.198070 -0.187732
N36   N     N_R   0.021479 0.668507 0.168673 0.129688
O49   O     O_R   0.950589 0.679961 0.155203 -0.164330
O50   O     O_R   0.072551 0.721054 0.198069 -0.187732
Cl13  Cl    Cl    0.932991 0.306477 0.836202 -0.282103
Cl14  Cl    Cl    0.693532 0.626637 0.836196 -0.282050
Cl15  Cl    Cl    0.373364 0.066878 0.836185 -0.282073
Cl16  Cl    Cl    0.306474 0.933124 0.336190 -0.282050
Cl17  Cl    Cl    0.626637 0.693533 0.336194 -0.282050
Cl18  Cl    Cl    0.066899 0.373367 0.336197 -0.282058
N37   N     N_R   0.102863 0.706680 0.908376 0.135128
O51   O     O_R   0.052707 0.718937 0.935567 -0.196929
O52   O     O_R   0.187980 0.779347 0.898305 -0.226809
N38   N     N_R   0.293319 0.396219 0.908355 0.135130
O53   O     O_R   0.281079 0.333816 0.935548 -0.196948
O54   O     O_R   0.220640 0.408652 0.898287 -0.226767
N39   N     N_R   0.603791 0.897109 0.908360 0.135129
O55   O     O_R   0.666183 0.947280 0.935556 -0.196957
O56   O     O_R   0.591375 0.812003 0.898294 -0.226770
N40   N     N_R   0.706671 0.102873 0.408362 0.135129
O57   O     O_R   0.718885 0.052705 0.435561 -0.196945
O58   O     O_R   0.779366 0.187976 0.398296 -0.226766
N41   N     N_R   0.396211 0.293324 0.408357 0.135131
O59   O     O_R   0.408642 0.220642 0.398291 -0.226797
O60   O     O_R   0.333811 0.281088 0.435551 -0.196934
N42   N     N_R   0.897092 0.603776 0.408352 0.135133
O61   O     O_R   0.947256 0.666186 0.435543 -0.196912
O62   O     O_R   0.811976 0.591335 0.398284 -0.226824
N43   N     N_R   0.021924 0.673784 0.833315 0.136096
O63   O     O_R   0.940337 0.656299 0.816823 -0.180483
O64   O     O_R   0.100280 0.758918 0.828346 -0.159178
N44   N     N_R   0.326211 0.348303 0.833271 0.136098
O65   O     O_R   0.343683 0.284208 0.816766 -0.180450
O66   O     O_R   0.241096 0.341566 0.828296 -0.159252
N45   N     N_R   0.651686 0.977877 0.833268 0.136101
O67   O     O_R   0.715785 0.059440 0.816761 -0.180411
O68   O     O_R   0.658408 0.899492 0.828292 -0.159278
N46   N     N_R   0.673789 0.022087 0.333273 0.136101
O69   O     O_R   0.656314 0.940518 0.316769 -0.180442
O70   O     O_R   0.758904 0.100464 0.328298 -0.159269
N47   N     N_R   0.348294 0.326215 0.333272 0.136101
O71   O     O_R   0.284201 0.343691 0.316766 -0.180443
O72   O     O_R   0.341552 0.241098 0.328299 -0.159255
N48   N     N_R   0.977905 0.651696 0.333268 0.136101
O73   O     O_R   0.059473 0.715792 0.316763 -0.180445
O74   O     O_R   0.899527 0.658432 0.328294 -0.159259

loop_
_geom_bond_atom_site_label_1
_geom_bond_atom_site_label_2
_geom_bond_distance
_ccdc_geom_bond_type
O19   C7    1.254055 A    
O7    C1    1.252225 A    
C22   H4    1.082986 S    
N29   O35   1.301287 A    
Cr6   O26   1.966580 S    
O20   C8    1.254053 A    
N27   O31   1.301291 A    
O20   Cr2   1.957157 S    
C35   C59   1.464070 S    
C28   C34   1.403422 A    
C63   C87   1.408234 A    
N35   O47   1.301137 A    
C24   C30   1.386120 A    
C61   C85   1.408251 A    
C77   C95   1.419514 A    
C35   C41   1.414462 A    
C67   Cl1   1.771212 S    
C74   N38   1.431178 S    
N42   O62   1.299898 A    
C41   C47   1.413556 A    
N37   O51   1.300743 A    
O21   C9    1.254058 A    
N4    N10   1.330464 A    
O16   C11   1.254481 A    
C68   C92   1.416621 A    
O8    Cr2   1.970385 S    
C84   N48   1.439082 S    
C75   N39   1.431188 S    
C64   C88   1.408242 A    
N38   O54   1.299886 A    
C65   C71   1.404465 A    
N16   N22   1.328779 A    
C78   C84   1.403291 A    
C33   C57   1.464070 S    
C12   C93   1.490163 S    
N7    C55   1.357816 A    
N8    C56   1.357809 A    
C76   C82   1.403291 A    
N47   O71   1.301377 A    
N2    N8    1.330462 A    
O9    Cr3   1.970371 S    
C7    C95   1.490165 S    
O10   Cr4   1.970370 S    
C15   C45   1.415838 A    
N31   O40   1.301391 A    
C17   C23   1.403186 A    
N30   O37   1.301288 A    
C36   C42   1.414461 A    
O13   Cr1   2.087552 S    
C71   C95   1.416622 A    
C73   C79   1.403296 A    
C10   C92   1.490164 S    
C72   C96   1.416624 A    
C83   C89   1.406222 A    
C36   C60   1.464073 S    
O21   Cr3   1.957172 S    
N47   O72   1.300607 A    
C18   C48   1.415846 A    
O19   Cr1   1.957148 S    
C3    C13   1.478275 S    
N15   N21   1.328784 A    
C80   C86   1.406221 A    
N25   O28   1.301309 A    
C70   Cl4   1.771212 S    
N34   O45   1.301137 A    
C23   C29   1.386117 A    
C20   C26   1.386117 A    
N17   C59   1.353719 A    
O6    C4    1.246729 A    
C83   N47   1.439084 S    
N13   N19   1.328776 A    
C68   Cl2   1.771212 S    
O3    C1    1.246712 A    
C41   N35   1.437035 S    
N3    N9    1.330462 A    
C46   N28   1.436525 S    
N28   O34   1.301287 A    
N23   C53   1.357759 A    
C81   C87   1.406212 A    
C16   C22   1.403188 A    
N27   O32   1.301168 A    
C30   C36   1.403419 A    
N45   O67   1.301376 A    
C20   H2    1.083012 S    
C39   N33   1.437040 S    
N35   O48   1.301234 A    
N16   C58   1.353721 A    
C34   C58   1.464076 S    
N44   O66   1.300606 A    
C27   Cl9   1.764024 S    
N6    C54   1.355483 A    
C24   H6    1.082987 S    
O13   C8    1.254455 A    
N15   C57   1.353721 A    
N13   C55   1.353721 A    
N42   O61   1.300742 A    
C29   Cl11  1.764018 S    
N1    C49   1.355485 A    
C13   C19   1.403223 A    
N26   O30   1.301168 A    
N37   O52   1.299896 A    
C64   Cl16  1.769994 S    
C39   C45   1.413573 A    
N48   O74   1.300605 A    
N17   N23   1.328780 A    
C63   Cl15  1.769995 S    
C37   N31   1.436899 S    
O12   Cr6   1.970401 S    
C19   C25   1.386134 A    
C72   Cl6   1.771214 S    
N38   O53   1.300730 A    
C19   H1    1.082988 S    
N43   O64   1.300605 A    
C62   C86   1.408240 A    
C84   C90   1.406222 A    
N39   O55   1.300743 A    
O3    Cr3   2.075494 S    
O16   Cr4   2.087524 S    
C31   C37   1.414407 A    
C66   C90   1.408241 A    
C11   C91   1.490198 S    
O5    C6    1.246729 A    
N12   C60   1.357809 A    
C14   C20   1.403200 A    
C40   N34   1.437035 S    
N40   O58   1.299890 A    
C21   C27   1.386105 A    
C74   C92   1.419515 A    
C9    C96   1.490164 S    
C33   C39   1.414473 A    
N6    N12   1.330463 A    
C13   C43   1.415831 A    
C80   N44   1.439081 S    
O7    Cr1   1.970398 S    
C78   N42   1.431187 S    
Cr1   O25   1.966583 S    
C62   Cl14  1.769992 S    
O22   Cr4   1.957170 S    
C69   Cl3   1.771210 S    
C75   C81   1.403290 A    
C5    C18   1.478297 S    
N39   O56   1.299896 A    
O14   Cr2   2.087538 S    
N44   O65   1.301376 A    
O2    Cr2   2.075474 S    
N9    C57   1.357808 A    
N18   C60   1.353721 A    
N25   O27   1.301218 A    
O15   Cr3   2.087522 S    
N14   N20   1.328781 A    
C32   C56   1.464073 S    
C78   C96   1.419515 A    
O15   C7    1.254456 A    
N46   O70   1.300606 A    
N41   O59   1.299897 A    
C29   C35   1.403421 A    
C23   H5    1.082987 S    
C62   C68   1.404462 A    
N22   C52   1.357761 A    
O2    C3    1.246707 A    
C28   Cl10  1.764019 S    
C37   C43   1.413503 A    
C64   C70   1.404465 A    
C69   C93   1.416622 A    
C25   Cl7   1.764018 S    
C73   N37   1.431180 S    
O4    C5    1.246729 A    
C63   C69   1.404462 A    
C6    C16   1.478299 S    
N28   O33   1.301168 A    
N43   O63   1.301376 A    
C52   C88   1.469498 S    
N36   O50   1.301237 A    
C77   C83   1.403287 A    
N3    C51   1.355477 A    
N45   O68   1.300606 A    
C30   Cl12  1.764018 S    
C26   C32   1.403422 A    
C76   C94   1.419514 A    
C71   Cl5   1.771214 S    
Cr5   O26   1.966588 S    
C65   C89   1.408240 A    
C75   C93   1.419518 A    
C4    C17   1.478296 S    
O14   C9    1.254460 A    
C32   C38   1.414461 A    
C42   C48   1.413558 A    
C42   N36   1.437036 S    
C27   C33   1.403420 A    
N5    C53   1.355483 A    
N26   O29   1.301290 A    
C40   C46   1.413558 A    
C26   Cl8   1.764010 S    
O5    Cr5   2.075482 S    
N48   O73   1.301377 A    
O11   C5    1.252217 A    
C50   C86   1.469495 S    
O8    C2    1.252225 A    
O23   Cr5   1.957161 S    
C44   N26   1.436522 S    
N20   C50   1.357760 A    
C74   C80   1.403288 A    
C77   N41   1.431185 S    
C61   Cl13  1.769998 S    
N5    N11   1.330464 A    
C14   C44   1.415843 A    
Cr3   O25   1.966588 S    
C66   C72   1.404464 A    
C1    C14   1.478287 S    
C53   C89   1.469500 S    
C47   N29   1.436524 S    
N29   O36   1.301168 A    
O23   C11   1.254047 A    
C31   C55   1.464131 S    
O17   Cr5   2.087534 S    
O24   C12   1.254047 A    
C76   N40   1.431185 S    
O4    Cr4   2.075489 S    
C48   N30   1.436523 S    
N32   O41   1.301137 A    
C49   C85   1.469521 S    
N34   O46   1.301236 A    
C61   C67   1.404479 A    
Cr2   O25   1.966588 S    
C21   H3    1.082988 S    
O10   C4    1.252216 A    
C15   C21   1.403186 A    
N24   C54   1.357761 A    
C70   C94   1.416622 A    
N4    C52   1.355484 A    
N11   C59   1.357805 A    
C82   C88   1.406224 A    
C38   C44   1.413558 A    
N10   C58   1.357806 A    
N14   C56   1.353719 A    
N46   O69   1.301376 A    
N41   O60   1.300746 A    
C79   C85   1.406215 A    
C43   N25   1.436571 S    
C25   C31   1.403437 A    
C66   Cl18  1.769995 S    
C18   C24   1.403187 A    
C65   Cl17  1.769995 S    
C81   N45   1.439078 S    
N31   O39   1.301354 A    
N19   C49   1.357755 A    
N30   O38   1.301168 A    
C82   N46   1.439078 S    
C73   C91   1.419533 A    
O18   Cr6   2.087554 S    
N2    C50   1.355482 A    
O22   C10   1.254053 A    
N33   O43   1.301137 A    
C34   C40   1.414462 A    
Cr4   O26   1.966588 S    
C67   C91   1.416627 A    
C8    C94   1.490167 S    
N36   O49   1.301134 A    
O17   C12   1.254461 A    
O6    Cr6   2.075466 S    
O11   Cr5   1.970384 S    
O12   C6    1.252217 A    
N21   C51   1.357760 A    
N1    N7    1.330471 A    
O18   C10   1.254455 A    
O24   Cr6   1.957150 S    
C16   C46   1.415846 A    
C79   N43   1.439091 S    
O1    C2    1.246715 A    
C2    C15   1.478291 S    
C54   C90   1.469504 S    
C22   C28   1.386119 A    
C51   C87   1.469481 S    
N40   O57   1.300728 A    
N18   N24   1.328779 A    
C38   N32   1.437035 S    
C17   C47   1.415845 A    
O9    C3    1.252231 A    
N32   O42   1.301234 A    
O1    Cr1   2.075470 S    
N33   O44   1.301233 A    
C45   N27   1.436527 S    
