data_mof_unit_32482.cif
_audit_creation_date              2012-12-10T20:00:27-0500
_audit_creation_method            fapswitch 2.2
_symmetry_space_group_name_H-M    P1
_symmetry_Int_Tables_number       1
_space_group_crystal_system       triclinic
_cell_length_a                    15.021354
_cell_length_b                    14.180214
_cell_length_c                    15.847953
_cell_angle_alpha                 90.424485
_cell_angle_beta                  92.129417
_cell_angle_gamma                 90.180801
_cell_volume                      3373.26574088

loop_
_atom_site_label
_atom_site_type_symbol
_atom_type_description
_atom_site_fract_x
_atom_site_fract_y
_atom_site_fract_z
_atom_type_partial_charge
C1    C     C_R   0.327653 0.499632 0.506166 0.920474
C2    C     C_R   0.672113 0.499715 0.493294 0.933895
C3    C     C_R   0.046998 0.470623 0.506247 -0.072815
C4    C     C_R   0.950270 0.467923 0.510588 -0.079787
C5    C     C_R   0.472847 0.104527 0.426883 0.268611
C6    C     C_R   0.571706 0.895879 0.535290 0.270231
C7    C     C_R   0.523907 0.105688 0.573536 0.269498
C8    C     C_R   0.426409 0.893638 0.464081 0.249203
C9    C     C_R   0.467637 0.203890 0.430619 0.370514
C10   C     C_R   0.566040 0.796661 0.542833 0.400770
C11   C     C_R   0.531333 0.204797 0.569522 0.377593
C12   C     C_R   0.434433 0.794150 0.455283 0.413100
C13   C     C_R   0.498060 0.053223 0.500235 -0.136488
C14   C     C_R   0.498551 0.946494 0.500061 -0.141331
C15   C     C_R   0.501712 0.499512 0.339494 0.873638
C16   C     C_R   0.499138 0.500303 0.660664 0.883902
C17   C     C_R   0.512158 0.585957 0.958358 -0.082661
C18   C     C_R   0.505974 0.410764 0.043530 -0.096042
C19   C     C_R   0.524157 0.583782 0.046510 -0.084997
C20   C     C_R   0.501179 0.412202 0.954918 -0.095819
C21   C     C_R   0.504453 0.499778 0.913366 -0.054105
C22   C     C_R   0.515447 0.496885 0.088172 -0.057767
C23   C     C_1   0.499551 0.500780 0.823823 0.052295
C24   C     C_1   0.513655 0.496603 0.177403 0.058992
C25   C     C_1   0.508633 0.497838 0.251831 -0.075993
C26   C     C_1   0.498413 0.500864 0.748941 -0.080035
C27   C     C_R   0.085799 0.551806 0.472180 0.399324
C28   C     C_R   0.900688 0.399993 0.464415 0.389316
C29   C     C_R   0.908795 0.546893 0.545653 0.407479
C30   C     C_R   0.099480 0.401051 0.545328 0.406279
C31   C     C_R   0.175836 0.569948 0.488350 -0.190117
C32   C     C_R   0.808231 0.411264 0.454276 -0.182456
C33   C     C_R   0.822776 0.569399 0.516934 -0.207701
C34   C     C_R   0.192242 0.412133 0.549841 -0.175999
C35   C     C_R   0.231138 0.495944 0.518035 -0.314813
C36   C     C_R   0.768594 0.495991 0.483445 -0.303406
N1    N     N_R   0.500000 0.252470 0.500000 -0.208441
N2    N     N_R   0.500000 0.747530 0.500000 -0.188832
O1    O     O_R   0.369060 0.579480 0.500010 -0.552398
O2    O     O_R   0.630940 0.420520 0.499990 -0.628832
O3    O     O_R   0.630940 0.579480 0.499990 -0.550176
O4    O     O_R   0.369060 0.420520 0.500010 -0.625526
O5    O     O_R   0.499980 0.579460 0.378020 -0.597136
O6    O     O_R   0.500020 0.420540 0.621980 -0.532528
O7    O     O_R   0.500020 0.579460 0.621980 -0.625144
O8    O     O_R   0.499980 0.420540 0.378020 -0.538370
Zn1   Zn    Zn3+2 0.500000 0.606140 0.500000 1.051451
Zn2   Zn    Zn3+2 0.500000 0.393860 0.500000 1.038843
C37   C     C_2   0.554226 0.670895 0.093368 0.965190
O9    O     O_2   0.525509 0.690335 0.162491 -0.660524
O10   O     O_R   0.617231 0.730073 0.057920 -0.801063
H1    H     H_    0.633910 0.785880 0.095596 0.342431
C38   C     C_2   0.485188 0.322990 0.906082 0.978708
O11   O     O_2   0.529875 0.304283 0.845293 -0.621828
O12   O     O_R   0.418501 0.260669 0.929948 -0.794564
H2    H     H_    0.413723 0.202938 0.891991 0.346072
C39   C     C_2   0.499410 0.678578 0.915146 0.962433
O13   O     O_2   0.528751 0.691961 0.845441 -0.688077
O14   O     O_R   0.452321 0.750439 0.954559 -0.804396
H3    H     H_    0.448260 0.809823 0.919492 0.343888
C40   C     C_2   0.507385 0.318953 0.089081 0.979649
O15   O     O_2   0.461160 0.307203 0.150008 -0.627689
O16   O     O_R   0.562019 0.245967 0.061867 -0.795344
H4    H     H_    0.557010 0.187206 0.097425 0.344341
O17   O     O_3   0.032837 0.621407 0.435548 -0.577285
C41   C     C_3   0.014597 0.597658 0.350037 0.099080
H5    H     H_    0.969834 0.535232 0.345187 0.103964
H6    H     H_    0.077234 0.582704 0.316686 0.136751
C42   C     C_3   0.967241 0.680380 0.306852 -0.278239
H7    H     H_    0.905341 0.696850 0.340267 0.240221
H8    H     H_    0.011283 0.743547 0.310269 0.243322
C43   C     C_3   0.943157 0.657778 0.214513 -0.954076
H9    H     H_    0.004267 0.642602 0.179498 0.264001
H10   H     H_    0.908866 0.719160 0.184984 0.274804
H11   H     H_    0.897771 0.595790 0.209787 0.271319
O18   O     O_3   0.942121 0.320641 0.433033 -0.565885
C44   C     C_3   0.956173 0.331997 0.345994 0.099046
H12   H     H_    0.017340 0.374663 0.338058 0.124230
H13   H     H_    0.899498 0.367587 0.311835 0.121029
C45   C     C_3   0.968501 0.234792 0.305969 -0.285687
H14   H     H_    0.028606 0.200723 0.334978 0.227368
H15   H     H_    0.909845 0.189750 0.318515 0.243303
C46   C     C_3   0.978112 0.241545 0.210659 -0.971051
H16   H     H_    0.034688 0.288377 0.195811 0.270198
H17   H     H_    0.916015 0.269831 0.180317 0.277070
H18   H     H_    0.990526 0.170297 0.184153 0.271030
O19   O     O_3   0.958921 0.611403 0.593300 -0.570196
C47   C     C_3   0.942235 0.597121 0.679338 0.108007
H19   H     H_    0.975843 0.531682 0.701546 0.107294
H20   H     H_    0.869448 0.591536 0.690437 0.124204
C48   C     C_3   0.980000 0.680452 0.730888 -0.280244
H21   H     H_    0.052894 0.685977 0.721991 0.231936
H22   H     H_    0.948117 0.746725 0.708310 0.249072
C49   C     C_3   0.963348 0.668999 0.824663 -0.980253
H23   H     H_    0.890717 0.664617 0.835037 0.271755
H24   H     H_    0.991112 0.730759 0.860301 0.273352
H25   H     H_    0.996244 0.604145 0.849123 0.270315
O20   O     O_3   0.060392 0.319913 0.575330 -0.568410
C50   C     C_3   0.046652 0.330247 0.662580 0.105654
H26   H     H_    0.985653 0.372405 0.671617 0.127669
H27   H     H_    0.103853 0.365472 0.697125 0.125281
C51   C     C_3   0.033793 0.232593 0.700404 -0.292835
H28   H     H_    0.974093 0.198328 0.669892 0.229409
H29   H     H_    0.092756 0.188198 0.687804 0.241868
C52   C     C_3   0.022454 0.238465 0.795598 -0.970077
H30   H     H_    0.083696 0.267806 0.827441 0.277265
H31   H     H_    0.010395 0.166785 0.820571 0.271574
H32   H     H_    0.964982 0.283988 0.810320 0.269588
C53   C     C_2   0.206322 0.669334 0.483399 1.086106
O21   O     O_2   0.250331 0.704180 0.542215 -0.630312
O22   O     O_R   0.178111 0.725485 0.415446 -0.805631
H33   H     H_    0.199206 0.793133 0.421441 0.343497
C54   C     C_2   0.755878 0.337331 0.407164 0.975650
O23   O     O_2   0.701010 0.359814 0.352037 -0.629277
O24   O     O_R   0.770332 0.242146 0.425051 -0.811095
H34   H     H_    0.729786 0.198950 0.389648 0.311864
C55   C     C_2   0.798785 0.670725 0.507410 1.065889
O25   O     O_2   0.750416 0.695710 0.447978 -0.629236
O26   O     O_R   0.838505 0.738860 0.560723 -0.793970
H35   H     H_    0.821710 0.805356 0.544238 0.331566
C56   C     C_2   0.246067 0.338376 0.594149 0.975576
O27   O     O_2   0.302334 0.361037 0.648371 -0.626529
O28   O     O_R   0.231072 0.243140 0.575043 -0.809935
H36   H     H_    0.272529 0.200064 0.608706 0.311356
O29   O     O_3   0.447863 0.059199 0.352154 -0.573758
C57   C     C_3   0.524741 0.039157 0.306910 0.118800
H37   H     H_    0.563876 0.982449 0.338990 0.113513
H38   H     H_    0.567441 0.103156 0.300795 0.143843
C58   C     C_3   0.496107 0.004733 0.218447 -0.303003
H39   H     H_    0.450409 0.943372 0.223242 0.224094
H40   H     H_    0.459702 0.062017 0.184485 0.241828
C59   C     C_3   0.576229 0.975440 0.168142 -0.954641
H41   H     H_    0.622639 0.035881 0.161784 0.264933
H42   H     H_    0.553272 0.951481 0.104080 0.284224
H43   H     H_    0.612112 0.916612 0.200233 0.267592
O30   O     O_3   0.647164 0.942180 0.566847 -0.577852
C60   C     C_3   0.702449 0.963242 0.499280 0.088904
H44   H     H_    0.668587 0.011831 0.453714 0.109963
H45   H     H_    0.720827 0.897504 0.465253 0.162360
C61   C     C_3   0.786894 0.012529 0.534128 -0.329612
H46   H     H_    0.769481 0.083977 0.557451 0.231272
H47   H     H_    0.816127 0.972120 0.588129 0.219632
C62   C     C_3   0.856391 0.021607 0.466755 -0.898797
H48   H     H_    0.880498 0.950740 0.448113 0.257014
H49   H     H_    0.913901 0.063667 0.492270 0.282029
H50   H     H_    0.827704 0.057472 0.410037 0.269853
O31   O     O_3   0.545635 0.061884 0.649173 -0.571190
C63   C     C_3   0.466603 0.041212 0.690980 0.128218
H51   H     H_    0.434818 0.976947 0.662582 0.115671
H52   H     H_    0.418320 0.100991 0.687723 0.129675
C64   C     C_3   0.489950 0.022053 0.783841 -0.300432
H53   H     H_    0.538886 0.963584 0.788784 0.223724
H54   H     H_    0.520842 0.086224 0.813272 0.255081
C65   C     C_3   0.407319 0.995319 0.831605 -0.977143
H55   H     H_    0.356311 0.051665 0.825848 0.268199
H56   H     H_    0.425782 0.985907 0.899501 0.277949
H57   H     H_    0.378514 0.928230 0.806116 0.269990
O32   O     O_3   0.349856 0.938240 0.434264 -0.595987
C66   C     C_3   0.294696 0.957185 0.502517 0.082557
H58   H     H_    0.328875 0.004090 0.550120 0.113529
H59   H     H_    0.275277 0.890349 0.533433 0.177090
C67   C     C_3   0.210899 0.007788 0.469399 -0.322882
H60   H     H_    0.229562 0.078672 0.446178 0.232881
H61   H     H_    0.179782 0.967265 0.415675 0.222040
C68   C     C_3   0.143034 0.018914 0.538085 -0.893992
H62   H     H_    0.118323 0.948661 0.557363 0.264476
H63   H     H_    0.085662 0.061036 0.513530 0.279865
H64   H     H_    0.173443 0.055720 0.594161 0.266661
O33   O     O_3   0.433057 0.252778 0.362090 -0.559392
C69   C     C_3   0.339094 0.249446 0.363294 0.160350
H65   H     H_    0.314352 0.259700 0.428226 0.147533
H66   H     H_    0.314698 0.180202 0.338171 0.165734
C70   C     C_3   0.300421 0.327764 0.307445 -0.291395
H67   H     H_    0.326330 0.397269 0.329991 0.215371
H68   H     H_    0.320671 0.316749 0.241479 0.269140
C71   C     C_3   0.199176 0.328950 0.308803 -1.027924
H69   H     H_    0.171924 0.260771 0.284465 0.281221
H70   H     H_    0.172895 0.386754 0.268187 0.261160
H71   H     H_    0.177157 0.340790 0.374123 0.281970
O34   O     O_3   0.632116 0.748050 0.586961 -0.598337
C72   C     C_3   0.626241 0.764257 0.674986 0.166171
H72   H     H_    0.600105 0.699186 0.703469 0.197883
H73   H     H_    0.581299 0.823490 0.692190 0.138538
C73   C     C_3   0.719308 0.783669 0.713812 -0.352487
H74   H     H_    0.762869 0.722396 0.701662 0.236498
H75   H     H_    0.747893 0.847043 0.684094 0.258218
C74   C     C_3   0.717830 0.799931 0.809008 -0.880455
H76   H     H_    0.671108 0.857612 0.824212 0.274018
H77   H     H_    0.785598 0.820003 0.833305 0.257497
H78   H     H_    0.697801 0.734294 0.841068 0.295955
O35   O     O_3   0.566246 0.254454 0.638249 -0.554767
C75   C     C_3   0.660171 0.250118 0.637614 0.157261
H79   H     H_    0.685518 0.259393 0.572881 0.144846
H80   H     H_    0.683240 0.180921 0.662652 0.166720
C76   C     C_3   0.699655 0.328732 0.694021 -0.289410
H81   H     H_    0.675623 0.398233 0.670940 0.214548
H82   H     H_    0.677880 0.319392 0.759627 0.266724
C77   C     C_3   0.801046 0.328119 0.694308 -1.027575
H83   H     H_    0.824491 0.338452 0.629411 0.282066
H84   H     H_    0.826588 0.259946 0.719023 0.281198
H85   H     H_    0.827845 0.386199 0.735309 0.258997
O36   O     O_3   0.373494 0.741522 0.406773 -0.590400
C78   C     C_3   0.371432 0.771661 0.321694 0.136834
H86   H     H_    0.439601 0.786923 0.299467 0.148865
H87   H     H_    0.329620 0.835702 0.314606 0.192009
C79   C     C_3   0.329664 0.694328 0.264923 -0.332034
H88   H     H_    0.376778 0.634803 0.260165 0.231846
H89   H     H_    0.267994 0.666939 0.292549 0.243641
C80   C     C_3   0.306482 0.730908 0.176446 -0.887993
H90   H     H_    0.252954 0.784599 0.179147 0.255062
H91   H     H_    0.282457 0.671614 0.135392 0.265999
H92   H     H_    0.365722 0.763146 0.148172 0.302941

loop_
_geom_bond_atom_site_label_1
_geom_bond_atom_site_label_2
_ccdc_geom_bond_type
C62   H50   S    
C41   H6    S    
C78   H86   S    
C33   C55   S    
C57   H37   S    
C42   C43   S    
O33   C69   S    
C38   O12   S    
C9    O33   S    
O31   C63   S    
C61   C62   S    
O19   C47   S    
C8    O32   S    
C80   H92   S    
O28   H36   S    
C70   H67   S    
C29   O19   S    
C7    C11   A    
C78   H87   S    
C68   H62   S    
C46   H16   S    
C32   C36   A    
C61   H47   S    
C54   O23   D    
C55   O26   S    
C79   H89   S    
C64   C65   S    
C41   C42   S    
C48   H22   S    
C69   H65   S    
C2    O3    A    
C62   H48   S    
C29   C33   A    
C33   C36   A    
C73   H74   S    
C51   C52   S    
C42   H8    S    
C34   C35   A    
C23   C26   T    
C11   N1    A    
C74   H78   S    
C6    O30   S    
C17   C19   A    
C71   H71   S    
C62   H49   S    
C66   H58   S    
C59   H41   S    
C37   O10   S    
C57   H38   S    
C64   H53   S    
C66   H59   S    
C77   H83   S    
C12   O36   S    
C32   C54   S    
C16   O6    A    
C65   H56   S    
C4    C29   A    
C43   H9    S    
C76   C77   S    
C47   H19   S    
C40   O15   D    
C70   H68   S    
C41   H5    S    
O14   H3    S    
C68   H63   S    
C13   C14   S    
C51   H28   S    
C77   H85   S    
C43   H11   S    
C9    N1    A    
C52   H32   S    
C7    O31   S    
O7    Zn1   S    
C16   C26   S    
C78   C79   S    
O8    Zn2   S    
C66   C67   S    
C56   O28   S    
O36   C78   S    
C30   C34   A    
O16   H4    S    
C27   C31   A    
O10   H1    S    
C75   C76   S    
C28   C32   A    
C19   C22   A    
O6    Zn2   S    
C24   C25   T    
C65   H57   S    
C43   H10   S    
C72   H73   S    
C48   H21   S    
C79   H88   S    
C20   C38   S    
C49   H25   S    
C44   H12   S    
C17   C21   A    
O35   C75   S    
C54   O24   S    
C75   H80   S    
C72   H72   S    
C3    C30   A    
C49   H24   S    
C5    C9    A    
C27   O17   S    
C52   H31   S    
C6    C14   A    
C67   C68   S    
C60   H45   S    
C19   C37   S    
C50   H26   S    
C47   C48   S    
C8    C12   A    
C46   H18   S    
O12   H2    S    
C40   O16   S    
C80   H90   S    
O3    Zn1   S    
C44   H13   S    
C49   H23   S    
O4    Zn2   S    
O18   C44   S    
N1    Zn2   S    
C51   H29   S    
C65   H55   S    
C56   O27   D    
C45   H15   S    
C71   H69   S    
C46   H17   S    
C47   H20   S    
C37   O9    D    
C34   C56   S    
C21   C23   S    
O32   C66   S    
C22   C24   S    
O17   C41   S    
C3    C4    S    
C28   O18   S    
O34   C72   S    
C1    C35   S    
O1    Zn1   S    
C67   H60   S    
C60   H44   S    
C44   C45   S    
C2    C36   S    
O2    Zn2   S    
C8    C14   A    
C72   C73   S    
O22   H33   S    
C50   H27   S    
C18   C22   A    
C31   C53   S    
C63   H52   S    
C45   H14   S    
C16   O7    A    
C6    C10   A    
C18   C20   A    
C70   C71   S    
O26   H35   S    
C18   C40   S    
C38   O11   D    
C68   H64   S    
C52   H30   S    
C30   O20   S    
C57   C58   S    
C73   C74   S    
N2    Zn1   S    
C10   N2    A    
C10   O34   S    
C75   H79   S    
C58   C59   S    
C53   O22   S    
C58   H39   S    
C15   O5    A    
C74   H76   S    
C63   C64   S    
C67   H61   S    
C55   O25   D    
C48   C49   S    
C79   C80   S    
C39   O13   D    
O29   C57   S    
C69   H66   S    
C59   H43   S    
C61   H46   S    
C60   C61   S    
C5    C13   A    
C31   C35   A    
C3    C27   A    
C45   C46   S    
C80   H91   S    
C73   H75   S    
C11   O35   S    
C63   H51   S    
C64   H54   S    
C12   N2    A    
C42   H7    S    
C74   H77   S    
C39   O14   S    
C1    O1    A    
C76   H81   S    
C2    O2    A    
C1    O4    A    
C7    C13   A    
C50   C51   S    
C20   C21   A    
C15   C25   S    
C59   H42   S    
O20   C50   S    
C4    C28   A    
C5    O29   S    
O30   C60   S    
C77   H84   S    
C15   O8    A    
C58   H40   S    
C53   O21   D    
O5    Zn1   S    
O24   H34   S    
C17   C39   S    
C71   H70   S    
C76   H82   S    
C69   C70   S    
