data_mof_unit_33801.cif
_audit_creation_date              2012-12-10T20:08:38-0500
_audit_creation_method            fapswitch 2.2
_symmetry_space_group_name_H-M    P1
_symmetry_Int_Tables_number       1
_space_group_crystal_system       triclinic
_cell_length_a                    18.732102
_cell_length_b                    18.520968
_cell_length_c                    15.065397
_cell_angle_alpha                 89.944647
_cell_angle_beta                  90.609975
_cell_angle_gamma                 90.165667
_cell_volume                      5226.41821524

loop_
_atom_site_label
_atom_site_type_symbol
_atom_type_description
_atom_site_fract_x
_atom_site_fract_y
_atom_site_fract_z
_atom_type_partial_charge
C1    C     C_R   0.364911 0.499827 0.498472 0.889224
C2    C     C_R   0.634983 0.500189 0.498131 0.886160
C3    C     C_R   0.446511 0.619635 0.044273 -0.185237
C4    C     C_R   0.562282 0.384304 0.954241 -0.187558
C5    C     C_R   0.761095 0.472791 0.528331 -0.366593
C6    C     C_R   0.238970 0.522864 0.533610 -0.364028
C7    C     C_R   0.270940 0.478542 0.387979 -0.396455
C8    C     C_R   0.726067 0.527710 0.388433 -0.401207
C9    C     C_R   0.831920 0.470436 0.500573 0.460228
C10   C     C_R   0.167354 0.526942 0.506804 0.465302
C11   C     C_R   0.199543 0.480933 0.360148 0.440669
C12   C     C_R   0.797229 0.528505 0.359645 0.474731
C13   C     C_R   0.849608 0.499663 0.416970 0.054843
C14   C     C_R   0.148239 0.505712 0.419898 0.062387
C15   C     C_R   0.708914 0.500940 0.472371 -0.114658
C16   C     C_R   0.290163 0.499371 0.474147 -0.111365
C17   C     C_R   0.960687 0.569660 0.391800 0.381114
C18   C     C_R   0.036915 0.438619 0.389507 0.330056
C19   C     C_R   0.035510 0.570606 0.386962 0.302511
C20   C     C_R   0.962472 0.437486 0.383728 0.343403
C21   C     C_R   0.072906 0.505052 0.394152 -0.138778
C22   C     C_R   0.924907 0.502594 0.392552 -0.132664
C23   C     C_R   0.550932 0.726249 0.453718 0.581549
C24   C     C_R   0.452667 0.274475 0.446421 0.583230
C25   C     C_R   0.448745 0.725912 0.545665 0.574011
C26   C     C_R   0.547646 0.273736 0.552084 0.569309
C27   C     C_R   0.548251 0.802472 0.448350 -0.342250
C28   C     C_R   0.454408 0.198107 0.442434 -0.344475
C29   C     C_R   0.450069 0.802110 0.549177 -0.344221
C30   C     C_R   0.544874 0.197659 0.556390 -0.344784
C31   C     C_R   0.498911 0.841483 0.498406 0.104934
C32   C     C_R   0.499253 0.158699 0.499597 0.104976
C33   C     C_R   0.500215 0.500048 0.326549 0.923012
C34   C     C_R   0.500301 0.500012 0.673271 0.950323
C35   C     C_R   0.434298 0.961927 0.491392 0.361645
C36   C     C_R   0.563967 0.038268 0.500676 0.362459
C37   C     C_R   0.563686 0.962128 0.505740 0.361439
C38   C     C_R   0.434188 0.038071 0.496976 0.360551
C39   C     C_R   0.499127 0.077368 0.499114 -0.211266
C40   C     C_R   0.498947 0.922821 0.498447 -0.211324
C41   C     C_R   0.537999 0.445780 0.815130 0.399753
C42   C     C_R   0.473045 0.560234 0.184145 0.411297
C43   C     C_R   0.501058 0.500262 0.768933 -0.329342
C44   C     C_R   0.501221 0.500321 0.230582 -0.319844
C45   C     C_R   0.465419 0.555523 0.814316 0.397875
C46   C     C_R   0.530539 0.440884 0.185188 0.413724
C47   C     C_R   0.470832 0.558809 0.906473 0.001484
C48   C     C_R   0.531104 0.441294 0.092711 0.010052
C49   C     C_R   0.502740 0.501092 0.953264 -0.019501
C50   C     C_R   0.502876 0.501100 0.046095 -0.031416
C51   C     C_R   0.534215 0.443221 0.907351 0.000126
C52   C     C_R   0.474309 0.560710 0.091780 0.004274
C53   C     C_R   0.443647 0.618123 0.952500 -0.189741
C54   C     C_R   0.559536 0.382734 0.045982 -0.184763
H1    H     H_    0.420275 0.663684 0.917793 0.187731
H2    H     H_    0.580661 0.335755 0.079943 0.184049
H3    H     H_    0.425372 0.666563 0.077679 0.185197
H4    H     H_    0.585671 0.338790 0.920183 0.188218
H5    H     H_    0.746858 0.454301 0.593855 0.140885
H6    H     H_    0.254730 0.536964 0.600562 0.140189
H7    H     H_    0.311875 0.461948 0.342202 0.162090
H8    H     H_    0.683080 0.547067 0.346369 0.176952
H9    H     H_    0.585121 0.830958 0.405940 0.200491
H10   H     H_    0.421226 0.169722 0.394694 0.199575
H11   H     H_    0.413020 0.830206 0.591480 0.201914
H12   H     H_    0.578957 0.169385 0.603205 0.203555
N1    N     N_R   0.500000 0.689440 0.500000 -0.171394
N2    N     N_R   0.500000 0.310560 0.500000 -0.173702
O1    O     O_R   0.398180 0.560840 0.499980 -0.587342
O2    O     O_R   0.601820 0.439160 0.500020 -0.593028
O3    O     O_R   0.601820 0.560840 0.500020 -0.586448
O4    O     O_R   0.398180 0.439160 0.499980 -0.594604
O5    O     O_R   0.499980 0.560820 0.367840 -0.557785
O6    O     O_R   0.500020 0.439180 0.632160 -0.561500
O7    O     O_R   0.500020 0.560820 0.632160 -0.562516
O8    O     O_R   0.499980 0.439180 0.367840 -0.545154
Zn1   Zn    Zn3+2 0.500000 0.581210 0.500000 1.040545
Zn2   Zn    Zn3+2 0.500000 0.418790 0.500000 1.041126
O9    O     O_3   0.577716 0.394870 0.770225 -0.547932
C55   C     C_3   0.648634 0.420454 0.764826 -0.250107
H13   H     H_    0.652490 0.464299 0.714632 0.139933
H14   H     H_    0.683292 0.375410 0.743880 0.195982
H15   H     H_    0.670131 0.439481 0.830021 0.129182
O10   O     O_3   0.447535 0.620205 0.228790 -0.575991
C56   C     C_3   0.374164 0.610387 0.245343 -0.305641
H16   H     H_    0.352722 0.661102 0.273539 0.182266
H17   H     H_    0.365970 0.567257 0.295132 0.165234
H18   H     H_    0.343162 0.598221 0.183660 0.148736
O11   O     O_3   0.369787 0.926030 0.482847 -0.583457
C57   C     C_3   0.354918 0.916419 0.391705 -0.262644
H19   H     H_    0.350955 0.969132 0.356416 0.176915
H20   H     H_    0.302540 0.888878 0.384599 0.175698
H21   H     H_    0.395646 0.881567 0.359935 0.152003
O12   O     O_3   0.628794 0.074145 0.501312 -0.583792
C58   C     C_3   0.649840 0.084997 0.412735 -0.265531
H22   H     H_    0.610748 0.119074 0.375684 0.151416
H23   H     H_    0.657608 0.032674 0.377878 0.177173
H24   H     H_    0.701731 0.114007 0.413067 0.175685
O13   O     O_3   0.628149 0.926439 0.513854 -0.584159
C59   C     C_3   0.643078 0.916081 0.604865 -0.262247
H25   H     H_    0.601468 0.882181 0.636911 0.150247
H26   H     H_    0.648755 0.968596 0.640172 0.178099
H27   H     H_    0.694605 0.887108 0.611528 0.176452
O14   O     O_3   0.369486 0.073810 0.495944 -0.583525
C60   C     C_3   0.347698 0.083742 0.584344 -0.259559
H28   H     H_    0.386700 0.117352 0.622419 0.149240
H29   H     H_    0.339235 0.031056 0.618336 0.177916
H30   H     H_    0.296011 0.112838 0.583680 0.177275
O15   O     O_3   0.425947 0.606853 0.768536 -0.552671
C61   C     C_3   0.354797 0.581966 0.761899 -0.245558
H31   H     H_    0.321329 0.625688 0.733701 0.203783
H32   H     H_    0.332218 0.568294 0.827943 0.132268
H33   H     H_    0.350877 0.534583 0.716800 0.134179
O16   O     O_3   0.553366 0.379815 0.230654 -0.567182
C62   C     C_3   0.626433 0.387418 0.252234 -0.306083
H34   H     H_    0.659581 0.394241 0.191953 0.142530
H35   H     H_    0.644584 0.337587 0.286457 0.187320
H36   H     H_    0.635330 0.432984 0.298699 0.156878
O17   O     O_3   0.886123 0.448439 0.558118 -0.654710
C63   C     C_3   0.874907 0.377070 0.589068 0.151597
H37   H     H_    0.923120 0.345126 0.572951 0.163151
H38   H     H_    0.828966 0.348404 0.556908 0.121441
C64   C     C_3   0.866559 0.377659 0.689989 -0.382096
H39   H     H_    0.915264 0.401485 0.721104 0.237507
H40   H     H_    0.820235 0.411513 0.708452 0.208480
C65   C     C_3   0.855545 0.301564 0.726331 -0.982927
H41   H     H_    0.806285 0.277174 0.697517 0.260628
H42   H     H_    0.850010 0.303879 0.799579 0.271111
H43   H     H_    0.902013 0.266985 0.710318 0.268133
O18   O     O_3   0.114305 0.544177 0.566815 -0.651811
C66   C     C_3   0.124720 0.614175 0.602609 0.137563
H44   H     H_    0.074732 0.645012 0.591721 0.158959
H45   H     H_    0.167745 0.646136 0.570117 0.118640
C67   C     C_3   0.138281 0.609084 0.702767 -0.370713
H46   H     H_    0.091189 0.583890 0.734847 0.235639
H47   H     H_    0.185375 0.574536 0.716727 0.208341
C68   C     C_3   0.151342 0.683512 0.743207 -0.989463
H48   H     H_    0.199199 0.709032 0.713408 0.261821
H49   H     H_    0.160552 0.678071 0.815830 0.269657
H50   H     H_    0.104247 0.718763 0.731756 0.268144
O19   O     O_3   0.179180 0.466535 0.273042 -0.655238
C69   C     C_3   0.201348 0.396884 0.247247 0.113027
H51   H     H_    0.192851 0.356429 0.300973 0.163450
H52   H     H_    0.258652 0.398010 0.228716 0.136939
C70   C     C_3   0.157314 0.373397 0.166377 -0.310536
H53   H     H_    0.099702 0.373666 0.183372 0.228600
H54   H     H_    0.165869 0.412202 0.111136 0.218659
C71   C     C_3   0.178046 0.297824 0.135943 -0.977646
H55   H     H_    0.235283 0.296528 0.117461 0.269261
H56   H     H_    0.145266 0.282452 0.077065 0.265965
H57   H     H_    0.168441 0.257927 0.189655 0.266663
O20   O     O_3   0.818530 0.550809 0.275200 -0.646668
C72   C     C_3   0.773828 0.603088 0.234697 0.140690
H58   H     H_    0.808739 0.641213 0.198141 0.163653
H59   H     H_    0.744769 0.637243 0.282856 0.138191
C73   C     C_3   0.723509 0.567149 0.166903 -0.403933
H60   H     H_    0.755338 0.545582 0.111059 0.226893
H61   H     H_    0.695112 0.521156 0.197682 0.213915
C74   C     C_3   0.668374 0.620326 0.130738 -0.920589
H62   H     H_    0.633474 0.639376 0.185058 0.289801
H63   H     H_    0.634593 0.593206 0.079698 0.268759
H64   H     H_    0.695295 0.667375 0.099733 0.259421
O21   O     O_3   0.921231 0.633017 0.387713 -0.618069
C75   C     C_3   0.929313 0.674488 0.466199 0.113367
H65   H     H_    0.913320 0.730642 0.449550 0.163952
H66   H     H_    0.985201 0.677842 0.490768 0.167712
C76   C     C_3   0.880926 0.646680 0.540198 -0.399936
H67   H     H_    0.825653 0.639523 0.514123 0.229553
H68   H     H_    0.901195 0.593881 0.564272 0.252420
C77   C     C_3   0.879755 0.698808 0.618488 -0.962912
H69   H     H_    0.934512 0.706347 0.646089 0.263004
H70   H     H_    0.845172 0.676513 0.671342 0.271559
H71   H     H_    0.858040 0.751920 0.597293 0.262631
O22   O     O_3   0.074854 0.374698 0.392792 -0.647087
C78   C     C_3   0.077281 0.348482 0.480966 0.122733
H72   H     H_    0.032634 0.309651 0.490302 0.165588
H73   H     H_    0.073033 0.391935 0.532106 0.159266
C79   C     C_3   0.148172 0.309445 0.495779 -0.376644
H74   H     H_    0.153309 0.265191 0.446477 0.225267
H75   H     H_    0.192838 0.348162 0.485976 0.223037
C80   C     C_3   0.153745 0.277949 0.589167 -0.958955
H76   H     H_    0.150601 0.321644 0.639431 0.270800
H77   H     H_    0.205720 0.249895 0.597377 0.261007
H78   H     H_    0.110045 0.238411 0.600342 0.262884
O23   O     O_3   0.071960 0.635745 0.387399 -0.629327
C81   C     C_3   0.104591 0.648002 0.304346 0.141245
H79   H     H_    0.072157 0.687910 0.266489 0.148712
H80   H     H_    0.109015 0.598870 0.261861 0.118872
C82   C     C_3   0.180043 0.678191 0.318810 -0.369301
H81   H     H_    0.213080 0.638258 0.355698 0.213985
H82   H     H_    0.205105 0.687361 0.253202 0.168918
C83   C     C_3   0.179893 0.749174 0.370246 -0.822221
H83   H     H_    0.147410 0.790212 0.334462 0.249367
H84   H     H_    0.235448 0.769599 0.377036 0.221496
H85   H     H_    0.158071 0.740940 0.437775 0.274062
O24   O     O_3   0.926011 0.372321 0.384621 -0.648471
C84   C     C_3   0.925703 0.341385 0.298800 0.101263
H86   H     H_    0.918325 0.282233 0.307046 0.165680
H87   H     H_    0.977165 0.348836 0.263268 0.148819
C85   C     C_3   0.863483 0.370945 0.242820 -0.375290
H88   H     H_    0.813224 0.367479 0.281237 0.229546
H89   H     H_    0.873964 0.428416 0.226555 0.253208
C86   C     C_3   0.854187 0.329123 0.156293 -0.977299
H90   H     H_    0.903626 0.332525 0.116407 0.267046
H91   H     H_    0.809365 0.352590 0.117099 0.266593
H92   H     H_    0.841780 0.271570 0.170277 0.264388
O25   O     O_3   0.603247 0.687661 0.410321 -0.570780
C87   C     C_3   0.671603 0.713526 0.435835 -0.313208
H93   H     H_    0.675161 0.728340 0.507519 0.158867
H94   H     H_    0.687363 0.759966 0.393612 0.167316
H95   H     H_    0.711201 0.670324 0.425714 0.186382
O26   O     O_3   0.407128 0.314273 0.392511 -0.555948
C88   C     C_3   0.336230 0.289178 0.400757 -0.316774
H96   H     H_    0.321979 0.276793 0.470834 0.161782
H97   H     H_    0.326506 0.241643 0.357397 0.166731
H98   H     H_    0.299821 0.332183 0.377827 0.170418
O27   O     O_3   0.398459 0.687294 0.592524 -0.539615
C89   C     C_3   0.329694 0.703554 0.558844 -0.301746
H99   H     H_    0.326766 0.698704 0.485140 0.160791
H100  H     H_    0.312000 0.757926 0.580342 0.161251
H101  H     H_    0.291496 0.664084 0.586317 0.170722
O28   O     O_3   0.597105 0.311918 0.601975 -0.533567
C90   C     C_3   0.666356 0.294327 0.572808 -0.287346
H102  H     H_    0.671014 0.298101 0.499221 0.151854
H103  H     H_    0.682666 0.239942 0.596513 0.161254
H104  H     H_    0.704678 0.333520 0.601478 0.166223

loop_
_geom_bond_atom_site_label_1
_geom_bond_atom_site_label_2
_ccdc_geom_bond_type
C86   H90   S    
C65   H41   S    
O2    Zn2   S    
C18   C21   A    
C12   O20   S    
O1    Zn1   S    
O21   C75   S    
N1    Zn1   S    
C71   H57   S    
O3    Zn1   S    
C66   C67   S    
C67   C68   S    
C70   H53   S    
C24   O26   S    
C58   H24   S    
C89   H99   S    
C64   H39   S    
C78   H73   S    
C56   H16   S    
C48   C54   A    
C18   O22   S    
C86   H91   S    
C57   H21   S    
C14   C21   S    
C75   H65   S    
C19   C21   A    
C71   H56   S    
C48   C50   A    
C37   C40   A    
C85   C86   S    
C38   C39   A    
C55   H13   S    
C11   C14   A    
C45   O15   S    
C79   H75   S    
C80   H78   S    
C77   H69   S    
C62   H34   S    
C31   C40   S    
C82   H82   S    
C32   C39   S    
C23   N1    A    
C84   H87   S    
C9    C13   A    
O22   C78   S    
C7    H7    S    
O4    Zn2   S    
C17   O21   S    
C61   H31   S    
C25   O27   S    
C58   H22   S    
C82   C83   S    
C63   H38   S    
C87   H93   S    
C62   H35   S    
C25   N1    A    
C26   O28   S    
C36   C37   A    
C50   C52   A    
C74   H63   S    
C23   C27   A    
C72   H59   S    
C63   C64   S    
C34   O7    A    
C47   C53   A    
C23   O25   S    
C45   C47   A    
C72   H58   S    
C25   C29   A    
C41   C43   A    
C69   C70   S    
O12   C58   S    
C42   C44   A    
C55   H15   S    
O14   C60   S    
C70   H54   S    
C44   C46   A    
C79   H74   S    
C76   C77   S    
C54   H2    S    
C53   H1    S    
N2    Zn2   S    
C86   H92   S    
C46   C48   A    
C90   H104  S    
C1    O4    A    
C46   O16   S    
C4    C51   A    
C27   C31   A    
O25   C87   S    
C83   H85   S    
C6    H6    S    
C28   C32   A    
C35   C38   A    
C42   O10   S    
O10   C56   S    
C90   H102  S    
C76   H68   S    
C10   C14   A    
C80   H77   S    
C76   H67   S    
C11   O19   S    
C5    H5    S    
C78   C79   S    
C85   H88   S    
C64   C65   S    
C67   H47   S    
C65   H43   S    
C49   C51   A    
O27   C89   S    
C80   H76   S    
C3    H3    S    
C59   H27   S    
C1    O1    A    
C83   H84   S    
C84   C85   S    
C7    C11   A    
C10   O18   S    
C5    C9    A    
C42   C52   A    
C60   H29   S    
C33   O8    A    
C57   H20   S    
C74   H62   S    
C88   H96   S    
C8    C12   A    
C62   H36   S    
C59   H26   S    
C74   H64   S    
C1    C16   S    
C60   H30   S    
C71   H55   S    
C72   C73   S    
C2    C15   S    
C43   C45   A    
C61   H33   S    
C30   H12   S    
C27   H9    S    
C34   O6    A    
C29   H11   S    
C28   H10   S    
C55   H14   S    
C7    C16   A    
C20   C22   A    
C26   C30   A    
C8    C15   A    
C9    O17   S    
C49   C50   A    
C69   H52   S    
C81   H80   S    
C66   H44   S    
C35   O11   S    
C37   O13   S    
C70   C71   S    
C63   H37   S    
C89   H101  S    
C60   H28   S    
C56   H18   S    
C33   O5    A    
C82   H81   S    
C88   H98   S    
C58   H23   S    
C73   H60   S    
C65   H42   S    
C4    C54   A    
C68   H49   S    
C33   C44   S    
C36   C39   A    
C34   C43   S    
C24   C28   A    
O8    Zn2   S    
O24   C84   S    
C66   H45   S    
C41   O9    S    
C38   O14   S    
C3    C52   A    
C90   H103  S    
O16   C62   S    
C67   H46   S    
C73   C74   S    
C47   C49   A    
C68   H48   S    
O23   C81   S    
C17   C22   A    
O13   C59   S    
C89   H100  S    
C26   N2    A    
C83   H83   S    
C81   C82   S    
C75   H66   S    
C35   C40   A    
O11   C57   S    
C88   H97   S    
C29   C31   A    
C78   H72   S    
C2    O2    A    
O15   C61   S    
C19   O23   S    
C30   C32   A    
C3    C53   A    
C57   H19   S    
C77   H70   S    
C87   H95   S    
C68   H50   S    
C73   H61   S    
C59   H25   S    
C17   C19   A    
C20   O24   S    
C13   C22   S    
O18   C66   S    
C18   C20   A    
C75   C76   S    
C84   H86   S    
C61   H32   S    
C5    C15   A    
C79   C80   S    
C64   H40   S    
C6    C10   A    
C24   N2    A    
C6    C16   A    
O9    C55   S    
C36   O12   S    
C56   H17   S    
O26   C88   S    
C87   H94   S    
O17   C63   S    
O6    Zn2   S    
O7    Zn1   S    
C4    H4    S    
O5    Zn1   S    
C69   H51   S    
O20   C72   S    
C12   C13   A    
C81   H79   S    
O19   C69   S    
O28   C90   S    
C41   C51   A    
C85   H89   S    
C2    O3    A    
C8    H8    S    
C77   H71   S    
