data_mof_unit_59622.cif
_audit_creation_date              2012-12-11T15:58:21-0500
_audit_creation_method            fapswitch 2.2
_symmetry_space_group_name_H-M    P1
_symmetry_Int_Tables_number       1
_space_group_crystal_system       triclinic
_cell_length_a                    8.192433
_cell_length_b                    18.760506
_cell_length_c                    18.992615
_cell_angle_alpha                 97.990817
_cell_angle_beta                  94.249769
_cell_angle_gamma                 91.693155
_cell_volume                      2880.41581751

loop_
_atom_site_label
_atom_site_type_symbol
_atom_type_description
_atom_site_fract_x
_atom_site_fract_y
_atom_site_fract_z
_atom_type_partial_charge
Ba1   Ba    Ba6+2 0.152460 0.535140 0.468980 1.682193
Ba2   Ba    Ba6+2 0.657710 0.464850 0.530960 1.685152
C1    C     C_3   0.386131 0.739986 0.217737 0.196869
C2    C     C_3   0.443436 0.734649 0.294768 0.261495
C3    C     C_3   0.517053 0.685034 0.641971 0.303861
C4    C     C_3   0.539966 0.765928 0.665217 -0.406956
C5    C     C_3   0.908379 0.266015 0.670911 0.355668
C6    C     C_3   0.897950 0.189529 0.688659 -0.364306
C7    C     C_3   0.422947 0.307182 0.712301 0.361591
C8    C     C_3   0.437785 0.284000 0.785970 -0.365582
C9    C     C_R   0.001738 0.951357 0.529916 0.004360
C10   C     C_R   0.099907 0.902763 0.561911 0.041140
C11   C     C_R   0.259186 0.924587 0.590808 -0.083821
C12   C     C_3   0.902689 0.733631 0.329458 0.418194
C13   C     C_R   0.319966 0.994520 0.588904 -0.089730
C14   C     C_R   0.222078 0.044120 0.558576 0.031475
C15   C     C_R   0.062785 0.022479 0.528431 0.012858
C16   C     C_R   0.280890 0.115040 0.558901 -0.103148
C17   C     C_R   0.182132 0.166033 0.530490 -0.048309
C18   C     C_R   0.023764 0.143806 0.497790 -0.005969
C19   C     C_R   0.964907 0.071756 0.496919 -0.005420
C20   C     C_R   0.235726 0.238933 0.534739 -0.002163
C21   C     C_R   0.132353 0.288189 0.507560 -0.279991
C22   C     C_R   0.979543 0.266803 0.472319 0.034902
C23   C     C_3   0.913805 0.810158 0.311746 -0.343893
C24   C     C_R   0.924002 0.193382 0.466176 -0.055144
C25   C     C_R   0.843092 0.928902 0.499643 -0.009716
C26   C     C_R   0.783752 0.856928 0.499869 0.008122
C27   C     C_R   0.883993 0.807409 0.531679 -0.050709
C28   C     C_R   0.039305 0.832706 0.563989 -0.051516
C29   C     C_R   0.772038 0.167779 0.429983 -0.056549
C30   C     C_R   0.710744 0.097492 0.432026 0.032709
C31   C     C_R   0.807024 0.049199 0.465729 0.009333
C32   C     C_R   0.745679 0.978041 0.467519 0.012960
C33   C     C_R   0.552995 0.075000 0.401581 -0.082333
C34   C     C_3   0.803383 0.385909 0.312527 0.373684
C35   C     C_R   0.491193 0.005246 0.404512 -0.085221
C36   C     C_R   0.587088 0.956126 0.436822 0.038625
C37   C     C_R   0.625617 0.834567 0.467249 -0.045231
C38   C     C_R   0.527530 0.885323 0.437708 -0.115673
C39   C     C_R   0.572599 0.761556 0.463467 -0.019970
C40   C     C_R   0.675340 0.712637 0.492123 -0.274670
C41   C     C_R   0.827319 0.734111 0.528271 -0.007552
C42   C     C_R   0.611776 0.531064 0.300149 -0.268604
C43   C     C_R   0.466682 0.492128 0.275140 0.024149
C44   C     C_R   0.412493 0.486321 0.202825 -0.116809
C45   C     C_3   0.815282 0.376537 0.231856 -0.392564
C46   C     C_R   0.508409 0.515365 0.154274 0.004380
C47   C     C_R   0.660234 0.550808 0.179989 -0.091557
C48   C     C_R   0.711850 0.557998 0.252807 0.004937
C49   C     C_R   0.475666 0.563834 0.037263 -0.073753
C50   C     C_R   0.419696 0.557016 0.965227 -0.082875
C51   C     C_R   0.339479 0.492917 0.930481 0.058519
C52   C     C_R   0.314361 0.436218 0.970189 -0.075519
C53   C     C_R   0.369363 0.443309 0.042566 -0.076224
C54   C     C_R   0.451075 0.507257 0.077050 0.052067
C55   C     C_R   0.137391 0.448794 0.824557 -0.145735
C56   C     C_3   0.076995 0.711127 0.700649 0.731060
C57   C     C_R   0.089309 0.443907 0.751398 0.009865
C58   C     C_R   0.335734 0.511168 0.733918 0.062120
C59   C     C_R   0.385607 0.515914 0.806318 -0.113356
C60   C     C_R   0.286927 0.485085 0.852818 -0.016668
C61   C     C_R   0.189758 0.474473 0.706652 -0.247296
C62   C     C_3   0.999347 0.781482 0.730952 -0.428704
C63   C     C_3   0.253956 0.320040 0.260657 0.732153
C64   C     C_3   0.369899 0.294252 0.203059 0.311939
H1    H     H_    0.496207 0.680875 0.296703 0.010035
H2    H     H_    0.692693 0.365772 0.203391 0.106069
H3    H     H_    0.868446 0.426268 0.215690 0.068030
H4    H     H_    0.893672 0.331424 0.214134 0.151639
H5    H     H_    0.173382 0.726267 0.667514 0.007431
H6    H     H_    0.943525 0.808366 0.687417 0.049971
H7    H     H_    0.094322 0.818681 0.762438 0.096455
H8    H     H_    0.899573 0.771435 0.765019 0.098144
H9    H     H_    0.175946 0.359964 0.238033 -0.100889
H10   H     H_    0.301008 0.693662 0.195931 0.097438
H11   H     H_    0.419251 0.341297 0.181107 -0.108598
H12   H     H_    0.295060 0.260229 0.158604 -0.030877
H13   H     H_    0.537755 0.778295 0.313261 0.020016
H14   H     H_    0.635553 0.663731 0.626275 0.020646
H15   H     H_    0.424308 0.675328 0.595643 0.051248
H16   H     H_    0.633215 0.777069 0.711056 0.124240
H17   H     H_    0.580397 0.792974 0.620838 0.059549
H18   H     H_    0.423416 0.788939 0.681789 0.109318
H19   H     H_    0.321709 0.790892 0.214788 0.084952
H20   H     H_    0.876165 0.848511 0.356879 0.058384
H21   H     H_    0.826647 0.268674 0.622232 0.095591
H22   H     H_    0.036374 0.278535 0.660028 -0.066630
H23   H     H_    0.770277 0.175049 0.698889 0.143738
H24   H     H_    0.935455 0.151211 0.643421 0.074538
H25   H     H_    0.980604 0.184994 0.736752 0.110709
H26   H     H_    0.292378 0.316961 0.698584 -0.074190
H27   H     H_    0.496323 0.358169 0.714419 0.089587
H28   H     H_    0.393277 0.326821 0.825514 0.068526
H29   H     H_    0.567800 0.274565 0.801681 0.145280
H30   H     H_    0.985344 0.730795 0.377812 0.091165
H31   H     H_    0.362946 0.233631 0.785823 0.109105
H32   H     H_    0.337207 0.887459 0.614732 0.061711
H33   H     H_    0.443296 0.009953 0.611655 0.072170
H34   H     H_    0.174102 0.343974 0.511666 0.085619
H35   H     H_    0.403496 0.129953 0.582418 0.107864
H36   H     H_    0.118458 0.798270 0.589737 0.065245
H37   H     H_    0.697782 0.202114 0.400815 0.109604
H38   H     H_    0.476670 0.111649 0.376038 0.051956
H39   H     H_    0.368677 0.989528 0.380903 0.070605
H40   H     H_    0.405327 0.870070 0.413830 0.095825
H41   H     H_    0.775248 0.721030 0.341083 -0.106200
H42   H     H_    0.633908 0.656838 0.488180 0.066351
H43   H     H_    0.500582 0.544174 0.826120 0.069574
H44   H     H_    0.438248 0.602460 0.936872 0.076402
H45   H     H_    0.536415 0.613940 0.061995 0.150165
H46   H     H_    0.295929 0.458867 0.184477 0.055795
H47   H     H_    0.255228 0.385769 0.944984 0.059472
H48   H     H_    0.350428 0.398095 0.071142 0.048970
H49   H     H_    0.057043 0.426136 0.859179 0.077104
H50   H     H_    0.739550 0.571278 0.143634 0.092937
H51   H     H_    0.151151 0.472052 0.650607 0.074815
H52   H     H_    0.041621 0.824560 0.301712 0.131741
H53   H     H_    0.652203 0.536239 0.356223 0.060865
H54   H     H_    0.831888 0.814969 0.263580 0.173593
H55   H     H_    0.677410 0.398853 0.324794 -0.012290
H56   H     H_    0.888418 0.431300 0.336390 0.058675
O1    O     O_2   0.118870 0.674530 0.547560 -0.491731
O2    O     O_3   0.341191 0.350132 0.325967 -0.634867
O3    O     O_3   0.950254 0.685797 0.271640 -0.563623
O4    O     O_2   0.691430 0.325420 0.452420 -0.451458
O5    O     O_3   0.939830 0.414660 0.457830 -0.495476
O6    O     O_3   0.456020 0.368240 0.581510 -0.477408
O7    O     O_3   0.841753 0.321811 0.338836 -0.603940
O8    O     O_3   0.374170 0.535780 0.585810 -0.477057
O9    O     O_3   0.871300 0.403980 0.619270 -0.485418
O10   O     O_2   0.748594 0.443115 0.744811 -0.494427
O11   O     O_3   0.858892 0.313633 0.728494 -0.601205
O12   O     O_3   0.870460 0.585330 0.542110 -0.446380
O13   O     O_3   0.436130 0.464210 0.414140 -0.454437
O14   O     O_2   0.629420 0.533310 0.672080 -0.453468
O15   O     O_3   0.465270 0.652847 0.699177 -0.604078
O16   O     O_2   0.577253 0.242868 0.534066 -0.497752
O17   O     O_3   0.482024 0.253155 0.662848 -0.608083
O18   O     O_3   0.354280 0.631750 0.418430 -0.458964
O19   O     O_2   0.233468 0.755557 0.467398 -0.494859
O20   O     O_3   0.958315 0.662762 0.660809 -0.642813
O21   O     O_3   0.309754 0.743893 0.336660 -0.613624
O22   O     O_2   0.180880 0.466650 0.327890 -0.480181
O23   O     O_3   0.939000 0.596010 0.380670 -0.497501
O24   O     O_2   0.053617 0.554887 0.254164 -0.479755
P1    P     P_3+3 0.947550 0.663200 0.567530 0.972538
P2    P     P_3+3 0.354660 0.445020 0.336980 1.000238
P3    P     P_3+3 0.914242 0.597571 0.288602 0.981862
P4    P     P_3+3 0.862750 0.336790 0.432410 1.012782
P5    P     P_3+3 0.891708 0.402138 0.711650 0.954187
P6    P     P_3+3 0.370060 0.724923 0.422094 0.942598
P7    P     P_3+3 0.449338 0.559335 0.674694 0.996538
P8    P     P_3+3 0.437534 0.274945 0.576983 0.947046
O25   O     O_3   0.161388 0.676067 0.753623 -0.642029
C65   C     C_3   0.073630 0.666773 0.813758 0.220498
H57   H     H_    0.049408 0.719028 0.845662 0.045160
H58   H     H_    0.155666 0.639252 0.849631 0.074855
C66   C     C_3   0.916782 0.619264 0.795792 -0.299506
H59   H     H_    0.878871 0.599077 0.844618 0.059955
H60   H     H_    0.815157 0.650290 0.775059 0.123746
H61   H     H_    0.937772 0.572610 0.755462 0.149574
O26   O     O_3   0.144616 0.262458 0.270356 -0.678887
C67   C     C_3   0.212608 0.217018 0.317559 0.294667
H62   H     H_    0.212558 0.243730 0.373297 0.045870
H63   H     H_    0.339518 0.202599 0.307303 0.091321
C68   C     C_3   0.109924 0.147102 0.309136 -0.395981
H64   H     H_    0.114114 0.117982 0.254285 0.126835
H65   H     H_    0.158179 0.112329 0.348034 0.073547
H66   H     H_    0.981054 0.158569 0.318835 0.130366
O27   O     O_3   0.501871 0.257779 0.232023 -0.644931
C69   C     C_3   0.563159 0.208591 0.178164 0.257140
H67   H     H_    0.606939 0.237042 0.134965 0.032219
H68   H     H_    0.467335 0.166686 0.155315 0.039624
C70   C     C_3   0.705871 0.170650 0.210303 -0.323591
H69   H     H_    0.666045 0.143106 0.254644 0.110855
H70   H     H_    0.751656 0.130039 0.168934 0.066082
H71   H     H_    0.806904 0.210306 0.231004 0.173117
Cl1   Cl    Cl    0.557399 0.739552 0.165239 -0.762128

loop_
_geom_bond_atom_site_label_1
_geom_bond_atom_site_label_2
_ccdc_geom_bond_type
Ba2   P4    S    
C53   C54   A    
C4    H16   S    
C44   H46   S    
C1    H19   S    
C43   P2    S    
O4    P4    D    
C39   C40   A    
O9    P5    S    
C17   C18   A    
O11   P5    S    
O22   P2    D    
C59   H43   S    
C23   H52   S    
C2    O21   S    
C5    C6    S    
C55   H49   S    
C39   P6    S    
C29   C30   A    
C51   C52   A    
C42   C43   A    
O12   P1    S    
O2    P2    S    
Ba2   O12   S    
C12   O3    S    
C58   C61   A    
C26   C27   A    
C33   C35   A    
C35   C36   A    
C22   C24   A    
C5    O11   S    
O5    P4    S    
C3    C4    S    
C61   H51   S    
C56   H5    S    
C55   C57   A    
C19   C31   A    
C8    H28   S    
C13   C14   A    
C52   H47   S    
C34   C45   S    
C16   C17   A    
C63   O2    S    
C11   H32   S    
C47   C48   A    
C1    Cl1   S    
C58   P7    S    
C45   H3    S    
O23   P3    S    
Ba1   O23   S    
C5    H21   S    
C5    H22   S    
C14   C15   A    
C21   C22   A    
C66   H60   S    
C9    C25   A    
C70   H71   S    
C7    C8    S    
O18   P6    S    
C69   C70   S    
O6    P8    S    
Ba2   O5    S    
O16   P8    D    
C62   H6    S    
C21   H34   S    
C24   C29   A    
C27   C41   A    
C68   H65   S    
C63   O26   S    
C49   C54   A    
C7    H26   S    
C12   H30   S    
C69   H68   S    
C31   C32   A    
C68   H66   S    
C65   C66   S    
C25   C32   A    
C56   C62   S    
C64   H12   S    
C44   C46   A    
C4    H18   S    
C49   C50   A    
C30   C33   A    
C64   O27   S    
C55   C60   A    
C17   C20   A    
C2    H13   S    
C70   H70   S    
C33   H38   S    
C68   H64   S    
C42   H53   S    
C43   C44   A    
Ba2   O14   S    
C58   C59   A    
C16   H35   S    
C29   H37   S    
C8    H31   S    
C34   H56   S    
Ba1   O1    S    
C45   H4    S    
C35   H39   S    
C27   C28   A    
O24   P3    D    
C3    H15   S    
C51   C60   S    
C56   O20   S    
C66   H59   S    
C50   H44   S    
C62   H7    S    
C28   H36   S    
Ba2   O9    S    
C66   H61   S    
O15   P7    S    
C6    H25   S    
C10   C11   A    
C3    H14   S    
C1    H10   S    
O27   C69   S    
Ba1   O18   S    
C22   P4    S    
Ba2   O4    S    
C12   H41   S    
O1    P1    D    
Ba1   O8    S    
C11   C13   A    
Ba1   P1    S    
C6    H24   S    
C40   C41   A    
Ba1   O12   S    
C23   H54   S    
C7    H27   S    
C45   H2    S    
C37   C38   A    
C50   C51   A    
C38   H40   S    
C20   P8    S    
C42   C48   A    
C46   C54   S    
C64   H11   S    
C52   C53   A    
C67   H62   S    
C49   H45   S    
C4    H17   S    
C10   C28   A    
C32   C36   A    
O20   P1    S    
C67   C68   S    
Ba1   O5    S    
C13   H33   S    
C9    C15   A    
C2    H1    S    
C9    C10   A    
C3    O15   S    
C53   H48   S    
C57   P5    S    
C26   C37   A    
C57   C61   A    
Ba2   O13   S    
O17   P8    S    
C30   C31   A    
C65   H58   S    
C34   H55   S    
O7    P4    S    
C70   H69   S    
C34   O7    S    
C36   C38   A    
O14   P7    D    
C7    O17   S    
C48   P3    S    
C18   C24   A    
C8    H29   S    
C46   C47   A    
Ba1   Ba2   S    
C67   H63   S    
C23   H20   S    
Ba2   O8    S    
O8    P7    S    
O13   P2    S    
C12   C23   S    
C59   C60   A    
O3    P3    S    
C15   C19   A    
O26   C67   S    
C41   P1    S    
C56   O25   S    
C69   H67   S    
C47   H50   S    
C65   H57   S    
C18   C19   A    
C37   C39   A    
C14   C16   A    
C63   C64   S    
O25   C65   S    
Ba1   O22   S    
O10   P5    D    
C62   H8    S    
C20   C21   A    
Ba1   P2    S    
C6    H23   S    
Ba1   O13   S    
C40   H42   S    
O21   P6    S    
C63   H9    S    
C1    C2    S    
O19   P6    D    
C25   C26   A    
Ba2   O6    S    
