data_mof_unit_46177.cif
_audit_creation_date              2012-12-11T15:08:42-0500
_audit_creation_method            fapswitch 2.2
_symmetry_space_group_name_H-M    P1
_symmetry_Int_Tables_number       1
_space_group_crystal_system       triclinic
_cell_length_a                    19.544472
_cell_length_b                    11.31083
_cell_length_c                    18.69117
_cell_angle_alpha                 89.95114
_cell_angle_beta                  89.59833
_cell_angle_gamma                 90.020734
_cell_volume                      4131.8452303

loop_
_atom_site_label
_atom_site_type_symbol
_atom_type_description
_atom_site_fract_x
_atom_site_fract_y
_atom_site_fract_z
_atom_type_partial_charge
C1    C     C_R   0.271630 0.044758 0.853375 0.529960
C2    C     C_R   0.727153 0.041927 0.145105 0.530104
C3    C     C_R   0.771630 0.544758 0.853375 0.529958
C4    C     C_R   0.227153 0.541927 0.145105 0.530097
C5    C     C_3   0.516183 0.719253 0.966896 -0.110355
C6    C     C_3   0.477509 0.732457 0.038276 -0.108960
C7    C     C_3   0.016184 0.219253 0.966895 -0.110355
C8    C     C_3   0.977511 0.232458 0.038275 -0.108957
C9    C     C_3   0.308749 0.515055 0.040068 -0.233631
C10   C     C_3   0.683745 0.539510 0.954712 -0.237031
C11   C     C_3   0.808748 0.015053 0.040068 -0.233631
C12   C     C_3   0.183745 0.039511 0.954713 -0.237032
C13   C     C_3   0.312872 0.523051 0.957655 -0.240344
C14   C     C_3   0.676392 0.558814 0.036242 -0.231508
C15   C     C_3   0.812872 0.023051 0.957655 -0.240344
C16   C     C_3   0.176393 0.058813 0.036242 -0.231508
C17   C     C_3   0.177012 0.529852 0.026175 -0.209256
C18   C     C_3   0.813057 0.513016 0.973302 -0.212187
C19   C     C_3   0.677012 0.029854 0.026175 -0.209258
C20   C     C_3   0.313056 0.013015 0.973302 -0.212191
C21   C     C_3   0.247344 0.703376 0.055150 -0.253000
C22   C     C_3   0.764341 0.707468 0.943758 -0.255430
C23   C     C_3   0.747345 0.203376 0.055151 -0.252999
C24   C     C_3   0.264342 0.207467 0.943758 -0.255430
C25   C     C_3   0.241048 0.571231 0.068811 0.063321
C26   C     C_3   0.756710 0.575640 0.929034 0.065931
C27   C     C_3   0.741048 0.071231 0.068811 0.063318
C28   C     C_3   0.256710 0.075640 0.929034 0.065930
C29   C     C_3   0.254720 0.604529 0.930327 0.058931
C30   C     C_3   0.743707 0.610634 0.067464 0.054804
C31   C     C_3   0.754720 0.104530 0.930327 0.058931
C32   C     C_3   0.243708 0.110634 0.067464 0.054803
C33   C     C_3   0.186059 0.544506 0.945254 -0.246991
C34   C     C_3   0.800184 0.520216 0.054510 -0.257094
C35   C     C_3   0.686059 0.044508 0.945254 -0.246990
C36   C     C_3   0.300185 0.020219 0.054510 -0.257093
C37   C     C_3   0.259372 0.720407 0.974024 -0.223152
C38   C     C_3   0.763879 0.724455 0.025491 -0.224794
C39   C     C_3   0.759373 0.220408 0.974024 -0.223152
C40   C     C_3   0.263878 0.224455 0.025491 -0.224797
C41   C     C_3   0.496884 0.704278 0.460240 -0.238252
C42   C     C_3   0.503087 0.704312 0.539849 -0.238003
C43   C     C_3   0.996904 0.204280 0.460247 -0.238245
C44   C     C_3   0.003103 0.204321 0.539856 -0.238009
C45   C     C_R   0.445916 0.817578 0.862691 0.536284
C46   C     C_R   0.556962 0.817327 0.137566 0.534602
C47   C     C_R   0.945916 0.317578 0.862691 0.536283
C48   C     C_R   0.056966 0.317327 0.137564 0.534588
C49   C     C_3   0.566009 0.892797 0.470147 -0.223821
C50   C     C_3   0.434000 0.892824 0.529735 -0.223939
C51   C     C_3   0.065998 0.392841 0.470158 -0.223829
C52   C     C_3   0.933989 0.392801 0.529734 -0.223937
C53   C     C_3   0.444284 0.901783 0.447394 -0.262192
C54   C     C_3   0.555718 0.901855 0.552476 -0.262396
C55   C     C_3   0.944275 0.401754 0.447392 -0.262186
C56   C     C_3   0.055701 0.401892 0.552484 -0.262381
C57   C     C_3   0.507950 0.830742 0.429983 0.049724
C58   C     C_3   0.492037 0.830815 0.569975 0.049878
C59   C     C_3   0.007953 0.330746 0.429988 0.049710
C60   C     C_3   0.992032 0.330821 0.569977 0.049878
C61   C     C_3   0.185724 0.660875 0.457869 -0.256713
C62   C     C_3   0.814265 0.661044 0.542081 -0.256881
C63   C     C_3   0.685714 0.160854 0.457872 -0.256720
C64   C     C_3   0.314270 0.161036 0.542080 -0.256873
C65   C     C_3   0.183885 0.657449 0.538279 -0.240512
C66   C     C_3   0.816132 0.657473 0.461684 -0.240472
C67   C     C_3   0.683885 0.157441 0.538283 -0.240523
C68   C     C_3   0.316135 0.157476 0.461682 -0.240466
C69   C     C_3   0.236353 0.457085 0.476706 -0.236832
C70   C     C_3   0.763648 0.457170 0.523574 -0.236301
C71   C     C_3   0.736353 0.957077 0.476724 -0.236907
C72   C     C_3   0.263653 0.957166 0.523564 -0.236325
C73   C     C_3   0.311704 0.620310 0.441379 -0.116775
C74   C     C_3   0.688265 0.620373 0.558543 -0.116828
C75   C     C_3   0.811696 0.120305 0.441373 -0.116740
C76   C     C_3   0.188270 0.120368 0.558544 -0.116824
C77   C     C_3   0.240097 0.570488 0.430050 0.055925
C78   C     C_3   0.759868 0.570667 0.570003 0.056419
C79   C     C_3   0.740088 0.070468 0.430056 0.055917
C80   C     C_3   0.259874 0.070658 0.570000 0.056425
C81   C     C_3   0.253867 0.608844 0.566996 0.052053
C82   C     C_3   0.746163 0.608674 0.432994 0.051656
C83   C     C_3   0.753874 0.108853 0.566996 0.052060
C84   C     C_3   0.246164 0.108684 0.432995 0.051653
C85   C     C_3   0.255522 0.476503 0.555543 -0.257632
C86   C     C_3   0.744548 0.476360 0.444676 -0.257971
C87   C     C_3   0.755546 0.976510 0.555552 -0.257614
C88   C     C_3   0.244545 0.976368 0.444671 -0.257968
C89   C     C_R   0.261375 0.638484 0.853572 0.531144
C90   C     C_R   0.737568 0.642593 0.144823 0.532821
C91   C     C_R   0.761375 0.138485 0.853572 0.531147
C92   C     C_R   0.237568 0.142593 0.144824 0.532821
C93   C     C_3   0.314188 0.658034 0.521032 -0.231235
C94   C     C_3   0.685798 0.657830 0.478808 -0.231005
C95   C     C_3   0.814185 0.158052 0.521022 -0.231266
C96   C     C_3   0.185803 0.157838 0.478812 -0.231025
C97   C     C_R   0.274341 0.040857 0.645168 0.537843
C98   C     C_R   0.725591 0.040626 0.354902 0.539114
C99   C     C_R   0.774336 0.540869 0.645173 0.537832
C100  C     C_R   0.225604 0.540659 0.354893 0.539074
C101  C     C_R   0.471100 0.823527 0.646708 0.541629
C102  C     C_R   0.528890 0.823467 0.353273 0.542430
C103  C     C_R   0.971097 0.323528 0.646707 0.541635
C104  C     C_R   0.028895 0.323468 0.353277 0.542438
C105  C     C_R   0.261991 0.643367 0.642694 0.540736
C106  C     C_R   0.738053 0.643145 0.357259 0.542017
C107  C     C_R   0.761995 0.143379 0.642690 0.540751
C108  C     C_R   0.238050 0.143158 0.357262 0.542032
C109  C     C_3   0.489240 0.924386 0.032754 -0.111980
C110  C     C_3   0.528188 0.911065 0.960648 -0.110305
C111  C     C_3   0.989243 0.424387 0.032753 -0.111977
C112  C     C_3   0.028190 0.411065 0.960646 -0.110303
C113  C     C_3   0.435197 0.834581 0.007654 -0.161844
C114  C     C_3   0.570385 0.808025 0.992306 -0.160447
C115  C     C_3   0.935199 0.334582 0.007654 -0.161843
C116  C     C_3   0.070386 0.308024 0.992303 -0.160452
C117  C     C_3   0.474276 0.822043 0.936142 0.059635
C118  C     C_3   0.530879 0.822061 0.063414 0.054239
C119  C     C_3   0.974276 0.322044 0.936141 0.059636
C120  C     C_3   0.030882 0.322061 0.063412 0.054234
Cr1   Cr    Cr6+3 0.229620 0.836040 0.749110 1.019148
Cr2   Cr    Cr6+3 0.770380 0.836040 0.250890 1.019159
Cr3   Cr    Cr6+3 0.729620 0.336040 0.749110 1.019149
Cr4   Cr    Cr6+3 0.270380 0.336040 0.250890 1.019158
Cr5   Cr    Cr6+3 0.387630 0.990680 0.750730 1.002554
Cr6   Cr    Cr6+3 0.612370 0.990680 0.249270 1.002169
Cr7   Cr    Cr6+3 0.887630 0.490680 0.750730 1.002551
Cr8   Cr    Cr6+3 0.112370 0.490680 0.249270 1.002172
Cr9   Cr    Cr6+3 0.386020 0.676590 0.749210 1.007236
Cr10  Cr    Cr6+3 0.613980 0.676590 0.250790 1.007813
Cr11  Cr    Cr6+3 0.886020 0.176590 0.749210 1.007233
Cr12  Cr    Cr6+3 0.113980 0.176590 0.250790 1.007818
H1    H     H_    0.382979 0.838968 0.028158 0.096461
H2    H     H_    0.625017 0.791496 0.982286 0.091385
H3    H     H_    0.882980 0.338969 0.028159 0.096461
H4    H     H_    0.125017 0.291493 0.982284 0.091387
H5    H     H_    0.200250 0.751104 0.072404 0.127064
H6    H     H_    0.813649 0.740275 0.921317 0.131534
H7    H     H_    0.700252 0.251105 0.072404 0.127064
H8    H     H_    0.313651 0.240272 0.921319 0.131536
H9    H     H_    0.290872 0.739008 0.086339 0.101409
H10   H     H_    0.722763 0.758292 0.917856 0.103529
H11   H     H_    0.790874 0.239006 0.086339 0.101411
H12   H     H_    0.222766 0.258293 0.917855 0.103529
H13   H     H_    0.312303 0.747962 0.965180 0.101967
H14   H     H_    0.729718 0.796688 0.040670 0.109140
H15   H     H_    0.812304 0.247963 0.965181 0.101966
H16   H     H_    0.229716 0.296684 0.040670 0.109141
H17   H     H_    0.223507 0.787040 0.953779 0.137196
H18   H     H_    0.817251 0.745865 0.040767 0.132590
H19   H     H_    0.723508 0.287041 0.953779 0.137196
H20   H     H_    0.317248 0.245869 0.040768 0.132592
H21   H     H_    0.631227 0.082419 0.042318 0.140762
H22   H     H_    0.363986 0.053545 0.961909 0.141769
H23   H     H_    0.131228 0.582417 0.042318 0.140762
H24   H     H_    0.863986 0.553552 0.961910 0.141768
H25   H     H_    0.143727 0.599997 0.924255 0.131827
H26   H     H_    0.848165 0.546432 0.082048 0.126002
H27   H     H_    0.643727 0.099999 0.924254 0.131828
H28   H     H_    0.348166 0.046438 0.082046 0.126003
H29   H     H_    0.529636 0.632319 0.439467 0.163562
H30   H     H_    0.470324 0.632314 0.560685 0.163652
H31   H     H_    0.029668 0.132337 0.439477 0.163542
H32   H     H_    0.970342 0.132314 0.560689 0.163668
H33   H     H_    0.445127 0.680215 0.446100 0.143437
H34   H     H_    0.554841 0.680282 0.554023 0.143450
H35   H     H_    0.945152 0.180182 0.446103 0.143450
H36   H     H_    0.054860 0.180314 0.554038 0.143437
H37   H     H_    0.606879 0.833430 0.457622 0.108847
H38   H     H_    0.393116 0.833439 0.542324 0.108960
H39   H     H_    0.106877 0.333492 0.457648 0.108849
H40   H     H_    0.893112 0.333402 0.542322 0.108954
H41   H     H_    0.600972 0.867166 0.581291 0.099335
H42   H     H_    0.399019 0.867027 0.418637 0.099571
H43   H     H_    0.100957 0.367218 0.581307 0.099337
H44   H     H_    0.899016 0.366971 0.418635 0.099578
H45   H     H_    0.478357 0.009703 0.059834 0.115675
H46   H     H_    0.546809 0.985107 0.927032 0.115860
H47   H     H_    0.978360 0.509704 0.059833 0.115676
H48   H     H_    0.046810 0.485106 0.927029 0.115861
H49   H     H_    0.452349 0.995180 0.430949 0.127556
H50   H     H_    0.547656 0.995260 0.568780 0.127331
H51   H     H_    0.952325 0.495151 0.430941 0.127546
H52   H     H_    0.047626 0.495295 0.568789 0.127342
H53   H     H_    0.424434 0.981952 0.551805 0.137858
H54   H     H_    0.575622 0.981892 0.447968 0.138057
H55   H     H_    0.924410 0.481928 0.551800 0.137853
H56   H     H_    0.075591 0.481943 0.447976 0.138066
H57   H     H_    0.132654 0.645356 0.439860 0.148756
H58   H     H_    0.867331 0.645535 0.560128 0.148914
H59   H     H_    0.632643 0.145321 0.439870 0.148740
H60   H     H_    0.367336 0.145526 0.560124 0.148904
H61   H     H_    0.199625 0.749854 0.438518 0.119088
H62   H     H_    0.800378 0.750048 0.561279 0.118872
H63   H     H_    0.699608 0.249832 0.438511 0.119106
H64   H     H_    0.300385 0.250037 0.561282 0.118874
H65   H     H_    0.167596 0.745415 0.557102 0.167292
H66   H     H_    0.832410 0.745456 0.442738 0.167571
H67   H     H_    0.667594 0.245410 0.557101 0.167286
H68   H     H_    0.332413 0.245459 0.442739 0.167563
H69   H     H_    0.142371 0.598330 0.556864 0.124060
H70   H     H_    0.857678 0.598408 0.443221 0.124077
H71   H     H_    0.642377 0.098317 0.556879 0.124055
H72   H     H_    0.357679 0.098410 0.443215 0.124084
H73   H     H_    0.684432 0.935581 0.478343 0.109312
H74   H     H_    0.315567 0.935760 0.522182 0.109189
H75   H     H_    0.184441 0.435568 0.478271 0.109289
H76   H     H_    0.815562 0.435761 0.522207 0.109184
H77   H     H_    0.719191 0.930172 0.592092 0.099847
H78   H     H_    0.280959 0.930051 0.408267 0.100233
H79   H     H_    0.219152 0.430177 0.592066 0.099852
H80   H     H_    0.780970 0.430041 0.408279 0.100230
H81   H     H_    0.320252 0.698214 0.406015 0.081643
H82   H     H_    0.679706 0.698376 0.593731 0.081165
H83   H     H_    0.820236 0.198200 0.405999 0.081656
H84   H     H_    0.179711 0.198364 0.593736 0.081172
H85   H     H_    0.526360 0.633173 0.940474 0.122334
H86   H     H_    0.457009 0.657617 0.070182 0.125205
H87   H     H_    0.026360 0.133173 0.940472 0.122335
H88   H     H_    0.957010 0.157619 0.070181 0.125207
H89   H     H_    0.306230 0.751183 0.520439 0.089284
H90   H     H_    0.693722 0.750975 0.479107 0.089241
H91   H     H_    0.806212 0.251197 0.520413 0.089292
H92   H     H_    0.193717 0.250986 0.479113 0.089238
H93   H     H_    0.363528 0.635870 0.545523 0.132741
H94   H     H_    0.636468 0.635495 0.454346 0.132792
H95   H     H_    0.863531 0.135918 0.545510 0.132721
H96   H     H_    0.136479 0.135483 0.454352 0.132791
H97   H     H_    0.266043 0.385578 0.452822 0.142170
H98   H     H_    0.733984 0.385627 0.547570 0.142569
H99   H     H_    0.766029 0.885565 0.452828 0.142167
H100  H     H_    0.233995 0.885615 0.547560 0.142558
H101  H     H_    0.307887 0.442751 0.566189 0.137560
H102  H     H_    0.692198 0.442489 0.434051 0.137521
H103  H     H_    0.807921 0.942779 0.566183 0.137588
H104  H     H_    0.192194 0.942502 0.434052 0.137525
H105  H     H_    0.316198 0.425030 0.058587 0.133335
H106  H     H_    0.671002 0.447264 0.941380 0.128585
H107  H     H_    0.816194 0.925026 0.058586 0.133335
H108  H     H_    0.171001 0.947265 0.941379 0.128585
H109  H     H_    0.352841 0.563328 0.063173 0.109608
H110  H     H_    0.645357 0.593915 0.926100 0.113568
H111  H     H_    0.852842 0.063323 0.063174 0.109609
H112  H     H_    0.145358 0.093917 0.926101 0.113568
H113  H     H_    0.364128 0.558302 0.942396 0.140305
H114  H     H_    0.632724 0.618264 0.047636 0.137213
H115  H     H_    0.864128 0.058302 0.942396 0.140304
H116  H     H_    0.132724 0.118262 0.047637 0.137211
H117  H     H_    0.308256 0.434807 0.933159 0.113548
H118  H     H_    0.664162 0.473050 0.062607 0.118881
H119  H     H_    0.808256 0.934808 0.933158 0.113547
H120  H     H_    0.164164 0.973049 0.062606 0.118881
H121  H     H_    0.664147 0.939494 0.041059 0.099375
H122  H     H_    0.316927 0.923462 0.954129 0.098910
H123  H     H_    0.164148 0.439492 0.041059 0.099373
H124  H     H_    0.816932 0.423464 0.954126 0.098910
H125  H     H_    0.683728 0.957392 0.918050 0.106248
H126  H     H_    0.284327 0.933788 0.076460 0.109746
H127  H     H_    0.183728 0.457390 0.918050 0.106249
H128  H     H_    0.784324 0.433785 0.076458 0.109748
O1    O     O_R   0.214130 0.708570 0.829890 -0.527821
O2    O     O_R   0.785870 0.708570 0.170110 -0.526548
O3    O     O_R   0.714130 0.208570 0.829890 -0.527819
O4    O     O_R   0.285870 0.208570 0.170110 -0.526547
O5    O     O_R   0.446360 0.919990 0.675230 -0.508004
O6    O     O_R   0.553640 0.919990 0.324770 -0.507700
O7    O     O_R   0.946360 0.419990 0.675230 -0.508004
O8    O     O_R   0.053640 0.419990 0.324770 -0.507690
O9    O     O_R   0.457170 0.717300 0.668380 -0.521378
O10   O     O_R   0.542830 0.717300 0.331620 -0.521157
O11   O     O_R   0.957170 0.217300 0.668380 -0.521385
O12   O     O_R   0.042830 0.217300 0.331620 -0.521150
O13   O     O_R   0.320870 0.624890 0.673130 -0.510583
O14   O     O_R   0.679130 0.624890 0.326870 -0.509698
O15   O     O_R   0.820870 0.124890 0.673130 -0.510583
O16   O     O_R   0.179130 0.124890 0.326870 -0.509703
O17   O     O_3   0.334430 0.834430 0.749680 -0.290184
O18   O     O_3   0.665570 0.834430 0.250320 -0.294434
O19   O     O_3   0.834430 0.334430 0.749680 -0.290186
O20   O     O_3   0.165570 0.334430 0.250320 -0.294429
O21   O     O_R   0.236050 0.959150 0.825270 -0.512302
O22   O     O_R   0.763950 0.959150 0.174730 -0.513659
O23   O     O_R   0.736050 0.459150 0.825270 -0.512303
O24   O     O_R   0.263950 0.459150 0.174730 -0.513662
O25   O     O_R   0.332100 0.076650 0.832310 -0.532963
O26   O     O_R   0.667900 0.076650 0.167690 -0.532432
O27   O     O_R   0.832100 0.576650 0.832310 -0.532964
O28   O     O_R   0.167900 0.576650 0.167690 -0.532436
O29   O     O_R   0.446500 0.918620 0.826240 -0.504464
O30   O     O_R   0.553500 0.918620 0.173760 -0.504489
O31   O     O_R   0.946500 0.418620 0.826240 -0.504464
O32   O     O_R   0.053500 0.418620 0.173760 -0.504481
O33   O     O_R   0.457310 0.715830 0.831280 -0.521971
O34   O     O_R   0.542690 0.715830 0.168720 -0.521914
O35   O     O_R   0.957310 0.215830 0.831280 -0.521972
O36   O     O_R   0.042690 0.215830 0.168720 -0.521905
O37   O     O_R   0.321000 0.623520 0.824130 -0.520122
O38   O     O_R   0.679000 0.623520 0.175870 -0.520119
O39   O     O_R   0.821000 0.123520 0.824130 -0.520121
O40   O     O_R   0.179000 0.123520 0.175870 -0.520120
O41   O     O_R   0.213990 0.710040 0.667000 -0.523917
O42   O     O_R   0.786010 0.710040 0.333000 -0.523115
O43   O     O_R   0.713990 0.210040 0.667000 -0.523919
O44   O     O_R   0.286010 0.210040 0.333000 -0.523115
O45   O     O_R   0.235920 0.960520 0.674260 -0.493725
O46   O     O_R   0.764080 0.960520 0.325740 -0.492874
O47   O     O_R   0.735920 0.460520 0.674260 -0.493727
O48   O     O_R   0.264080 0.460520 0.325740 -0.492868
O49   O     O_R   0.331960 0.078120 0.669410 -0.536060
O50   O     O_R   0.668040 0.078120 0.330590 -0.535180
O51   O     O_R   0.831960 0.578120 0.669410 -0.536060
O52   O     O_R   0.168040 0.578120 0.330590 -0.535172
C121  C     C_1   0.364756 0.530284 0.423956 0.180180
N1    N     N_1   0.405858 0.459941 0.410386 -0.316483
C122  C     C_1   0.635207 0.530320 0.576114 0.180031
N2    N     N_1   0.594104 0.459952 0.589799 -0.316629
C123  C     C_1   0.864752 0.030283 0.423955 0.180201
N3    N     N_1   0.905857 0.959944 0.410388 -0.316482
C124  C     C_1   0.135211 0.030312 0.576106 0.180032
N4    N     N_1   0.094106 0.959943 0.589783 -0.316637

loop_
_geom_bond_atom_site_label_1
_geom_bond_atom_site_label_2
_ccdc_geom_bond_type
C82   C94   S    
C55   C59   S    
C35   H125  S    
C83   C87   S    
C73   C93   S    
C47   O31   A    
C42   C58   S    
C29   C89   S    
C16   H120  S    
C75   C95   S    
C48   C120  S    
C24   H8    S    
C57   C102  S    
Cr6   O18   S    
Cr7   O7    S    
C85   H101  S    
C59   C104  S    
Cr1   O17   S    
C5    C6    S    
Cr10  O10   S    
Cr3   O19   S    
Cr4   O4    S    
Cr12  O16   S    
C29   C33   S    
C87   H103  S    
C30   C38   S    
C77   C100  S    
C44   H36   S    
C9    C13   S    
C11   C15   S    
C5    H85   S    
C49   H54   S    
C12   C16   S    
C98   O50   A    
C99   O47   A    
C52   H55   S    
C103  O7    A    
C60   C103  S    
C107  O15   A    
C83   C107  S    
C88   H78   S    
C74   H82   S    
C111  H47   S    
C23   H11   S    
C75   C123  S    
C11   C27   S    
C16   H116  S    
Cr5   O25   S    
C50   C53   S    
C89   O37   A    
C7    C119  S    
Cr8   O28   S    
C62   H58   S    
C62   C66   S    
Cr2   O2    S    
C72   H74   S    
C20   C28   S    
C18   H124  S    
Cr12  O36   S    
C43   C44   S    
C66   C82   S    
Cr9   O33   S    
C58   C101  S    
C105  O41   A    
C92   O4    A    
C107  O43   A    
C14   H118  S    
C108  O44   A    
C19   H21   S    
C89   O1    A    
C62   H62   S    
Cr5   O49   S    
C17   H23   S    
C91   O3    A    
Cr1   O45   S    
Cr5   O5    S    
Cr2   O42   S    
C3    C26   S    
C84   C88   S    
Cr12  O12   S    
C110  H46   S    
C85   H79   S    
C13   H117  S    
Cr10  O34   S    
C17   C25   S    
C19   C35   S    
C76   C96   S    
C1    O21   A    
C32   C92   S    
C75   H83   S    
C95   H95   S    
C67   H71   S    
C21   H9    S    
C61   C65   S    
C12   H108  S    
C78   C99   S    
C45   O29   A    
C75   C79   S    
Cr5   O29   S    
C22   C38   S    
C67   C83   S    
C80   C97   S    
C68   H72   S    
C11   H111  S    
C69   C77   S    
C111  C112  S    
C9    H109  S    
C52   H40   S    
C71   C79   S    
C4    C25   S    
Cr4   O20   S    
C7    C8    S    
Cr10  O38   S    
Cr4   O44   S    
C96   H96   S    
C24   H12   S    
C100  O52   A    
C39   H19   S    
C49   C57   S    
C40   H20   S    
Cr11  O11   S    
Cr9   O37   S    
C38   H14   S    
C51   H56   S    
C52   C60   S    
C19   H121  S    
C61   C77   S    
C12   H112  S    
C93   H93   S    
C36   H126  S    
C47   O35   A    
C110  C114  S    
C48   O36   A    
C43   C59   S    
C112  H48   S    
C90   O38   A    
C6    H86   S    
C22   H10   S    
Cr1   O21   S    
Cr2   O18   S    
Cr4   O24   S    
Cr12  O20   S    
C81   C105  S    
C30   C34   S    
C10   C14   S    
C101  O9    A    
C95   H91   S    
C116  C120  S    
C103  O11   A    
C7    C116  S    
C69   H97   S    
C71   H73   S    
C73   C121  S    
C33   H127  S    
C114  H2    S    
C34   H128  S    
C66   H66   S    
C113  C117  S    
C31   C91   S    
Cr6   O26   S    
C9    H105  S    
Cr4   O48   S    
C61   H61   S    
C112  C116  S    
C69   C85   S    
C45   C117  S    
C21   C25   S    
C73   C77   S    
Cr12  O40   S    
C62   C78   S    
C76   C80   S    
C42   H30   S    
C15   C31   S    
C43   H35   S    
C16   C32   S    
C97   O45   A    
C105  O13   A    
C106  O42   A    
C72   C80   S    
C115  H3    S    
C64   H64   S    
C4    O24   A    
C82   C106  S    
C90   O2    A    
C55   H44   S    
Cr6   O50   S    
C66   H70   S    
Cr8   O32   S    
C94   H90   S    
Cr6   O6    S    
C113  H1    S    
C46   O34   A    
Cr7   O19   S    
Cr8   O20   S    
C81   C85   S    
C13   H113  S    
C41   H29   S    
C64   C80   S    
C41   C42   S    
C74   C94   S    
Cr9   O13   S    
C18   C26   S    
C30   C90   S    
Cr11  O39   S    
C1    O25   A    
C9    C25   S    
C2    O22   A    
C76   C124  S    
C3    O27   A    
C86   H102  S    
C12   C28   S    
C13   C29   S    
C86   H80   S    
C67   H67   S    
C98   O46   A    
C46   C118  S    
C64   H60   S    
Cr6   O30   S    
C106  O14   A    
C109  C118  S    
C1    C28   S    
C2    C27   S    
Cr10  O14   S    
C72   H100  S    
Cr11  O19   S    
C61   H57   S    
C52   C55   S    
C32   C36   S    
C122  N2    T    
C87   H77   S    
C73   H81   S    
C17   C33   S    
C110  C117  S    
C38   H18   S    
C33   H25   S    
C69   H75   S    
C40   H16   S    
C68   C84   S    
C24   C28   S    
C74   C122  S    
C53   C57   S    
C82   C86   S    
C56   C60   S    
C115  C119  S    
C50   C58   S    
C104  O12   A    
C48   O32   A    
Cr7   O27   S    
C76   H84   S    
C65   C81   S    
C91   O39   A    
Cr8   O8    S    
C50   H38   S    
C20   H122  S    
Cr2   O22   S    
C71   C87   S    
C15   H115  S    
C31   C35   S    
C64   C68   S    
C101  O5    A    
C102  O10   A    
C37   H17   S    
C108  O16   A    
C112  C119  S    
C116  H4    S    
C56   H52   S    
C22   H6    S    
C41   C57   S    
C109  C110  S    
C49   H37   S    
C121  N1    T    
Cr5   O17   S    
C44   C60   S    
C63   H59   S    
C84   C108  S    
C94   H94   S    
C124  N4    T    
C20   C36   S    
C109  H45   S    
C21   C37   S    
C22   C26   S    
C29   C37   S    
C55   H51   S    
C44   H32   S    
C70   H76   S    
C42   H34   S    
C43   H31   S    
C97   O49   A    
C5    C114  S    
C70   C78   S    
C79   C98   S    
C99   O51   A    
C10   H110  S    
C63   C79   S    
C4    O28   A    
C20   H22   S    
C92   O40   A    
C54   H41   S    
C23   H7    S    
C46   O30   A    
C11   H107  S    
C49   C54   S    
Cr3   O47   S    
C51   C56   S    
C84   C96   S    
C8    C115  S    
Cr1   O1    S    
Cr3   O3    S    
C96   H92   S    
C41   H33   S    
C54   H50   S    
Cr9   O17   S    
C23   C27   S    
C19   C27   S    
C74   C78   S    
C109  C113  S    
C2    O26   A    
C7    H87   S    
C10   C26   S    
C47   C119  S    
C14   C30   S    
C72   C88   S    
C53   H42   S    
C88   H104  S    
C63   C67   S    
C56   H43   S    
Cr7   O31   S    
Cr1   O41   S    
C21   H5    S    
C5    C117  S    
C111  C120  S    
Cr10  O18   S    
Cr3   O43   S    
C70   H98   S    
C6    C113  S    
Cr11  O15   S    
C8    H88   S    
C53   H49   S    
C81   C93   S    
C83   C95   S    
Cr11  O35   S    
C18   C34   S    
C114  C118  S    
C65   H65   S    
C34   H26   S    
C10   H106  S    
C51   C59   S    
C70   C86   S    
C8    C120  S    
Cr2   O46   S    
C54   C58   S    
C17   H123  S    
C45   O33   A    
C104  O8    A    
C18   H24   S    
C111  C115  S    
Cr7   O51   S    
Cr8   O52   S    
C68   H68   S    
C51   H39   S    
C71   H99   S    
Cr3   O23   S    
C15   H119  S    
C23   C39   S    
C3    O23   A    
C24   C40   S    
C31   C39   S    
C63   H63   S    
C32   C40   S    
C123  N3    T    
C35   H27   S    
Cr9   O9    S    
C36   H28   S    
C100  O48   A    
C65   H69   S    
C102  O6    A    
C39   H15   S    
C93   H89   S    
C37   H13   S    
C50   H53   S    
C6    C118  S    
C14   H114  S    
