data_mof_unit_66421.cif
_audit_creation_date              2012-12-10T18:04:28-0500
_audit_creation_method            fapswitch 2.2
_symmetry_space_group_name_H-M    P1
_symmetry_Int_Tables_number       1
_space_group_crystal_system       triclinic
_cell_length_a                    31.666428
_cell_length_b                    18.263607
_cell_length_c                    25.754125
_cell_angle_alpha                 90.092696
_cell_angle_beta                  144.5293
_cell_angle_gamma                 89.942548
_cell_volume                      8643.19491103

loop_
_atom_site_label
_atom_site_type_symbol
_atom_type_description
_atom_site_fract_x
_atom_site_fract_y
_atom_site_fract_z
_atom_type_partial_charge
Br1   Br    Br    0.145903 0.414208 0.102497 -0.451467
Br2   Br    Br    0.678361 0.793685 0.313699 -0.388728
Br3   Br    Br    0.673125 0.211861 0.309116 -0.475295
Br4   Br    Br    0.326143 0.788975 0.690261 -0.484568
Br5   Br    Br    0.079556 0.193205 0.846329 -0.413630
Br6   Br    Br    0.846387 0.735488 0.987561 -0.378795
Br7   Br    Br    0.822358 0.292095 0.957859 -0.505332
Br8   Br    Br    0.177589 0.707966 0.042082 -0.504582
Br9   Br    Br    0.653638 0.764545 0.012477 -0.378933
Br10  Br    Br    0.420444 0.306795 0.153671 -0.413673
Br11  Br    Br    0.322417 0.792027 0.957926 -0.504534
Br12  Br    Br    0.853168 0.584599 0.895667 -0.413846
Br13  Br    Br    0.677634 0.207913 0.042131 -0.505283
Br14  Br    Br    0.116115 0.386877 0.557703 -0.436510
Br15  Br    Br    0.883860 0.613117 0.442267 -0.434049
Br16  Br    Br    0.616120 0.886864 0.557712 -0.434055
Br17  Br    Br    0.383905 0.113141 0.442318 -0.436510
Br18  Br    Br    0.646926 0.915576 0.104414 -0.413903
Br19  Br    Br    0.354000 0.085615 0.897411 -0.451513
Br20  Br    Br    0.821637 0.706312 0.686299 -0.388661
Br21  Br    Br    0.178327 0.293650 0.313671 -0.394570
Br22  Br    Br    0.173868 0.711010 0.309747 -0.484533
Br23  Br    Br    0.826863 0.288153 0.690876 -0.475261
Br24  Br    Br    0.321674 0.206352 0.686331 -0.394633
C1    C     C_R   0.859518 0.639635 0.108703 0.850198
C2    C     C_R   0.196778 0.304406 0.445486 -0.135451
C3    C     C_R   0.284976 0.766629 0.582183 0.293118
C4    C     C_3   0.177001 0.594701 0.181318 -0.609306
C5    C     C_3   0.822943 0.404753 0.818416 -0.609174
C6    C     C_3   0.006668 0.700389 0.012015 -0.525639
C7    C     C_3   0.992593 0.299213 0.987427 -0.537872
C8    C     C_3   0.676950 0.095444 0.181454 -0.609026
C9    C     C_3   0.323112 0.905089 0.818815 -0.609158
C10   C     C_3   0.507182 0.200792 0.012359 -0.537882
C11   C     C_3   0.493562 0.799604 0.988203 -0.525608
C12   C     C_R   0.196814 0.695528 0.445452 -0.117444
C13   C     C_R   0.803206 0.304451 0.554572 -0.115878
C14   C     C_R   0.303222 0.195594 0.554514 -0.135447
C15   C     C_R   0.696779 0.804407 0.445486 -0.135505
C16   C     C_R   0.696792 0.195551 0.445427 -0.115876
C17   C     C_R   0.303188 0.804469 0.554548 -0.117441
C18   C     C_R   0.760067 0.704038 0.052645 -0.245663
C19   C     C_R   0.267149 0.323273 0.007897 -0.225628
C20   C     C_R   0.230591 0.713499 0.934971 -0.233141
C21   C     C_R   0.139285 0.359167 0.888737 0.853286
C22   C     C_R   0.769432 0.286477 0.065057 -0.234213
C23   C     C_R   0.232851 0.176726 0.992103 -0.225610
C24   C     C_R   0.739940 0.795970 0.947366 -0.245676
C25   C     C_R   0.730566 0.213525 0.934940 -0.234207
C26   C     C_R   0.269410 0.786500 0.065031 -0.233135
C27   C     C_R   0.177502 0.228430 0.936016 0.290160
C28   C     C_R   0.793226 0.742478 0.998516 0.304427
C29   C     C_R   0.783435 0.267766 0.985995 0.295195
C30   C     C_R   0.216543 0.732258 0.013979 0.295698
C31   C     C_R   0.706783 0.757534 0.001500 0.304434
C32   C     C_R   0.140565 0.639554 0.891332 0.852774
C33   C     C_R   0.322498 0.271570 0.063984 0.290144
C34   C     C_R   0.283459 0.767740 0.986024 0.295705
C35   C     C_R   0.716562 0.232236 0.014001 0.295202
C36   C     C_R   0.194867 0.302486 0.944308 -0.119833
C37   C     C_R   0.803612 0.695987 0.052058 -0.134205
C38   C     C_R   0.803320 0.304317 0.052001 -0.119434
C39   C     C_R   0.196681 0.695682 0.948001 -0.118858
C40   C     C_R   0.696392 0.804019 0.947952 -0.134190
C41   C     C_R   0.305133 0.197514 0.055692 -0.119839
C42   C     C_R   0.303320 0.804316 0.052001 -0.118867
C43   C     C_R   0.859436 0.360445 0.108669 0.854718
C44   C     C_R   0.696679 0.195684 0.947997 -0.119443
C45   C     C_R   0.049985 0.454289 0.524230 0.285075
C46   C     C_R   0.950002 0.545717 0.475756 0.285411
C47   C     C_R   0.549990 0.954275 0.524236 0.285410
C48   C     C_R   0.450023 0.045720 0.475778 0.285074
C49   C     C_R   0.049385 0.457003 0.577144 -0.236178
C50   C     C_R   0.950604 0.543004 0.422842 -0.238448
C51   C     C_R   0.549389 0.956987 0.577150 -0.238446
C52   C     C_R   0.450622 0.043006 0.422863 -0.236174
C53   C     C_R   0.999593 0.502044 0.552965 -0.116283
C54   C     C_R   0.360715 0.140832 0.111263 0.853301
C55   C     C_R   0.000400 0.497965 0.447026 -0.114826
C56   C     C_R   0.499601 0.002035 0.552974 -0.114821
C57   C     C_R   0.500407 0.997956 0.447034 -0.116277
C58   C     C_R   0.140603 0.360467 0.389853 0.854541
C59   C     C_R   0.859396 0.639532 0.610147 0.854369
C60   C     C_R   0.859384 0.360526 0.610165 0.847880
C61   C     C_R   0.140626 0.639464 0.389842 0.839258
C62   C     C_R   0.640603 0.860468 0.389853 0.854381
C63   C     C_R   0.359397 0.139533 0.610147 0.854554
C64   C     C_R   0.359375 0.860535 0.610158 0.839255
C65   C     C_R   0.640484 0.860367 0.891299 0.850222
C66   C     C_R   0.640616 0.139475 0.389835 0.847876
C67   C     C_R   0.000137 0.498543 0.391328 0.852088
C68   C     C_R   0.999861 0.501463 0.608670 0.854265
C69   C     C_R   0.500139 0.998537 0.391330 0.854260
C70   C     C_R   0.499863 0.001456 0.608672 0.852083
C71   C     C_R   0.999553 0.499693 0.108058 0.881533
C72   C     C_R   0.000383 0.500269 0.891861 0.878054
C73   C     C_R   0.499622 0.999730 0.108144 0.878096
C74   C     C_R   0.500442 0.000307 0.891937 0.881583
C75   C     C_3   0.059514 0.532806 0.077429 0.086305
C76   C     C_R   0.640564 0.139555 0.891330 0.854734
C77   C     C_3   0.940421 0.466866 0.922420 0.083021
C78   C     C_3   0.000967 0.569260 0.985121 0.131804
C79   C     C_3   0.998914 0.430437 0.014705 0.136505
C80   C     C_3   0.559543 0.033204 0.077540 0.083034
C81   C     C_3   0.440524 0.967120 0.922612 0.086328
C82   C     C_3   0.501003 0.069563 0.985211 0.136517
C83   C     C_3   0.499118 0.930738 0.014963 0.131821
C84   C     C_3   0.060153 0.464300 0.042746 0.224880
C85   C     C_3   0.939730 0.535341 0.957041 0.229726
C86   C     C_3   0.560311 0.964732 0.042995 0.229684
C87   C     C_R   0.359435 0.860446 0.108668 0.852792
C88   C     C_3   0.439807 0.035625 0.957218 0.224830
C89   C     C_3   0.000831 0.501067 0.949252 -0.240039
C90   C     C_3   0.999057 0.498682 0.050586 -0.245343
C91   C     C_3   0.500936 0.001318 0.949406 -0.245373
C92   C     C_3   0.499178 0.998930 0.050757 -0.240060
C93   C     C_R   0.230372 0.285980 0.526109 -0.220411
C94   C     C_R   0.769642 0.714034 0.473903 -0.218293
C95   C     C_R   0.767492 0.288005 0.472230 -0.230029
C96   C     C_R   0.232228 0.712282 0.527558 -0.238663
C97   C     C_R   0.730358 0.785965 0.526097 -0.218296
C98   C     C_R   0.803221 0.695593 0.554514 -0.135509
C99   C     C_R   0.269628 0.214021 0.473891 -0.220414
C100  C     C_R   0.267774 0.787714 0.472443 -0.238665
C101  C     C_R   0.732506 0.211998 0.527770 -0.230031
C102  C     C_R   0.783119 0.731615 0.580646 0.286075
C103  C     C_R   0.216866 0.268370 0.419342 0.285196
C104  C     C_R   0.215028 0.733365 0.417818 0.293116
C105  C     C_R   0.785278 0.266313 0.582427 0.299074
C106  C     C_R   0.283134 0.231631 0.580658 0.285202
C107  C     C_R   0.716880 0.768384 0.419354 0.286081
C108  C     C_R   0.714718 0.233692 0.417571 0.299077
H1    H     H_    0.214373 0.312874 0.545857 0.221796
H2    H     H_    0.280893 0.380289 0.015347 0.200906
H3    H     H_    0.214790 0.686181 0.883492 0.201553
H4    H     H_    0.785251 0.313777 0.116557 0.201568
H5    H     H_    0.219107 0.119711 0.984653 0.200910
H6    H     H_    0.731804 0.830733 0.905653 0.208658
H7    H     H_    0.714747 0.186225 0.883440 0.201569
H8    H     H_    0.285211 0.813818 0.116510 0.201554
H9    H     H_    0.086745 0.422734 0.636211 0.199924
H10   H     H_    0.913241 0.577270 0.363772 0.197858
H11   H     H_    0.586746 0.922714 0.636215 0.197851
H12   H     H_    0.785651 0.687151 0.454163 0.221890
H13   H     H_    0.413268 0.077282 0.363803 0.199919
H14   H     H_    0.144820 0.540230 0.216026 0.252490
H15   H     H_    0.212711 0.634868 0.237035 0.261499
H16   H     H_    0.151463 0.622212 0.122062 0.251695
H17   H     H_    0.211303 0.548768 0.201775 0.264811
H18   H     H_    0.855236 0.459199 0.783808 0.252394
H19   H     H_    0.788140 0.363620 0.763784 0.261891
H20   H     H_    0.787716 0.450398 0.796308 0.264399
H21   H     H_    0.848433 0.378374 0.878100 0.251601
H22   H     H_    0.037318 0.653078 0.972863 0.270273
H23   H     H_    0.781786 0.316461 0.451076 0.202350
H24   H     H_    0.996052 0.754659 0.983597 0.246811
H25   H     H_    0.061878 0.701226 0.084707 0.248745
H26   H     H_    0.965928 0.691404 0.002274 0.284661
H27   H     H_    0.962717 0.346858 0.027387 0.270648
H28   H     H_    0.003666 0.245034 0.016302 0.246535
H29   H     H_    0.032732 0.308203 0.996177 0.274371
H30   H     H_    0.937083 0.298146 0.914941 0.250958
H31   H     H_    0.644721 0.041001 0.216144 0.252424
H32   H     H_    0.711666 0.136676 0.235972 0.261929
H33   H     H_    0.651425 0.121714 0.121706 0.251622
H34   H     H_    0.217707 0.684051 0.548527 0.202337
H35   H     H_    0.712269 0.049842 0.203704 0.264387
H36   H     H_    0.355219 0.959579 0.784021 0.252521
H37   H     H_    0.287469 0.864846 0.763181 0.261538
H38   H     H_    0.288734 0.950979 0.798258 0.264807
H39   H     H_    0.348690 0.877652 0.878125 0.251712
H40   H     H_    0.537079 0.153199 0.972408 0.270649
H41   H     H_    0.495958 0.254952 0.983353 0.246562
H42   H     H_    0.562723 0.201972 0.084823 0.250890
H43   H     H_    0.467123 0.191704 0.003728 0.274335
H44   H     H_    0.462894 0.846861 0.027351 0.270272
H45   H     H_    0.714348 0.812848 0.545836 0.221891
H46   H     H_    0.504338 0.745353 0.016762 0.246855
H47   H     H_    0.534216 0.808691 0.997817 0.284654
H48   H     H_    0.438317 0.798649 0.915534 0.248657
H49   H     H_    0.285627 0.187127 0.454143 0.221797
H50   H     H_    0.282296 0.815945 0.451474 0.202335
H51   H     H_    0.718211 0.183543 0.548922 0.202348
H52   H     H_    0.768204 0.669276 0.094360 0.208653
N1    N     N_2   0.122706 0.568471 0.163065 -0.278483
N2    N     N_2   0.877292 0.431120 0.836807 -0.278976
N3    N     N_2   0.001774 0.644299 0.967535 -0.264588
N4    N     N_2   0.998024 0.355440 0.032308 -0.262325
N5    N     N_2   0.622632 0.069034 0.163104 -0.278958
N6    N     N_2   0.377371 0.931375 0.837023 -0.278456
N7    N     N_2   0.501798 0.144565 0.967521 -0.262318
N8    N     N_2   0.498409 0.855693 0.032640 -0.264597
O1    O     O_3   0.999990 0.500000 0.250040 -0.528077
O2    O     O_R   0.585480 0.853830 0.866170 -0.593046
O3    O     O_R   0.585480 0.146170 0.866170 -0.599672
O4    O     O_R   0.414520 0.853830 0.133830 -0.599121
O5    O     O_R   0.085470 0.353820 0.304740 -0.601288
O6    O     O_R   0.914530 0.646180 0.695260 -0.601220
O7    O     O_R   0.914530 0.353820 0.695260 -0.584777
O8    O     O_R   0.085470 0.646180 0.304740 -0.596399
O9    O     O_R   0.585470 0.853820 0.304740 -0.601235
O10   O     O_R   0.414530 0.146180 0.695260 -0.601304
O11   O     O_R   0.414530 0.853820 0.695260 -0.596407
O12   O     O_3   0.000010 0.500000 0.749960 -0.529703
O13   O     O_R   0.585470 0.146180 0.304740 -0.584782
O14   O     O_R   0.853810 0.414550 0.134600 -0.640803
O15   O     O_R   0.146190 0.585450 0.865400 -0.643110
O16   O     O_R   0.146190 0.414550 0.865400 -0.644964
O17   O     O_R   0.853810 0.585450 0.134600 -0.647351
O18   O     O_R   0.353810 0.914550 0.134600 -0.643104
O19   O     O_R   0.646190 0.085450 0.865400 -0.640797
O20   O     O_R   0.646190 0.914550 0.865400 -0.647349
O21   O     O_R   0.353810 0.085450 0.134600 -0.644956
O22   O     O_R   0.146170 0.585430 0.426970 -0.643179
O23   O     O_3   0.499990 0.000000 0.250040 -0.529696
O24   O     O_R   0.853830 0.414570 0.573030 -0.644356
O25   O     O_R   0.853830 0.585430 0.573030 -0.627310
O26   O     O_R   0.146170 0.414570 0.426970 -0.627494
O27   O     O_R   0.646170 0.085430 0.426970 -0.644352
O28   O     O_R   0.353830 0.914570 0.573030 -0.643175
O29   O     O_R   0.353830 0.085430 0.573030 -0.627490
O30   O     O_R   0.646170 0.914570 0.426970 -0.627307
O31   O     O_R   0.939250 0.500000 0.306600 -0.646029
O32   O     O_R   0.060750 0.500000 0.693400 -0.643811
O33   O     O_R   0.439250 0.000000 0.306600 -0.643807
O34   O     O_3   0.500010 0.000000 0.749960 -0.528071
O35   O     O_R   0.560750 0.000000 0.693400 -0.646025
O36   O     O_R   0.999990 0.560720 0.132740 -0.593849
O37   O     O_R   0.000010 0.439280 0.867260 -0.603392
O38   O     O_R   0.000010 0.560720 0.867260 -0.628681
O39   O     O_R   0.999990 0.439280 0.132740 -0.629823
O40   O     O_R   0.499990 0.060720 0.132740 -0.603442
O41   O     O_R   0.500010 0.939280 0.867260 -0.593887
O42   O     O_R   0.500010 0.060720 0.867260 -0.629850
O43   O     O_R   0.499990 0.939280 0.132740 -0.628705
O44   O     O_R   0.060720 0.500000 0.428060 -0.605398
O45   O     O_R   0.914520 0.646170 0.133830 -0.593037
O46   O     O_R   0.939280 0.500000 0.571940 -0.604847
O47   O     O_R   0.560720 1.000000 0.428060 -0.604850
O48   O     O_R   0.439280 0.000000 0.571940 -0.605401
O49   O     O_R   0.085480 0.353830 0.866170 -0.588910
O50   O     O_R   0.085480 0.646170 0.866170 -0.599118
O51   O     O_R   0.914520 0.353830 0.133830 -0.599671
O52   O     O_R   0.414520 0.146170 0.133830 -0.588925
Zn1   Zn    Zn3+2 0.000000 0.413230 0.206100 1.049240
Zn2   Zn    Zn3+2 0.086780 0.500000 0.792790 1.003800
Zn3   Zn    Zn3+2 0.413220 0.000000 0.207210 1.003821
Zn4   Zn    Zn3+2 0.586780 0.000000 0.792790 1.000458
Zn5   Zn    Zn3+2 0.086760 0.500000 0.380740 1.022420
Zn6   Zn    Zn3+2 0.913240 0.500000 0.619260 1.027123
Zn7   Zn    Zn3+2 0.586760 0.000000 0.380740 1.027127
Zn8   Zn    Zn3+2 0.413240 0.000000 0.619260 1.022424
Zn9   Zn    Zn3+2 0.000000 0.586770 0.793900 1.047796
Zn10  Zn    Zn3+2 0.000000 0.413230 0.793900 1.067592
Zn11  Zn    Zn3+2 0.000000 0.586770 0.206100 1.062326
Zn12  Zn    Zn3+2 0.500000 0.913230 0.206100 1.047786
Zn13  Zn    Zn3+2 0.500000 0.086770 0.793900 1.049231
Zn14  Zn    Zn3+2 0.500000 0.913230 0.793900 1.062309
Zn15  Zn    Zn3+2 0.500000 0.086770 0.206100 1.067569
Zn16  Zn    Zn3+2 0.913220 0.500000 0.207210 1.000439

loop_
_geom_bond_atom_site_label_1
_geom_bond_atom_site_label_2
_ccdc_geom_bond_type
O33   Zn3   S    
C6    H25   S    
C47   C51   A    
C57   C69   S    
C7    H29   S    
C53   C68   S    
O23   Zn3   S    
C11   N8    S    
C25   C44   A    
C22   C35   A    
O42   Zn13  S    
C77   C89   S    
H14   N1    S    
C2    C93   A    
C75   N1    S    
O44   Zn5   S    
C48   C52   A    
O38   Zn9   S    
C93   H1    S    
O34   Zn14  S    
C75   C90   S    
C80   C82   S    
O37   Zn10  S    
C82   C91   S    
C96   H34   S    
C21   C36   S    
C82   C88   S    
Br19  C88   S    
O34   Zn8   S    
C75   C84   S    
C81   C83   S    
C68   O46   A    
C26   C30   A    
C38   C43   S    
C22   C38   A    
C19   C36   A    
O1    Zn11  S    
C17   C100  A    
C10   N7    S    
C71   O39   A    
O43   Zn12  S    
C24   C28   A    
C94   H12   S    
C28   C37   A    
O31   Zn16  S    
C59   O25   A    
C26   H8    S    
H44   N8    S    
C73   O40   A    
C101  H51   S    
C30   C39   A    
C65   O2    A    
C71   C90   S    
C77   C85   S    
C73   O43   A    
O1    Zn16  S    
H36   N6    S    
C5    N2    S    
Br23  C105  S    
C94   C98   A    
O23   Zn15  S    
O21   Zn3   S    
C71   O36   A    
C32   O50   A    
C10   H43   S    
C61   O8    A    
O35   Zn4   S    
C80   C92   S    
C66   O13   A    
Br22  C104  S    
C34   C42   A    
C20   C34   A    
O51   Zn1   S    
O40   Zn15  S    
C13   C95   A    
C7    N4    S    
C46   C50   A    
C13   C60   S    
C45   C49   A    
C79   C84   S    
Br9   C31   S    
C72   O38   A    
C42   C87   S    
Br21  C103  S    
Br11  C34   S    
C51   C56   A    
C63   O10   A    
C55   C67   S    
C7    H28   S    
O11   Zn14  S    
O20   Zn4   S    
C87   O4    A    
C100  C104  A    
O12   Zn6   S    
O30   Zn7   S    
C20   H3    S    
C6    H24   S    
C16   C108  A    
C7    H30   S    
C9    H37   S    
C4    H17   S    
C2    C58   S    
O27   Zn7   S    
C8    H33   S    
O46   Zn6   S    
C46   C53   A    
O23   Zn7   S    
C23   H5    S    
H40   N7    S    
O39   Zn1   S    
O52   Zn15  S    
C82   N7    S    
C9    H38   S    
O34   Zn13  S    
Br12  C85   S    
O45   Zn11  S    
Br2   C107  S    
C65   O20   A    
O16   Zn2   S    
C60   O7    A    
C11   H47   S    
C83   C92   S    
C4    H16   S    
O47   Zn7   S    
Br3   C108  S    
C68   O32   A    
C79   C90   S    
O18   Zn3   S    
C58   O5    A    
O10   Zn13  S    
Br8   C30   S    
C17   C64   S    
C43   O51   A    
O17   Zn16  S    
C49   H9    S    
O8    Zn11  S    
C18   H52   S    
C3    C96   A    
C67   O44   A    
C54   O21   A    
C64   O28   A    
C9    N6    S    
O2    Zn14  S    
O49   Zn10  S    
H27   N4    S    
C83   N8    S    
C19   H2    S    
C8    N5    S    
C44   C76   S    
C100  H50   S    
C10   H42   S    
C69   O33   A    
C35   C44   A    
C5    H19   S    
O36   Zn11  S    
O12   Zn10  S    
C29   C38   A    
C3    C17   A    
Br16  C47   S    
C99   C103  A    
C74   O42   A    
O29   Zn8   S    
C1    O45   A    
O3    Zn13  S    
C101  C105  A    
C31   C40   A    
Br10  C33   S    
O22   Zn5   S    
C95   C108  A    
C32   C39   S    
H31   N5    S    
C1    C37   S    
C72   O37   A    
C73   C92   S    
C1    O17   A    
C93   C106  A    
C26   C42   A    
C18   C37   A    
C66   O27   A    
C43   O14   A    
C51   H11   S    
C70   O35   A    
O1    Zn1   S    
O24   Zn6   S    
C85   C90   S    
O6    Zn9   S    
O32   Zn2   S    
C81   C88   S    
C52   H13   S    
O48   Zn8   S    
C21   O16   A    
O1    Zn5   S    
C50   C55   A    
O28   Zn8   S    
C32   O15   A    
C80   N5    S    
C83   C86   S    
C59   C98   S    
C72   C89   S    
C45   C55   A    
O25   Zn6   S    
Br7   C29   S    
C56   C70   S    
C77   N2    S    
C9    H39   S    
O15   Zn2   S    
C21   O49   A    
C61   O22   A    
C88   C92   S    
Br4   C3    S    
C5    H21   S    
O13   Zn15  S    
C76   O3    A    
C40   C65   S    
C11   H48   S    
C6    H26   S    
Br15  C46   S    
O14   Zn16  S    
C4    H15   S    
C95   H23   S    
C41   C54   S    
C81   N6    S    
C81   C91   S    
C14   C106  A    
Br5   C27   S    
C79   N4    S    
Br18  C86   S    
C12   C104  A    
C33   C41   A    
O19   Zn4   S    
C52   C57   A    
H18   N2    S    
C23   C27   A    
C63   O29   A    
O7    Zn10  S    
O34   Zn4   S    
O41   Zn14  S    
Br13  C35   S    
C12   C61   S    
O9    Zn12  S    
C14   C99   A    
H22   N3    S    
O4    Zn12  S    
C76   O19   A    
C78   N3    S    
C15   C97   A    
C24   H6    S    
C14   C63   S    
C16   C66   S    
C6    N3    S    
C25   H7    S    
C87   O18   A    
C62   O9    A    
C48   C56   A    
C10   H41   S    
C4    N1    S    
C5    H20   S    
C80   C86   S    
O12   Zn9   S    
C74   C91   S    
C94   C107  A    
C74   O41   A    
C15   C107  A    
C58   O26   A    
C11   H46   S    
C18   C31   A    
C25   C29   A    
C16   C101  A    
C8    H32   S    
O5    Zn1   S    
O23   Zn12  S    
Br14  C45   S    
C13   C105  A    
C98   C102  A    
C2    C103  A    
C64   O11   A    
C50   H10   S    
C12   C96   A    
C54   O52   A    
C69   O47   A    
C24   C40   A    
C19   C33   A    
Br1   C84   S    
C22   H4    S    
C84   C89   S    
O26   Zn5   S    
Br24  C106  S    
C97   C102  A    
C75   C78   S    
C97   H45   S    
Br17  C48   S    
C77   C79   S    
C20   C39   A    
C8    H35   S    
C78   C89   S    
O50   Zn9   S    
C49   C53   A    
Br20  C102  S    
C99   H49   S    
C78   C85   S    
C59   O6    A    
C27   C36   A    
C62   O30   A    
C15   C62   S    
Br6   C28   S    
C70   O48   A    
C67   O31   A    
C86   C91   S    
C23   C41   A    
O12   Zn2   S    
C60   O24   A    
C47   C57   A    
