data_mof_unit_40394.cif
_audit_creation_date              2013-03-05T16:43:18-0500
_audit_creation_method            fapswitch 2.2
_symmetry_space_group_name_H-M    P1
_symmetry_Int_Tables_number       1
_space_group_crystal_system       triclinic
_cell_length_a                    15.722318
_cell_length_b                    10.665634
_cell_length_c                    9.871496
_cell_angle_alpha                 90.042453
_cell_angle_beta                  89.773913
_cell_angle_gamma                 90.086761
_cell_volume                      1655.32102034

loop_
_atom_site_label
_atom_site_type_symbol
_atom_site_description
_atom_site_fract_x
_atom_site_fract_y
_atom_site_fract_z
_atom_type_partial_charge
O1    O     O_R   0.500010 0.316790 0.614690 -0.628373
O2    O     O_R   0.500000 0.316760 0.385350 -0.622711
C1    C     C_R   0.502646 0.259945 0.500009 0.867044
O3    O     O_R   0.377150 0.500020 0.614720 -0.562002
O4    O     O_R   0.377140 0.499990 0.385380 -0.621583
C2    C     C_R   0.338310 0.500022 0.500242 0.901213
Zn1   Zn    Zn3+2 0.500010 0.500020 0.653130 1.016519
Zn2   Zn    Zn3+2 0.499990 0.499980 0.346870 0.951866
O5    O     O_R   0.500000 0.683240 0.614650 -0.562105
O6    O     O_R   0.499990 0.683210 0.385310 -0.627081
O7    O     O_R   0.622860 0.500010 0.614620 -0.610635
O8    O     O_R   0.622850 0.499980 0.385280 -0.619434
C3    C     C_R   0.502929 0.740002 0.500041 0.877070
C4    C     C_R   0.661731 0.500376 0.499756 0.895623
C5    C     C_3   0.048772 0.382419 0.569714 -0.492451
C6    C     C_3   0.049599 0.507384 0.353354 -0.374464
C7    C     C_3   0.951501 0.507426 0.353120 -0.395737
H1    H     H_    0.926768 0.298034 0.516587 0.183159
H2    H     H_    0.072190 0.298052 0.514553 0.192356
H3    H     H_    0.073681 0.592581 0.300544 0.212829
H4    H     H_    0.073271 0.424553 0.295822 0.165847
H5    H     H_    0.927918 0.424934 0.295067 0.170708
H6    H     H_    0.928101 0.593232 0.301094 0.176194
C8    C     C_1   0.750679 0.501534 0.499528 -0.197988
C9    C     C_3   0.082622 0.503277 0.501019 0.268365
C10   C     C_3   0.950663 0.382828 0.570288 -0.419216
C11   C     C_3   0.917513 0.502990 0.500391 0.313102
C12   C     C_3   0.950618 0.619294 0.578092 -0.462845
C13   C     C_3   0.049323 0.619255 0.580827 0.373948
C14   C     C_1   0.826048 0.502451 0.499871 -0.103021
C15   C     C_1   0.174104 0.501789 0.500772 -0.030558
C16   C     C_1   0.249433 0.500836 0.500532 -0.108756
H7    H     H_    0.070741 0.608481 0.688217 0.071274
H8    H     H_    0.925723 0.618872 0.683849 0.125945
H9    H     H_    0.072428 0.376091 0.675654 0.205921
H10   H     H_    0.926941 0.378293 0.676604 0.175717
H11   H     H_    0.926723 0.706284 0.528936 0.194159
C17   C     C_R   0.515045 0.063961 0.623171 0.122279
C18   C     C_R   0.516525 0.128575 0.500717 -0.095784
C19   C     C_R   0.534704 0.064759 0.379764 -0.228894
H12   H     H_    0.542652 0.113821 0.284476 0.172004
C20   C     C_R   0.535023 0.935100 0.379853 -0.227672
H13   H     H_    0.543184 0.885932 0.284605 0.170125
C21   C     C_R   0.517052 0.871323 0.500879 -0.107699
C22   C     C_R   0.515400 0.936102 0.623320 0.152494
C23   C     C_3   0.453293 0.928684 0.738206 -0.413093
C24   C     C_3   0.452779 0.070725 0.737784 -0.526379
H14   H     H_    0.391384 0.886563 0.708232 0.207387
H15   H     H_    0.482159 0.888471 0.831101 0.242007
H16   H     H_    0.390618 0.111174 0.707051 0.206260
H17   H     H_    0.481295 0.112380 0.830391 0.204005
C25   C     C_R   0.462847 0.404066 0.071793 0.140933
N1    N     N_R   0.499430 0.499140 0.142800 -0.104193
C26   C     C_R   0.544057 0.587747 0.071984 -0.218212
H18   H     H_    0.576451 0.660939 0.127407 0.153065
C27   C     C_R   0.546237 0.586357 0.926873 0.549723
N2    N     N_R   0.499430 0.499180 0.857150 -0.122272
C28   C     C_R   0.461127 0.405602 0.929526 -0.005885
C29   C     C_3   0.368861 0.368419 0.929613 0.142253
C30   C     C_3   0.372631 0.362926 0.083459 -0.517237
H19   H     H_    0.356791 0.275830 0.881644 0.096232
H20   H     H_    0.331717 0.432732 0.136074 0.244194
H21   H     H_    0.367464 0.265952 0.123853 0.168377
O9    O     O_3   0.586773 0.680115 0.854123 -0.595496
C31   C     C_3   0.673217 0.693093 0.891344 0.084221
H22   H     H_    0.712768 0.678625 0.799161 0.174098
H23   H     H_    0.696106 0.624012 0.967796 0.104354
C32   C     C_3   0.688934 0.825714 0.942760 -0.887516
H24   H     H_    0.650514 0.843678 0.035316 0.243709
H25   H     H_    0.757307 0.837864 0.967356 0.216709
H26   H     H_    0.671082 0.894848 0.863724 0.264576
N3    N     N_R   0.311505 0.467081 0.882327 0.251960
O10   O     O_R   0.242607 0.436131 0.817899 -0.439202
O11   O     O_R   0.323131 0.583665 0.917088 -0.399546
O12   O     O_3   0.081397 0.730857 0.520787 -0.607802
C33   C     C_3   0.091303 0.825829 0.619334 0.094476
H27   H     H_    0.142470 0.800084 0.691802 0.161993
H28   H     H_    0.030846 0.842073 0.675863 0.130098
C34   C     C_3   0.116640 0.947501 0.549614 -0.817808
H29   H     H_    0.066461 0.976133 0.477086 0.251441
H30   H     H_    0.124839 0.022823 0.626235 0.205746
H31   H     H_    0.177559 0.934721 0.493950 0.260070

loop_
_geom_bond_atom_site_label_1
_geom_bond_atom_site_label_2
_geom_bond_distance
_ccdc_geom_bond_type
C9    C15   1.438429 S    
C2    C16   1.397383 S    
C6    H4    1.113606 S    
H1    C10   1.113503 S    
C33   C34   1.521183 S    
N1    C26   1.367192 A    
C21   C22   1.391938 A    
Zn1   O7    1.967069 S    
C23   H15   1.111445 S    
C10   C11   1.548033 S    
C7    H6    1.113494 S    
C30   H21   1.111506 S    
C12   C13   1.552218 S    
C33   H28   1.114021 S    
O4    C2    1.285645 A    
O7    C4    1.285971 A    
C5    C9    1.549523 S    
C13   H7    1.119604 S    
C27   N2    1.371423 A    
C30   H20   1.111811 S    
C4    C8    1.398485 S    
O5    C3    1.284182 A    
C17   C22   1.363720 A    
C25   C30   1.488140 S    
C26   H18   1.080952 S    
C32   H24   1.110010 S    
C31   H23   1.116111 S    
C27   O9    1.384708 S    
C6    H3    1.113072 S    
C29   N3    1.464692 S    
C19   C20   1.382914 A    
C12   H8    1.113501 S    
C29   C30   1.521257 S    
C11   C14   1.438066 S    
C20   C21   1.402784 A    
O3    Zn1   1.969973 S    
C5    H9    1.113473 S    
C24   H16   1.112259 S    
C23   H14   1.112450 S    
C9    C13   1.556320 S    
C26   C27   1.432806 A    
C29   H19   1.111253 S    
C7    C11   1.547642 S    
C33   H27   1.113476 S    
N3    O11   1.302492 A    
C18   C19   1.402591 A    
C34   H30   1.110695 S    
C6    C7    1.542338 S    
C5    C10   1.542503 S    
C24   H17   1.111812 S    
C28   C29   1.503283 S    
C22   C23   1.495688 S    
O1    C1    1.284362 A    
C5    H2    1.113746 S    
O12   C33   1.412768 S    
C34   H31   1.110851 S    
C15   C16   1.184389 T    
Zn2   O8    1.969973 S    
C31   C32   1.522595 S    
C17   C24   1.494989 S    
C25   C28   1.404863 A    
O3    C2    1.286627 A    
C19   H12   1.083443 S    
O8    C4    1.286923 A    
C20   H13   1.083530 S    
C25   N1    1.360417 A    
C10   H10   1.113478 S    
C6    C9    1.549981 S    
Zn1   O5    1.991012 S    
C23   C24   1.514997 S    
O1    Zn1   1.990487 S    
O2    Zn2   1.991012 S    
N3    O10   1.300342 A    
O6    C3    1.284938 A    
Zn2   N1    2.014543 S    
O4    Zn2   1.967068 S    
C13   O12   1.421000 S    
C7    H5    1.113521 S    
O9    C31   1.415851 S    
O2    C1    1.285103 A    
N2    C28   1.365686 A    
C17   C18   1.391995 A    
C12   H11   1.113808 S    
C32   H26   1.111039 S    
C8    C14   1.185030 T    
C1    C18   1.418381 S    
C34   H29   1.110761 S    
Zn2   O6    1.990487 S    
C31   H22   1.110934 S    
C11   C12   1.548471 S    
C32   H25   1.110369 S    
Zn1   N2    2.013994 S    
C3    C21   1.417807 S    
