data_mof_unit_63050.cif
_audit_creation_date              2012-12-10T18:24:00-0500
_audit_creation_method            fapswitch 2.2
_symmetry_space_group_name_H-M    P1
_symmetry_Int_Tables_number       1
_space_group_crystal_system       triclinic
_cell_length_a                    22.499981
_cell_length_b                    22.486255
_cell_length_c                    14.630791
_cell_angle_alpha                 90.000023
_cell_angle_beta                  89.961266
_cell_angle_gamma                 90.000038
_cell_volume                      7402.30524639

loop_
_atom_site_label
_atom_site_type_symbol
_atom_type_description
_atom_site_fract_x
_atom_site_fract_y
_atom_site_fract_z
_atom_type_partial_charge
C1    C     C_R   0.419762 0.919745 0.500015 0.827416
C2    C     C_R   0.580237 0.080255 0.499985 0.827415
C3    C     C_R   0.580237 0.919745 0.499985 0.827414
C4    C     C_R   0.419762 0.080255 0.500015 0.827415
C5    C     C_R   0.919762 0.419745 0.500015 0.827415
C6    C     C_R   0.080238 0.580255 0.499985 0.827415
C7    C     C_R   0.080237 0.419745 0.499985 0.827415
C8    C     C_R   0.919762 0.580255 0.500015 0.827414
C9    C     C_1   0.337399 0.162650 0.500251 -0.028434
C10   C     C_1   0.662601 0.837350 0.499749 -0.028434
C11   C     C_1   0.662601 0.162649 0.499748 -0.028434
C12   C     C_1   0.337398 0.837351 0.500252 -0.028434
C13   C     C_1   0.837399 0.662650 0.500251 -0.028434
C14   C     C_1   0.162601 0.337350 0.499749 -0.028434
C15   C     C_1   0.162601 0.662649 0.499748 -0.028434
C16   C     C_1   0.837398 0.337351 0.500252 -0.028434
C17   C     C_1   0.499982 1.000000 0.194104 0.129863
C18   C     C_1   0.500018 0.000000 0.805896 0.129862
C19   C     C_1   0.999981 0.500000 0.194104 0.129863
C20   C     C_1   0.000018 0.500000 0.805896 0.129862
C21   C     C_3   0.528193 0.048638 0.969193 -0.138719
C22   C     C_3   0.471807 0.951362 0.030807 -0.138720
C23   C     C_3   0.471995 0.048747 0.030807 -0.138729
C24   C     C_3   0.528004 0.951253 0.969193 -0.138728
C25   C     C_3   0.028082 0.548702 0.969193 -0.138725
C26   C     C_3   0.971918 0.451298 0.030807 -0.138724
C27   C     C_3   0.971885 0.548683 0.030808 -0.138723
C28   C     C_3   0.028115 0.451317 0.969192 -0.138724
C29   C     C_3   0.702604 0.730347 0.545352 -0.021241
C30   C     C_3   0.297387 0.269643 0.454615 -0.021240
C31   C     C_3   0.297381 0.730364 0.454593 -0.021241
C32   C     C_3   0.702611 0.269644 0.545379 -0.021241
C33   C     C_3   0.202613 0.230357 0.545385 -0.021241
C34   C     C_3   0.797396 0.769652 0.454648 -0.021241
C35   C     C_3   0.797389 0.230356 0.454622 -0.021240
C36   C     C_3   0.202619 0.769636 0.545406 -0.021240
C37   C     C_3   0.229161 0.201286 0.459461 -0.023018
C38   C     C_3   0.770830 0.798705 0.540573 -0.023016
C39   C     C_3   0.770837 0.201288 0.540546 -0.023016
C40   C     C_3   0.229155 0.798719 0.459483 -0.023018
C41   C     C_3   0.729170 0.701295 0.459427 -0.023016
C42   C     C_3   0.270839 0.298714 0.540539 -0.023017
C43   C     C_3   0.270844 0.701281 0.540516 -0.023018
C44   C     C_3   0.729163 0.298712 0.459455 -0.023016
C45   C     C_1   0.375056 0.124982 0.500120 -0.151149
C46   C     C_1   0.624944 0.875018 0.499880 -0.151150
C47   C     C_1   0.624944 0.124982 0.499880 -0.151150
C48   C     C_1   0.375056 0.875018 0.500120 -0.151148
C49   C     C_1   0.875056 0.624982 0.500120 -0.151149
C50   C     C_1   0.124944 0.375018 0.499880 -0.151149
C51   C     C_1   0.124944 0.624982 0.499880 -0.151149
C52   C     C_1   0.875056 0.375018 0.500120 -0.151149
C53   C     C_3   0.265396 0.237203 0.587550 -0.242341
C54   C     C_3   0.734622 0.762815 0.412449 -0.242342
C55   C     C_3   0.734607 0.237200 0.412450 -0.242340
C56   C     C_3   0.265408 0.762784 0.587549 -0.242339
C57   C     C_3   0.765378 0.737185 0.587551 -0.242341
C58   C     C_3   0.234604 0.262796 0.412450 -0.242340
C59   C     C_3   0.234592 0.737216 0.412450 -0.242340
C60   C     C_3   0.765393 0.262800 0.587551 -0.242341
C61   C     C_3   0.291652 0.208386 0.500292 0.078500
C62   C     C_3   0.708348 0.791614 0.499708 0.078500
C63   C     C_3   0.708348 0.208386 0.499708 0.078500
C64   C     C_3   0.291652 0.791614 0.500292 0.078499
C65   C     C_3   0.791652 0.708386 0.500292 0.078499
C66   C     C_3   0.208348 0.291614 0.499708 0.078499
C67   C     C_3   0.208348 0.708386 0.499707 0.078500
C68   C     C_3   0.791652 0.291614 0.500293 0.078500
C69   C     C_3   0.556187 0.999891 0.030740 -0.140683
C70   C     C_3   0.443813 0.000109 0.969260 -0.140685
C71   C     C_3   0.056187 0.500019 0.030740 -0.140684
C72   C     C_3   0.943813 0.499981 0.969260 -0.140683
C73   C     C_3   0.499989 1.000000 0.091258 0.074378
C74   C     C_3   0.500011 0.000000 0.908741 0.074378
C75   C     C_3   0.999989 0.500000 0.091258 0.074378
C76   C     C_3   0.000010 0.500000 0.908741 0.074378
Cu1   Cu    Cu3+1 0.500000 0.000000 0.590220 0.996669
Cu2   Cu    Cu3+1 0.500000 0.000000 0.409780 0.996669
Cu3   Cu    Cu3+1 0.000000 0.500000 0.590220 0.996669
Cu4   Cu    Cu3+1 0.000000 0.500000 0.409780 0.996669
H1    H     H_    0.397284 0.000199 0.944088 0.139161
H2    H     H_    0.602715 0.999801 0.055911 0.139160
H3    H     H_    0.897284 0.499965 0.944089 0.139160
H4    H     H_    0.102716 0.500035 0.055911 0.139160
H5    H     H_    0.721840 0.773502 0.341024 0.158047
H6    H     H_    0.278192 0.226530 0.658974 0.158048
H7    H     H_    0.278214 0.773447 0.658973 0.158050
H8    H     H_    0.721814 0.226524 0.341025 0.158049
H9    H     H_    0.221807 0.273469 0.341026 0.158049
H10   H     H_    0.778160 0.726497 0.658976 0.158048
H11   H     H_    0.778186 0.273476 0.658975 0.158048
H12   H     H_    0.221786 0.726553 0.341027 0.158049
H13   H     H_    0.448804 0.089114 0.056033 0.140311
H14   H     H_    0.551196 0.910886 0.943967 0.140310
H15   H     H_    0.551541 0.088915 0.943968 0.140309
H16   H     H_    0.448459 0.911085 0.056032 0.140310
H17   H     H_    0.948601 0.588997 0.056034 0.140309
H18   H     H_    0.051399 0.411003 0.943966 0.140310
H19   H     H_    0.051338 0.589033 0.943968 0.140311
H20   H     H_    0.948662 0.410967 0.056031 0.140310
N1    N     N_1   0.499980 0.000000 0.274190 -0.150635
N2    N     N_1   0.500020 0.000000 0.725810 -0.150634
N3    N     N_1   0.999980 0.500000 0.274190 -0.150635
N4    N     N_1   0.000020 0.500000 0.725810 -0.150634
O1    O     O_R   0.439540 0.939530 0.576170 -0.571597
O2    O     O_R   0.560460 0.060470 0.423830 -0.571597
O3    O     O_R   0.560460 0.939530 0.423830 -0.571597
O4    O     O_R   0.439540 0.060470 0.576170 -0.571597
O5    O     O_R   0.939540 0.439530 0.576170 -0.571598
O6    O     O_R   0.060460 0.560470 0.423830 -0.571597
O7    O     O_R   0.060460 0.439530 0.423830 -0.571597
O8    O     O_R   0.939540 0.560470 0.576170 -0.571597
O9    O     O_R   0.439530 0.939530 0.423800 -0.568170
O10   O     O_R   0.560470 0.060470 0.576200 -0.568170
O11   O     O_R   0.560470 0.939530 0.576200 -0.568170
O12   O     O_R   0.439530 0.060470 0.423800 -0.568170
O13   O     O_R   0.939530 0.439530 0.423800 -0.568169
O14   O     O_R   0.060470 0.560470 0.576200 -0.568169
O15   O     O_R   0.060470 0.439530 0.576200 -0.568170
O16   O     O_R   0.939530 0.560470 0.423800 -0.568170
C77   C     C_1   0.206546 0.147295 0.415121 0.256678
N5    N     N_1   0.188740 0.104714 0.380197 -0.243068
C78   C     C_1   0.793436 0.852687 0.584950 0.256677
N6    N     N_1   0.811236 0.895261 0.619904 -0.243080
C79   C     C_1   0.793451 0.147299 0.584893 0.256675
N7    N     N_1   0.811256 0.104718 0.619821 -0.243076
C80   C     C_1   0.206534 0.852716 0.415169 0.256676
N8    N     N_1   0.188723 0.895303 0.380265 -0.243065
C81   C     C_1   0.706564 0.647313 0.415050 0.256676
N9    N     N_1   0.688764 0.604739 0.380096 -0.243080
C82   C     C_1   0.293454 0.352705 0.584879 0.256677
N10   N     N_1   0.311260 0.395286 0.619803 -0.243069
C83   C     C_1   0.293466 0.647284 0.584831 0.256676
N11   N     N_1   0.311277 0.604697 0.619734 -0.243065
C84   C     C_1   0.706549 0.352701 0.415108 0.256675
N12   N     N_1   0.688744 0.395281 0.380179 -0.243075
C85   C     C_1   0.650062 0.709019 0.594995 0.256158
N13   N     N_1   0.608623 0.692222 0.634103 -0.253734
C86   C     C_1   0.349919 0.290961 0.404936 0.256158
N14   N     N_1   0.391349 0.307750 0.365800 -0.253739
C87   C     C_1   0.349906 0.709053 0.404891 0.256157
N15   N     N_1   0.391332 0.692270 0.365736 -0.253741
C88   C     C_1   0.650077 0.290964 0.595050 0.256156
N16   N     N_1   0.608644 0.307754 0.634180 -0.253738
C89   C     C_1   0.150081 0.209039 0.595064 0.256158
N17   N     N_1   0.108651 0.192249 0.634200 -0.253739
C90   C     C_1   0.849938 0.790981 0.405005 0.256157
N18   N     N_1   0.891376 0.807778 0.365897 -0.253733
C91   C     C_1   0.849923 0.209036 0.404950 0.256157
N19   N     N_1   0.891356 0.192246 0.365820 -0.253739
C92   C     C_1   0.150093 0.790947 0.595109 0.256158
N20   N     N_1   0.108668 0.807730 0.634263 -0.253742

loop_
_geom_bond_atom_site_label_1
_geom_bond_atom_site_label_2
_ccdc_geom_bond_type
C71   C75   S    
Cu4   O16   S    
C9    C45   T    
C39   C79   S    
C26   C72   S    
C37   C58   S    
C11   C47   T    
C90   N18   T    
C72   C76   S    
C89   N17   T    
C36   C67   S    
C78   N6    T    
Cu4   O6    S    
C13   C65   S    
Cu1   Cu2   S    
C4    O4    A    
C31   C43   S    
Cu3   O8    S    
C9    C61   S    
C37   C77   S    
C11   C63   S    
C8    O8    A    
C42   C53   S    
C12   C64   S    
Cu1   O11   S    
C88   N16   T    
Cu3   O14   S    
C20   C76   S    
C18   N2    T    
C31   C59   S    
C55   H8    S    
C43   C83   S    
C70   H1    S    
C17   N1    T    
C32   C88   S    
C69   H2    S    
C59   C67   S    
Cu4   O13   S    
C19   N3    T    
C58   C66   S    
C55   C63   S    
C70   C74   S    
C92   N20   T    
C56   C64   S    
C5    C52   S    
C69   C73   S    
C53   H6    S    
C16   C68   S    
C15   C51   T    
C6    C51   S    
C38   C78   S    
C12   C48   T    
C44   C84   S    
C18   C74   S    
C40   C59   S    
Cu2   N1    S    
C17   C73   S    
C6    O6    A    
C23   C70   S    
Cu1   N2    S    
C10   C62   S    
C1    O9    A    
C23   C73   S    
C14   C50   T    
C27   C75   S    
C34   C65   S    
C22   C70   S    
C25   H19   S    
C24   C69   S    
C4    C45   S    
C33   C53   S    
C57   H10   S    
Cu3   O5    S    
Cu4   N3    S    
C35   C55   S    
C7    O15   A    
C84   N12   T    
C32   C63   S    
C56   H7    S    
C41   C65   S    
C54   C62   S    
C3    O3    A    
C40   C80   S    
C21   C74   S    
C2    O2    A    
C33   C37   S    
C23   H13   S    
C5    O13   A    
Cu2   O3    S    
C31   C87   S    
C35   C39   S    
C10   C46   T    
C36   C56   S    
C24   H14   S    
C26   H20   S    
C38   C57   S    
C34   C90   S    
C36   C40   S    
C15   C67   S    
C33   C66   S    
C26   C75   S    
C14   C66   S    
C36   C92   S    
C13   C49   T    
C60   C68   S    
C77   N5    T    
C42   C82   S    
C33   C89   S    
C25   C71   S    
C29   C57   S    
C34   C54   S    
C21   H15   S    
C21   C23   S    
C79   N7    T    
Cu3   O15   S    
Cu3   N4    S    
C44   C68   S    
C28   C71   S    
C32   C60   S    
C53   C61   S    
Cu1   O10   S    
C28   C76   S    
C39   C63   S    
C8    O16   A    
C71   H4    S    
C60   H11   S    
C28   H18   S    
C29   C62   S    
C27   H17   S    
C30   C86   S    
C29   C41   S    
C34   C38   S    
C22   H16   S    
C31   C64   S    
C4    O12   A    
Cu1   O4    S    
Cu2   O12   S    
C16   C52   T    
C7    C50   S    
C57   C65   S    
C54   H5    S    
C37   C61   S    
C86   N14   T    
C1    C48   S    
C80   N8    T    
C20   N4    T    
C2    C47   S    
C25   C27   S    
C29   C85   S    
C85   N13   T    
C3    C46   S    
C26   C28   S    
C40   C64   S    
Cu2   O2    S    
C25   C76   S    
Cu1   O1    S    
C81   N9    T    
C3    O11   A    
C87   N15   T    
C41   C81   S    
C2    O10   A    
C44   C55   S    
C24   C74   S    
C83   N11   T    
C5    O5    A    
C35   C68   S    
C39   C60   S    
C30   C58   S    
Cu4   O7    S    
C19   C75   S    
C7    O7    A    
C22   C24   S    
C59   H12   S    
C58   H9    S    
C41   C54   S    
C72   H3    S    
Cu3   Cu4   S    
Cu2   O9    S    
C43   C56   S    
C32   C44   S    
C43   C67   S    
C30   C61   S    
C21   C69   S    
C42   C66   S    
C30   C42   S    
C35   C91   S    
C22   C73   S    
C91   N19   T    
C8    C49   S    
C6    O14   A    
C27   C72   S    
C82   N10   T    
C1    O1    A    
C38   C62   S    
