data_mof_unit_48325.cif
_audit_creation_date              2013-03-05T16:24:38-0500
_audit_creation_method            fapswitch 2.2
_symmetry_space_group_name_H-M    P1
_symmetry_Int_Tables_number       1
_space_group_crystal_system       triclinic
_cell_length_a                    27.573853
_cell_length_b                    15.742962
_cell_length_c                    14.960115
_cell_angle_alpha                 90.048115
_cell_angle_beta                  89.833184
_cell_angle_gamma                 90.494766
_cell_volume                      6493.8261518

loop_
_atom_site_label
_atom_site_type_symbol
_atom_site_description
_atom_site_fract_x
_atom_site_fract_y
_atom_site_fract_z
_atom_type_partial_charge
O1    O     O_R   0.500000 0.376780 0.574460 -0.624456
O2    O     O_R   0.500000 0.623220 0.425540 -0.626677
O3    O     O_R   0.500010 0.376780 0.425520 -0.604216
O4    O     O_R   0.499990 0.623220 0.574480 -0.603101
C1    C     C_R   0.499729 0.337619 0.499946 0.902760
C2    C     C_R   0.500218 0.662344 0.499998 0.898808
O5    O     O_R   0.428750 0.500010 0.574460 -0.611661
O6    O     O_R   0.571250 0.499990 0.425540 -0.611008
O7    O     O_R   0.428760 0.500020 0.425520 -0.624097
O8    O     O_R   0.571240 0.499980 0.574480 -0.625957
C3    C     C_R   0.406019 0.500541 0.500122 0.934932
C4    C     C_R   0.593981 0.500083 0.499926 0.939116
Zn1   Zn    Zn3+2 0.499990 0.500000 0.599450 0.969399
Zn2   Zn    Zn3+2 0.500010 0.500000 0.400550 0.970222
C5    C     C_R   0.176088 0.496204 0.575277 0.581895
C6    C     C_R   0.822166 0.527592 0.411787 0.610024
O9    O     O_2   0.202022 0.477851 0.648732 -0.573370
O10   O     O_2   0.796524 0.506657 0.338249 -0.572357
N1    N     N_R   0.200793 0.516961 0.499145 -0.324761
N2    N     N_R   0.798527 0.533071 0.491802 -0.290799
C7    C     C_R   0.178163 0.540406 0.422527 0.584032
C8    C     C_R   0.822337 0.545426 0.570523 0.639834
C9    C     C_R   0.280132 0.588265 0.515143 0.400415
C10   C     C_R   0.718864 0.597638 0.498181 0.384231
C11   C     C_R   0.330824 0.583511 0.516952 0.049914
C12   C     C_R   0.667837 0.590371 0.498597 -0.000323
C13   C     C_R   0.325824 0.429952 0.484303 -0.009574
C14   C     C_R   0.675147 0.433817 0.499449 -0.013656
C15   C     C_R   0.274744 0.434928 0.486824 0.450344
C16   C     C_R   0.726082 0.442884 0.493244 0.413052
C17   C     C_R   0.252570 0.513731 0.499680 0.099562
C18   C     C_R   0.746936 0.524295 0.493646 0.181862
C19   C     C_R   0.100932 0.521712 0.496878 -0.140573
C20   C     C_R   0.898293 0.542617 0.489735 -0.133884
C21   C     C_R   0.124672 0.493705 0.575799 -0.057541
C22   C     C_R   0.872989 0.537658 0.407654 -0.089900
C23   C     C_R   0.096040 0.461803 0.649194 0.113064
C24   C     C_R   0.899577 0.535036 0.325867 0.121192
C25   C     C_R   0.127732 0.549524 0.421348 -0.181889
C26   C     C_R   0.873070 0.552614 0.571443 -0.186999
C27   C     C_R   0.353399 0.504593 0.500574 -0.207793
C28   C     C_R   0.646516 0.508042 0.499575 -0.172803
C29   C     C_R   0.973792 0.530944 0.572450 -0.044586
C30   C     C_R   0.026047 0.544540 0.413517 -0.047496
C31   C     C_R   0.975119 0.532981 0.409668 0.085138
C32   C     C_R   0.022934 0.506114 0.571020 0.094831
C33   C     C_R   0.949016 0.537019 0.490464 -0.057892
C34   C     C_R   0.050139 0.524098 0.493833 -0.056329
C35   C     C_R   0.950098 0.555300 0.651911 0.387205
C36   C     C_R   0.052391 0.583451 0.343615 0.387795
C37   C     C_R   0.899538 0.567775 0.651284 0.368123
C38   C     C_R   0.103396 0.586477 0.347604 0.371982
O11   O     O_2   0.796762 0.546286 0.647567 -0.529145
O12   O     O_2   0.204760 0.553276 0.347794 -0.514247
C39   C     C_R   0.044703 0.459514 0.640833 0.201106
C40   C     C_R   0.949632 0.516675 0.329282 0.241918
C41   C     C_3   0.548544 0.975854 0.498407 0.048546
C42   C     C_3   0.454441 0.023754 0.499151 0.049938
C43   C     C_3   0.523539 0.030246 0.426886 0.428445
C44   C     C_3   0.479448 0.969518 0.570684 0.426422
C45   C     C_1   0.499060 0.248957 0.499852 -0.179838
C46   C     C_1   0.502013 0.750906 0.499652 -0.178615
C47   C     C_3   0.524042 0.028895 0.573068 0.049109
C48   C     C_3   0.478947 0.970794 0.424504 0.051109
C49   C     C_3   0.499335 0.083139 0.500507 -0.071329
C50   C     C_3   0.503605 0.916583 0.497123 -0.074500
C51   C     C_1   0.498756 0.173851 0.499960 0.014040
C52   C     C_1   0.503378 0.825941 0.498605 0.012256
C53   C     C_3   0.504556 0.419449 0.970281 0.058400
C54   C     C_3   0.495492 0.580676 0.029708 0.058060
C55   C     C_3   0.541002 0.468030 0.030097 0.438514
C56   C     C_3   0.459047 0.532098 0.969890 0.438634
N3    N     N_1   0.500020 0.500000 0.268010 -0.096498
N4    N     N_1   0.499980 0.500000 0.731990 -0.096938
C57   C     C_3   0.462322 0.452475 0.029777 0.052492
C58   C     C_3   0.537726 0.547650 0.970199 0.052362
C59   C     C_3   0.499374 0.500574 0.090018 -0.149107
C60   C     C_3   0.500670 0.499545 0.909971 -0.149098
C61   C     C_1   0.499812 0.500195 0.189982 0.139909
C62   C     C_1   0.500210 0.499862 0.810015 0.139391
C63   C     C_3   0.350838 0.346529 0.462479 -0.400354
C64   C     C_3   0.365237 0.299701 0.547531 -0.873404
H1    H     H_    0.389969 0.339424 0.588774 0.276793
H2    H     H_    0.332635 0.282923 0.587711 0.263273
H3    H     H_    0.384421 0.240547 0.529423 0.238398
H4    H     H_    0.327548 0.304715 0.420634 0.219877
H5    H     H_    0.383623 0.357608 0.420799 0.218913
C65   C     C_3   0.651514 0.346565 0.510813 -0.434122
C66   C     C_3   0.636977 0.307977 0.420999 -0.801157
H6    H     H_    0.609784 0.348302 0.387264 0.282408
H7    H     H_    0.669062 0.301408 0.376645 0.262042
H8    H     H_    0.620671 0.244052 0.431966 0.256722
H9    H     H_    0.675879 0.302527 0.546802 0.221566
H10   H     H_    0.618864 0.350425 0.554206 0.208310
C67   C     C_3   0.600597 0.943406 0.491968 -0.389269
C68   C     C_3   0.637803 0.015688 0.490766 -0.812602
H11   H     H_    0.631066 0.059369 0.434063 0.283732
H12   H     H_    0.636643 0.051997 0.554212 0.256004
H13   H     H_    0.674703 0.988955 0.483013 0.247707
H14   H     H_    0.607974 0.901023 0.549336 0.210733
H15   H     H_    0.604362 0.905512 0.429698 0.198961
C69   C     C_3   0.402273 0.055472 0.505922 -0.402417
C70   C     C_3   0.365264 0.982877 0.503880 -0.793657
H16   H     H_    0.365862 0.950179 0.438289 0.255451
H17   H     H_    0.372661 0.936151 0.557536 0.287397
H18   H     H_    0.328370 0.008790 0.514451 0.247478
H19   H     H_    0.398185 0.090709 0.569805 0.198370
H20   H     H_    0.395064 0.100039 0.450192 0.211921
C71   C     C_3   0.457329 0.932319 0.339271 -0.386619
C72   C     C_3   0.436234 0.999728 0.277771 -0.815510
H21   H     H_    0.405244 0.031861 0.310312 0.258307
H22   H     H_    0.464249 0.047754 0.259594 0.286333
H23   H     H_    0.422982 0.969039 0.215515 0.241818
H24   H     H_    0.486341 0.897940 0.302858 0.197834
H25   H     H_    0.428685 0.885426 0.357296 0.209595
C73   C     C_3   0.545771 0.067454 0.658157 -0.384719
C74   C     C_3   0.567187 0.000194 0.719456 -0.820615
H26   H     H_    0.539616 0.950990 0.736433 0.287143
H27   H     H_    0.598809 0.969583 0.687358 0.257488
H28   H     H_    0.579646 0.030720 0.782351 0.241827
H29   H     H_    0.574270 0.114578 0.639885 0.209652
H30   H     H_    0.516742 0.101567 0.694811 0.197675
O13   O     O_3   0.584037 0.434391 0.063672 -0.753840
H31   H     H_    0.603579 0.419119 0.010423 0.332412
O14   O     O_3   0.416013 0.565746 0.936317 -0.752878
H32   H     H_    0.396478 0.581038 0.989568 0.333549
C75   C     C_3   0.512987 0.330440 0.932275 -0.396722
C76   C     C_3   0.516171 0.263044 0.005188 -0.803200
H33   H     H_    0.545128 0.279356 0.053769 0.291478
H34   H     H_    0.481125 0.256466 0.041016 0.255877
H35   H     H_    0.524852 0.200829 0.974308 0.239463
H36   H     H_    0.483258 0.313778 0.885431 0.208809
H37   H     H_    0.547450 0.331199 0.893632 0.198118
C77   C     C_3   0.487075 0.669679 0.067743 -0.396834
C78   C     C_3   0.483878 0.737091 0.994851 -0.801276
H38   H     H_    0.518910 0.743646 0.958971 0.255637
H39   H     H_    0.454896 0.720810 0.946311 0.291793
H40   H     H_    0.475226 0.799307 0.025759 0.239703
H41   H     H_    0.452622 0.668919 0.106420 0.199479
H42   H     H_    0.516819 0.686325 0.114563 0.208488
C79   C     C_3   0.581608 0.595751 0.932063 -0.390209
C80   C     C_3   0.612747 0.636299 0.004906 -0.795709
H43   H     H_    0.592323 0.686197 0.040766 0.251824
H44   H     H_    0.624969 0.587794 0.053465 0.290497
H45   H     H_    0.645267 0.666331 0.973962 0.247410
H46   H     H_    0.604133 0.550442 0.893398 0.203214
H47   H     H_    0.569029 0.645481 0.885220 0.211560
C81   C     C_3   0.418417 0.404373 0.067812 -0.389355
C82   C     C_3   0.387313 0.363856 0.994893 -0.797660
H48   H     H_    0.375137 0.412370 0.946305 0.290764
H49   H     H_    0.407744 0.313939 0.959078 0.252092
H50   H     H_    0.354764 0.333853 0.025761 0.246566
H51   H     H_    0.430970 0.354621 0.114649 0.210988
H52   H     H_    0.395875 0.449675 0.106451 0.203880
O15   O     O_3   0.244811 0.364845 0.475953 -0.749346
H53   H     H_    0.261281 0.314041 0.499453 0.340716
O16   O     O_3   0.757159 0.374567 0.488853 -0.745145
H54   H     H_    0.739936 0.325021 0.463182 0.348755
C83   C     C_3   0.118362 0.432648 0.737065 -0.339133
C84   C     C_3   0.138487 0.342429 0.730562 -0.765624
H55   H     H_    0.108910 0.295775 0.718034 0.236192
H56   H     H_    0.165274 0.336590 0.675560 0.293962
H57   H     H_    0.156445 0.325658 0.794400 0.247505
H58   H     H_    0.146085 0.478386 0.761150 0.254338
H59   H     H_    0.091641 0.435128 0.792545 0.182183
C85   C     C_3   0.876942 0.560430 0.236705 -0.374550
C86   C     C_3   0.907790 0.625896 0.185752 -0.824680
H60   H     H_    0.916416 0.680980 0.229568 0.283204
H61   H     H_    0.942023 0.598040 0.160794 0.272851
H62   H     H_    0.887279 0.649127 0.126979 0.254796
H63   H     H_    0.870287 0.503541 0.194452 0.221886
H64   H     H_    0.841895 0.592791 0.246930 0.262302
C87   C     C_3   0.636320 0.669407 0.496509 -0.401845
C88   C     C_3   0.623352 0.698583 0.590998 -0.852160
H65   H     H_    0.604029 0.647443 0.627990 0.284430
H66   H     H_    0.656451 0.716706 0.628725 0.256871
H67   H     H_    0.599215 0.754423 0.587548 0.241568
H68   H     H_    0.654402 0.722018 0.459544 0.212915
H69   H     H_    0.602520 0.657590 0.458391 0.207559
C89   C     C_3   0.360292 0.664116 0.534177 -0.303085
C90   C     C_3   0.371693 0.710498 0.447017 -0.843050
H70   H     H_    0.393798 0.669816 0.402297 0.258407
H71   H     H_    0.337626 0.727865 0.412350 0.289499
H72   H     H_    0.392479 0.769572 0.461697 0.241124
H73   H     H_    0.340329 0.707645 0.579427 0.255402
H74   H     H_    0.394599 0.650353 0.569564 0.198544
O17   O     O_3   0.743218 0.674763 0.500155 -0.762321
H75   H     H_    0.723072 0.717513 0.530702 0.347932
O18   O     O_3   0.258825 0.666560 0.528982 -0.756417
H76   H     H_    0.223109 0.660833 0.530317 0.336919
O19   O     O_3   0.877433 0.596261 0.728346 -0.735131
H77   H     H_    0.854226 0.641002 0.710913 0.369804
O20   O     O_3   0.128176 0.629711 0.281332 -0.730294
H78   H     H_    0.152486 0.666894 0.310965 0.365461
O21   O     O_3   0.978030 0.574282 0.726251 -0.779710
H79   H     H_    0.956995 0.588488 0.777722 0.383950
O22   O     O_3   0.027118 0.627540 0.278834 -0.788412
H80   H     H_    0.049566 0.649452 0.232417 0.383935
C91   C     C_3   0.013952 0.393371 0.691649 -0.406255
C92   C     C_3   0.992449 0.327258 0.627718 -0.865663
H81   H     H_    0.965936 0.356542 0.581641 0.264835
H82   H     H_    0.021750 0.297164 0.587949 0.266832
H83   H     H_    0.973267 0.277096 0.666594 0.262052
H84   H     H_    0.034825 0.356962 0.741108 0.212477
H85   H     H_    0.984299 0.422356 0.730525 0.248226
C93   C     C_3   0.972177 0.461649 0.256051 -0.410349
C94   C     C_3   0.986007 0.374420 0.292307 -0.868293
H86   H     H_    0.015425 0.380180 0.342506 0.263862
H87   H     H_    0.953973 0.343004 0.323611 0.268769
H88   H     H_    0.999148 0.333840 0.236686 0.263501
H89   H     H_    0.946348 0.449994 0.200695 0.214110
H90   H     H_    0.004471 0.491320 0.224932 0.250256
O23   O     O_3   0.546247 0.066169 0.352059 -0.760137
H91   H     H_    0.558363 0.017451 0.316715 0.328560
O24   O     O_3   0.456698 0.933692 0.645532 -0.756379
H92   H     H_    0.444679 0.982456 0.680916 0.328923

loop_
_geom_bond_atom_site_label_1
_geom_bond_atom_site_label_2
_geom_bond_distance
_ccdc_geom_bond_type
C78   H40   1.110260 S    
C50   C52   1.427121 S    
C47   C49   1.545202 S    
C85   H64   1.106511 S    
O16   H54   0.987711 S    
C13   C15   1.411701 A    
C67   C68   1.525606 S    
C9    O18   1.385166 S    
C41   C50   1.544882 S    
O24   H92   0.991011 S    
C23   C39   1.421592 A    
N1    C17   1.429095 S    
C76   H33   1.109585 S    
C63   C64   1.526335 S    
C11   C89   1.523076 S    
C82   H48   1.109586 S    
C78   H38   1.107803 S    
C86   H61   1.107964 S    
O23   H91   0.991030 S    
C89   C90   1.525610 S    
O5    C3    1.278225 A    
C43   C48   1.539325 S    
C19   C25   1.415957 A    
C73   H30   1.110934 S    
C44   C47   1.538652 S    
O1    C1    1.273417 A    
C55   O13   1.398460 S    
N1    C7    1.359513 A    
C44   O24   1.398654 S    
C58   C60   1.555703 S    
C74   H27   1.107928 S    
C77   H42   1.109620 S    
C7    O12   1.349793 S    
C88   H65   1.109026 S    
C60   C62   1.495462 S    
C41   C43   1.539303 S    
C88   H67   1.108506 S    
C87   H69   1.108286 S    
C42   C44   1.538087 S    
C68   H13   1.110176 S    
C91   H85   1.103748 S    
C73   C74   1.525273 S    
C78   H39   1.109580 S    
C14   C28   1.415829 A    
O4    Zn1   1.975796 S    
C53   C55   1.544800 S    
C45   C51   1.182346 T    
C75   H36   1.109615 S    
C4    C28   1.452918 S    
C70   H16   1.107845 S    
C72   H22   1.109662 S    
C69   C70   1.525924 S    
C72   H21   1.108025 S    
C79   C80   1.525474 S    
C93   H89   1.107996 S    
C39   C91   1.537350 S    
C31   C40   1.416785 A    
C92   H81   1.109710 S    
C49   C51   1.428341 S    
C68   H12   1.108115 S    
C32   C39   1.414864 A    
C14   C65   1.524682 S    
C94   H88   1.110476 S    
C36   C38   1.408237 A    
C69   H20   1.109609 S    
C42   C69   1.529796 S    
C66   H7    1.109827 S    
C40   C93   1.529987 S    
C63   H4    1.109927 S    
C6    N2    1.364345 A    
C15   O15   1.381942 S    
C58   C79   1.530985 S    
C59   C61   1.495565 S    
C25   C38   1.420537 A    
C44   C50   1.533954 S    
C91   C92   1.529890 S    
C86   H60   1.111142 S    
N4    C62   1.167306 T    
C74   H28   1.110204 S    
C54   C59   1.555807 S    
C80   H45   1.110194 S    
C53   C60   1.555728 S    
O2    C2    1.272397 A    
C81   H52   1.110858 S    
C56   C57   1.544795 S    
C5    C21   1.417951 A    
C36   O22   1.385651 S    
C41   C47   1.550819 S    
C8    O11   1.349576 S    
C32   C34   1.402905 A    
C31   C33   1.406655 A    
C42   C48   1.550021 S    
C65   H10   1.110444 S    
C80   H43   1.107799 S    
C73   H29   1.109784 S    
C94   H86   1.110122 S    
C84   H57   1.110156 S    
O13   H31   0.991046 S    
C81   C82   1.525530 S    
O4    C2    1.273592 A    
C90   H71   1.110686 S    
C11   C27   1.415291 A    
C77   H41   1.110872 S    
C79   H47   1.109665 S    
C93   C94   1.528689 S    
C29   C35   1.409270 A    
C35   O21   1.385562 S    
C12   C87   1.524232 S    
C35   C37   1.409658 A    
C90   H70   1.110371 S    
O19   H77   0.991301 S    
C84   H56   1.108431 S    
C5    N1    1.363917 A    
O7    Zn2   1.998767 S    
C10   C18   1.397125 A    
O7    C3    1.278602 A    
Zn2   N3    1.982813 S    
C13   C27   1.415401 A    
C42   C49   1.544969 S    
C83   C84   1.532226 S    
C7    C25   1.399361 A    
C13   C63   1.523407 S    
O6    C4    1.278780 A    
C8    C26   1.402597 A    
C68   H11   1.109541 S    
N3    C61   1.167350 T    
C1    C45   1.395766 S    
C69   H19   1.110562 S    
C70   H17   1.109775 S    
C65   C66   1.527288 S    
C66   H8    1.110814 S    
C57   C59   1.555717 S    
C72   H23   1.110203 S    
C63   H5    1.109341 S    
O3    Zn2   1.975798 S    
O8    C4    1.277933 A    
C71   H24   1.110903 S    
C86   H62   1.110716 S    
C79   H46   1.110862 S    
C6    O10   1.348611 S    
N2    C8    1.362973 A    
C91   H84   1.102796 S    
O20   H78   0.991482 S    
C64   H2    1.110059 S    
C10   O17   1.382767 S    
C54   C58   1.556494 S    
O14   H32   0.991047 S    
C80   H44   1.109593 S    
C82   H50   1.110187 S    
O1    Zn1   1.975240 S    
C81   H51   1.109627 S    
C47   C73   1.531240 S    
C53   C57   1.556418 S    
C75   C76   1.525582 S    
C26   C37   1.420512 A    
C76   H35   1.110256 S    
C55   C58   1.544856 S    
C55   C59   1.544975 S    
C37   O19   1.378945 S    
C30   C31   1.415804 A    
C12   C28   1.418642 A    
C54   C77   1.531146 S    
N2    C18   1.428254 S    
C90   H72   1.110333 S    
C30   C36   1.409056 A    
O18   H76   0.988341 S    
C5    O9    1.345781 S    
C65   H9    1.110248 S    
O6    Zn2   2.000691 S    
C21   C23   1.438800 A    
C67   H14   1.107910 S    
C38   O20   1.379222 S    
C75   H37   1.110858 S    
C10   C12   1.410676 A    
O3    C1    1.273138 A    
O8    Zn1   1.998767 S    
C76   H34   1.107798 S    
C43   O23   1.398515 S    
C77   C78   1.525564 S    
C24   C85   1.529256 S    
C57   C81   1.530915 S    
C64   H3    1.108021 S    
C67   H15   1.110880 S    
C46   C52   1.181663 T    
C56   O14   1.398460 S    
C89   H74   1.108476 S    
C84   H55   1.109061 S    
C23   C83   1.525836 S    
C22   C24   1.425277 A    
C16   O16   1.382310 S    
O17   H75   0.987329 S    
C15   C17   1.400681 A    
C71   C72   1.525248 S    
C43   C49   1.534791 S    
C16   C18   1.400205 A    
C2    C46   1.394688 S    
C48   C71   1.531330 S    
C85   C86   1.532689 S    
C87   H68   1.110162 S    
C92   H83   1.110585 S    
C14   C16   1.413291 A    
C19   C21   1.423811 A    
C88   H66   1.109575 S    
C3    C27   1.452895 S    
C70   H18   1.110159 S    
C20   C22   1.415858 A    
C9    C11   1.400762 A    
O22   H80   0.989215 S    
O2    Zn2   1.975239 S    
C29   C32   1.413622 A    
C83   H59   1.109123 S    
C85   H63   1.110064 S    
C89   H73   1.111061 S    
C71   H25   1.109303 S    
C87   C88   1.528335 S    
O21   H79   0.989294 S    
C82   H49   1.107795 S    
C93   H90   1.103914 S    
O5    Zn1   2.000690 S    
C24   C40   1.413665 A    
Zn1   N4    1.982813 S    
C53   C75   1.531141 S    
C92   H82   1.111088 S    
C64   H1    1.109627 S    
C41   C67   1.530393 S    
C56   C60   1.544907 S    
O15   H53   0.988541 S    
C94   H87   1.111100 S    
C19   C34   1.402244 A    
C83   H58   1.106500 S    
C20   C26   1.413951 A    
C54   C56   1.544798 S    
C20   C33   1.402252 A    
C66   H6    1.109453 S    
C74   H26   1.109736 S    
C29   C33   1.409406 A    
C6    C22   1.410147 A    
C30   C34   1.413338 A    
C48   C50   1.544914 S    
C9    C17   1.411752 A    
