data_mof_unit_36600.cif
_audit_creation_date              2012-12-10T17:40:58-0500
_audit_creation_method            fapswitch 2.2
_symmetry_space_group_name_H-M    P1
_symmetry_Int_Tables_number       1
_space_group_crystal_system       triclinic
_cell_length_a                    14.79439
_cell_length_b                    15.233349
_cell_length_c                    10.001403
_cell_angle_alpha                 89.113336
_cell_angle_beta                  91.779734
_cell_angle_gamma                 90.190788
_cell_volume                      2252.63102731

loop_
_atom_site_label
_atom_site_type_symbol
_atom_type_description
_atom_site_fract_x
_atom_site_fract_y
_atom_site_fract_z
_atom_type_partial_charge
C1    C     C_R   0.393854 0.869968 0.499637 0.965139
C2    C     C_R   0.395160 0.130601 0.498612 0.959515
C3    C     C_R   0.893865 0.369962 0.499636 0.964015
C4    C     C_R   0.895488 0.630780 0.498699 0.962935
C5    C     C_R   0.315240 0.251086 0.378316 0.364379
C6    C     C_R   0.310780 0.753539 0.378645 0.351795
C7    C     C_R   0.815376 0.751010 0.378374 0.373071
C8    C     C_R   0.810612 0.253689 0.378602 0.353065
C9    C     C_R   0.736998 0.799274 0.384462 -0.237136
C10   C     C_R   0.733860 0.203608 0.384711 -0.176201
C11   C     C_R   0.237234 0.299833 0.384473 -0.238502
C12   C     C_R   0.234119 0.703327 0.384757 -0.185144
C13   C     C_R   0.702373 0.822598 0.508493 -0.107487
C14   C     C_R   0.700336 0.177180 0.508525 -0.122513
C15   C     C_R   0.202585 0.322955 0.508581 -0.105187
C16   C     C_R   0.200621 0.676858 0.508578 -0.117947
C17   C     C_R   0.338336 0.048196 0.125762 -0.043651
C18   C     C_R   0.838279 0.548366 0.125482 -0.043237
C19   C     C_R   0.277056 0.100312 0.047339 -0.032720
C20   C     C_R   0.777121 0.600463 0.046701 -0.037688
C21   C     C_R   0.275141 0.089569 0.907598 -0.170205
C22   C     C_R   0.775377 0.589617 0.906997 -0.176713
C23   C     C_R   0.337701 0.032106 0.854336 -0.126481
C24   C     C_R   0.837782 0.531888 0.854131 -0.125190
C25   C     C_R   0.420806 0.017850 0.924192 0.202728
C26   C     C_R   0.920806 0.517712 0.924138 0.184236
C27   C     C_R   0.420728 0.020883 0.067504 0.075925
C28   C     C_R   0.920697 0.520832 0.067440 0.059955
C29   C     C_R   0.576374 0.984749 0.073291 0.084767
C30   C     C_R   0.076402 0.484795 0.073257 0.089051
C31   C     C_R   0.622697 0.118754 0.502243 0.942819
C32   C     C_R   0.623328 0.881029 0.502863 0.936681
C33   C     C_R   0.122819 0.618625 0.502258 0.950530
C34   C     C_R   0.123416 0.381157 0.502904 0.933431
C35   C     C_R   0.575726 0.985317 0.931365 -0.132076
C36   C     C_R   0.075734 0.485389 0.931341 -0.153728
C37   C     C_R   0.408429 0.271024 0.714666 0.422096
C38   C     C_R   0.402150 0.730552 0.720430 0.454210
C39   C     C_R   0.908802 0.773317 0.714333 0.311789
C40   C     C_R   0.901869 0.230480 0.720526 0.454885
C41   C     C_R   0.387930 0.304856 0.839850 -0.065339
C42   C     C_R   0.379761 0.697435 0.846906 -0.023389
C43   C     C_R   0.888882 0.810671 0.837247 -0.060071
C44   C     C_R   0.879276 0.197369 0.846943 -0.036590
C45   C     C_R   0.799699 0.833555 0.860450 -0.155547
C46   C     C_R   0.791302 0.168826 0.867178 -0.257020
C47   C     C_R   0.299264 0.329640 0.862074 -0.286534
C48   C     C_R   0.291953 0.668434 0.867189 -0.289180
C49   C     C_R   0.733729 0.830399 0.758141 -0.165091
C50   C     C_R   0.728429 0.166770 0.760852 -0.056867
C51   C     C_R   0.233879 0.329699 0.758629 -0.113142
C52   C     C_R   0.229066 0.666033 0.760892 -0.090195
C53   C     C_R   0.755952 0.804972 0.627977 0.036161
C54   C     C_R   0.752049 0.193893 0.629576 0.066414
C55   C     C_R   0.256025 0.304854 0.628142 0.034875
C56   C     C_R   0.252412 0.693496 0.629620 0.080887
C57   C     C_R   0.339268 0.261864 0.614972 -0.085222
C58   C     C_R   0.335143 0.737859 0.617190 -0.039907
C59   C     C_R   0.839505 0.762419 0.615083 -0.032436
C60   C     C_R   0.834943 0.237954 0.617176 -0.039761
C61   C     C_R   0.353911 0.217727 0.495939 -0.137165
C62   C     C_R   0.350724 0.783729 0.497313 -0.163239
C63   C     C_R   0.854336 0.718025 0.496118 -0.140662
C64   C     C_R   0.850673 0.283754 0.497283 -0.163926
H1    H     H_    0.638185 0.976403 0.880134 0.104566
H2    H     H_    0.138202 0.476594 0.880085 0.109473
H3    H     H_    0.781936 0.856826 0.957035 0.206039
H4    H     H_    0.771379 0.146551 0.965497 0.187623
H5    H     H_    0.281462 0.351460 0.959489 0.186169
H6    H     H_    0.272205 0.645972 0.965502 0.179309
H7    H     H_    0.666370 0.845740 0.785947 0.239386
H8    H     H_    0.662216 0.146114 0.788767 0.223782
H9    H     H_    0.166823 0.346369 0.786118 0.238580
H10   H     H_    0.163091 0.644763 0.788917 0.207392
H11   H     H_    0.704677 0.819739 0.291266 0.201663
H12   H     H_    0.701406 0.184804 0.290907 0.237294
H13   H     H_    0.205213 0.320734 0.291250 0.202323
H14   H     H_    0.201701 0.684483 0.290949 0.230071
N1    N     N_R   0.498810 1.000000 0.142780 -0.110811
N2    N     N_R   0.998810 0.500000 0.142780 -0.111443
N3    N     N_R   0.498740 1.000000 0.857170 -0.098583
N4    N     N_R   0.998740 0.500000 0.857170 -0.100750
O1    O     O_R   0.408390 0.908380 0.614690 -0.604257
O2    O     O_R   0.408390 0.091620 0.614690 -0.644912
O3    O     O_R   0.908390 0.408380 0.614690 -0.604034
O4    O     O_R   0.908390 0.591620 0.614690 -0.643069
O5    O     O_R   0.408370 0.908380 0.385360 -0.590576
O6    O     O_R   0.408370 0.091620 0.385360 -0.557966
O7    O     O_R   0.908370 0.408380 0.385360 -0.589645
O8    O     O_R   0.908370 0.591620 0.385360 -0.562927
O9    O     O_R   0.591620 0.091610 0.614640 -0.633334
O10   O     O_R   0.591620 0.908390 0.614640 -0.617907
O11   O     O_R   0.091620 0.591610 0.614640 -0.633211
O12   O     O_R   0.091620 0.408390 0.614640 -0.618548
O13   O     O_R   0.591610 0.091610 0.385310 -0.568563
O14   O     O_R   0.591610 0.908390 0.385310 -0.608865
O15   O     O_R   0.091610 0.591610 0.385310 -0.572744
O16   O     O_R   0.091610 0.408390 0.385310 -0.603161
Zn1   Zn    Zn3+2 0.500010 1.000000 0.653130 1.000766
Zn2   Zn    Zn3+2 0.000010 0.500000 0.653130 0.991309
Zn3   Zn    Zn3+2 0.499980 1.000000 0.346870 1.064017
Zn4   Zn    Zn3+2 0.999980 0.500000 0.346870 1.058126
Cl1   Cl    Cl    0.375819 0.250923 0.230393 -0.650561
Cl2   Cl    Cl    0.361722 0.765449 0.223223 -0.649679
Cl3   Cl    Cl    0.875758 0.750604 0.230080 -0.593040
Cl4   Cl    Cl    0.861439 0.265652 0.223095 -0.636437
C65   C     C_2   0.195191 0.114640 0.822277 0.541278
H15   H     H_    0.204031 0.132962 0.718289 0.070930
O17   O     O_2   0.118833 0.106988 0.863630 -0.511695
C66   C     C_2   0.695640 0.614845 0.821361 0.537509
H16   H     H_    0.704662 0.632856 0.717298 0.070773
O18   O     O_2   0.619212 0.607671 0.862599 -0.523175
C67   C     C_2   0.294007 0.957709 0.785532 0.523482
H17   H     H_    0.252038 0.968638 0.695847 0.068519
O19   O     O_2   0.299885 0.883798 0.833656 -0.562258
C68   C     C_2   0.793955 0.457302 0.785950 0.541273
H18   H     H_    0.751723 0.468003 0.696473 0.063478
O20   O     O_2   0.800058 0.383490 0.834365 -0.551786
Cl5   Cl    Cl    0.521991 0.267565 0.667732 -0.596447
Cl6   Cl    Cl    0.516543 0.738416 0.679832 -0.610207
Cl7   Cl    Cl    0.022620 0.766205 0.670145 -0.665761
Cl8   Cl    Cl    0.016348 0.238423 0.680292 -0.604823
C69   C     C_2   0.457073 0.317900 0.948112 0.571988
H19   H     H_    0.445202 0.365595 0.025104 0.088183
O21   O     O_2   0.526289 0.274406 0.955405 -0.504284
C70   C     C_2   0.445905 0.693922 0.960016 0.666873
H20   H     H_    0.440632 0.642978 0.036491 0.064999
O22   O     O_2   0.504101 0.750409 0.972572 -0.466549
C71   C     C_2   0.960867 0.828550 0.939707 0.561208
H21   H     H_    0.024894 0.794102 0.938732 0.104651
O23   O     O_2   0.950120 0.883624 0.025179 -0.516942
C72   C     C_2   0.945315 0.193583 0.960139 0.678498
H22   H     H_    0.939866 0.142583 0.036482 0.087867
O24   O     O_2   0.003584 0.249940 0.972960 -0.466128
C73   C     C_2   0.664112 0.968441 0.141182 0.442658
H23   H     H_    0.703503 0.912786 0.112942 0.070492
O25   O     O_2   0.696604 0.019703 0.221477 -0.553584
C74   C     C_2   0.164276 0.468597 0.140920 0.424391
H24   H     H_    0.204327 0.413777 0.111164 0.060585
O26   O     O_2   0.196248 0.519191 0.222605 -0.567229
C75   C     C_2   0.292797 0.988035 0.218671 0.474328
H25   H     H_    0.290102 0.919365 0.195747 0.144115
O27   O     O_2   0.252976 0.014103 0.315440 -0.601352
C76   C     C_2   0.792712 0.488637 0.219003 0.476143
H26   H     H_    0.790179 0.419834 0.196974 0.146938
O28   O     O_2   0.752670 0.515177 0.315264 -0.608796
C77   C     C_2   0.207905 0.154832 0.112186 0.582344
H27   H     H_    0.185835 0.140082 0.212063 0.108761
O29   O     O_2   0.178628 0.221241 0.057002 -0.541592
C78   C     C_2   0.708043 0.655359 0.110945 0.575119
H28   H     H_    0.685047 0.640429 0.210275 0.104841
O30   O     O_2   0.679865 0.722240 0.055808 -0.544741

loop_
_geom_bond_atom_site_label_1
_geom_bond_atom_site_label_2
_ccdc_geom_bond_type
C58   C62   A    
C5    Cl1   S    
C1    O5    A    
C70   H20   S    
C30   C74   S    
O7    Zn4   S    
C3    O3    A    
C13   C32   S    
C2    O2    A    
C77   H27   S    
C14   C31   S    
C1    C62   S    
O6    Zn3   S    
C53   C59   A    
C69   H19   S    
C54   C60   A    
C3    C64   S    
C4    C63   S    
C50   C54   A    
C40   C60   A    
C77   O29   D    
C24   C26   A    
C5    C11   A    
C52   H10   S    
C75   O27   D    
C6    C12   A    
C36   H2    S    
C69   O21   D    
C4    O4    A    
C35   H1    S    
C68   H18   S    
C18   C20   A    
C17   C75   S    
C9    C13   A    
C66   H16   S    
O8    Zn4   S    
C50   H8    S    
C11   H13   S    
C34   O16   A    
O5    Zn3   S    
C10   H12   S    
C47   H5    S    
C12   C16   A    
C36   N4    A    
C72   H22   S    
C22   C66   S    
C12   H14   S    
C45   H3    S    
C65   H15   S    
C7    Cl3   S    
C2    O6    A    
C6    Cl2   S    
O4    Zn2   S    
C15   C34   S    
C4    O8    A    
O15   Zn4   S    
C2    C61   S    
C30   N2    A    
C73   H23   S    
C26   N4    A    
O1    Zn1   S    
O14   Zn3   S    
C25   N3    A    
C65   O17   D    
C11   C15   A    
C44   C46   A    
C13   C53   A    
C56   C58   A    
C35   N3    A    
C3    O7    A    
C8    Cl4   S    
C17   C27   A    
C51   H9    S    
C43   C71   S    
C18   C28   A    
C76   O28   D    
C10   C14   A    
C48   H6    S    
C39   C43   A    
N3    Zn1   S    
O16   Zn4   S    
C19   C77   S    
N2    Zn4   S    
C15   C55   A    
C42   C48   A    
C16   C56   A    
C46   H4    S    
C19   C21   A    
C78   O30   D    
C16   C33   S    
C23   C67   S    
C37   Cl5   S    
O12   Zn2   S    
C39   C59   A    
C45   C49   A    
C41   C47   A    
C5    C61   A    
C29   N1    A    
C38   C58   A    
C43   C45   A    
O11   Zn2   S    
C7    C63   A    
C21   C65   S    
C74   O26   D    
C68   O20   D    
C8    C10   A    
C29   C73   S    
C8    C64   A    
C24   C68   S    
C31   O9    A    
C55   C57   A    
C25   C27   A    
C73   O25   D    
C22   C24   A    
C59   C63   A    
C44   C72   S    
C27   N1    A    
C40   C44   A    
C67   H17   S    
C7    C9    A    
C46   C50   A    
C70   O22   D    
C14   C54   A    
O2    Zn1   S    
N4    Zn2   S    
C34   O12   A    
C20   C22   A    
C76   H26   S    
C33   O11   A    
C47   C51   A    
C57   C61   A    
C1    O1    A    
C40   Cl8   S    
C29   C35   A    
C26   C28   A    
C39   Cl7   S    
C30   C36   A    
C60   C64   A    
C6    C62   A    
C21   C23   A    
C71   H21   S    
C38   Cl6   S    
C32   O14   A    
O3    Zn2   S    
C75   H25   S    
C41   C69   S    
C32   O10   A    
C67   O19   D    
C31   O13   A    
C18   C76   S    
C17   C19   A    
C20   C78   S    
C51   C55   A    
C23   C25   A    
C37   C41   A    
C28   N2    A    
C66   O18   D    
C49   C53   A    
C74   H24   S    
C42   C70   S    
C38   C42   A    
C52   C56   A    
C48   C52   A    
C72   O24   D    
C49   H7    S    
C78   H28   S    
N1    Zn3   S    
C9    H11   S    
C33   O15   A    
O9    Zn1   S    
C37   C57   A    
O13   Zn3   S    
O10   Zn1   S    
C71   O23   D    
