data_mof_unit_49968.cif
_audit_creation_date              2012-12-10T17:20:25-0500
_audit_creation_method            fapswitch 2.2
_symmetry_space_group_name_H-M    P1
_symmetry_Int_Tables_number       1
_space_group_crystal_system       triclinic
_cell_length_a                    11.700273
_cell_length_b                    10.825478
_cell_length_c                    9.582784
_cell_angle_alpha                 90.881769
_cell_angle_beta                  89.915407
_cell_angle_gamma                 92.824141
_cell_volume                      1212.14743151

loop_
_atom_site_label
_atom_site_type_symbol
_atom_type_description
_atom_site_fract_x
_atom_site_fract_y
_atom_site_fract_z
_atom_type_partial_charge
C1    C     C_R   0.507528 0.262847 0.499121 0.881147
C2    C     C_R   0.602489 0.069320 0.864935 0.296557
C3    C     C_R   0.538016 0.959502 0.883821 -0.249272
C4    C     C_R   0.483933 0.897193 0.771152 0.404741
C5    C     C_R   0.500610 0.942033 0.633504 -0.157377
C6    C     C_R   0.542514 0.065238 0.620161 -0.053499
C7    C     C_R   0.514268 0.128508 0.497902 -0.083244
C8    C     C_R   0.471300 0.062672 0.381156 -0.310094
C9    C     C_R   0.456554 0.934210 0.383222 0.401237
C10   C     C_R   0.476467 0.872001 0.508445 -0.102448
C11   C     C_R   0.652470 0.664948 0.146011 -0.177755
C12   C     C_R   0.284070 0.499790 0.500104 0.816761
C13   C     C_R   0.726243 0.746471 0.075150 -0.319254
C14   C     C_R   0.729134 0.745084 0.929494 0.445782
C15   C     C_R   0.652646 0.664373 0.858188 -0.177509
C16   C     C_R   0.575045 0.580937 0.926447 0.165869
C17   C     C_R   0.575054 0.580940 0.075846 0.215266
C18   C     C_R   0.429347 0.422133 0.072725 -0.044806
C19   C     C_R   0.429596 0.421940 0.924733 -0.069203
C20   C     C_R   0.489645 0.737246 0.502113 0.843375
C21   C     C_R   0.715938 0.500530 0.499961 0.827773
C22   C     C_1   0.162396 0.500363 0.500351 -0.181783
C23   C     C_1   0.059923 0.500777 0.500411 -0.011947
C24   C     C_1   0.940135 0.500976 0.500233 -0.000932
C25   C     C_1   0.837640 0.500865 0.499993 -0.150969
C26   C     C_R   0.608914 0.121251 0.730104 0.343046
Cu1   Cu    Cu3+1 0.499990 0.499990 0.640660 0.970712
Cu2   Cu    Cu3+1 0.500010 0.500010 0.359340 0.962375
H1    H     H_    0.448415 0.111249 0.287967 0.163756
H2    H     H_    0.657419 0.672282 0.748265 0.207437
H3    H     H_    0.371725 0.358184 0.868376 0.128438
H4    H     H_    0.526781 0.923453 0.987917 0.192971
H5    H     H_    0.371399 0.358438 0.127049 0.129879
H6    H     H_    0.659972 0.672715 0.256103 0.213142
H7    H     H_    0.779957 0.811102 0.135880 0.159631
N1    N     N_R   0.501070 0.501210 0.147910 -0.185287
N2    N     N_R   0.501110 0.501290 0.852040 -0.174383
O1    O     O_R   0.499990 0.319640 0.618810 -0.553111
O2    O     O_R   0.500000 0.319660 0.381240 -0.594899
O3    O     O_R   0.337190 0.500000 0.618790 -0.586050
O4    O     O_R   0.337200 0.500030 0.381210 -0.570970
O5    O     O_R   0.500000 0.680340 0.618760 -0.564122
O6    O     O_R   0.500010 0.680360 0.381190 -0.553232
O7    O     O_R   0.662800 0.499970 0.618790 -0.575551
O8    O     O_R   0.662810 0.500000 0.381210 -0.602232
O9    O     O_3   0.795110 0.828682 0.850080 -0.614051
C27   C     C_3   0.903905 0.861464 0.907963 0.046648
H8    H     H_    0.967457 0.857812 0.821892 0.162845
H9    H     H_    0.933088 0.796054 0.987640 0.127296
C28   C     C_3   0.905398 0.994530 0.965014 -0.289378
H10   H     H_    0.882380 0.057371 0.879942 0.235016
H11   H     H_    0.841069 0.002185 0.049499 0.252082
C29   C     C_3   0.022838 0.036420 0.022119 -0.968127
H12   H     H_    0.046805 0.976479 0.109350 0.258130
H13   H     H_    0.020528 0.133122 0.061973 0.269157
H14   H     H_    0.088436 0.033001 0.938412 0.246232
O10   O     O_3   0.684512 0.219445 0.699910 -0.724122
H15   H     H_    0.747820 0.222661 0.768501 0.318787
O11   O     O_3   0.650498 0.126988 0.981715 -0.747451
H16   H     H_    0.659845 0.216940 0.964825 0.329648
O12   O     O_3   0.404103 0.802478 0.800311 -0.552205
C30   C     C_3   0.297997 0.853174 0.834259 0.071661
H17   H     H_    0.246205 0.860288 0.737740 0.143187
H18   H     H_    0.307146 0.947524 0.883177 0.077998
C31   C     C_3   0.233487 0.770571 0.939361 -0.360531
H19   H     H_    0.289699 0.754874 0.030157 0.250540
H20   H     H_    0.157658 0.818237 0.978089 0.170285
C32   C     C_3   0.192965 0.646363 0.875378 -0.753596
H21   H     H_    0.138309 0.659967 0.782724 0.232521
H22   H     H_    0.142281 0.592289 0.953506 0.220200
H23   H     H_    0.267585 0.593242 0.844661 0.297814
O13   O     O_3   0.417922 0.868564 0.266162 -0.728061
H24   H     H_    0.403581 0.926842 0.190063 0.307510

loop_
_geom_bond_atom_site_label_1
_geom_bond_atom_site_label_2
_ccdc_geom_bond_type
C12   O3    A    
C28   H11   S    
C23   C24   S    
C13   H7    S    
C6    C7    A    
C17   N1    A    
C21   O7    A    
C9    C10   A    
C16   N2    A    
Cu2   O6    S    
C20   O5    A    
O12   C30   S    
C14   C15   A    
C9    O13   S    
Cu1   O3    S    
C31   C32   S    
C19   H3    S    
C28   H10   S    
C3    C4    A    
O11   H16   S    
C27   H9    S    
C6    C26   A    
C13   C14   A    
C11   C13   A    
Cu1   O5    S    
O10   H15   S    
C30   H17   S    
C1    O1    A    
Cu1   N2    S    
C32   H23   S    
C5    C6    A    
C8    H1    S    
C4    O12   S    
C5    C10   A    
C26   O10   S    
C2    C3    A    
C27   C28   S    
C21   O8    A    
C29   H13   S    
C3    H4    S    
C18   H5    S    
Cu2   O8    S    
C28   C29   S    
C7    C8    A    
C1    O2    A    
Cu1   O1    S    
C15   C16   A    
C16   C17   A    
C12   C22   S    
Cu2   O4    S    
C4    C5    A    
C20   O6    A    
C18   C19   A    
C24   C25   T    
Cu2   N1    S    
C15   H2    S    
C2    C26   A    
C31   H19   S    
O9    C27   S    
C29   H14   S    
Cu1   Cu2   S    
C30   C31   S    
C32   H22   S    
C21   C25   S    
C2    O11   S    
C8    C9    A    
C30   H18   S    
C31   H20   S    
C19   N2    A    
Cu2   O2    S    
C1    C7    S    
C22   C23   T    
C18   N1    A    
Cu1   O7    S    
C32   H21   S    
C11   H6    S    
C11   C17   A    
C12   O4    A    
C27   H8    S    
C29   H12   S    
C10   C20   S    
O13   H24   S    
C14   O9    S    
