data_mof_unit_53222.cif
_audit_creation_date              2012-12-10T19:00:49-0500
_audit_creation_method            fapswitch 2.2
_symmetry_space_group_name_H-M    P1
_symmetry_Int_Tables_number       1
_space_group_crystal_system       triclinic
_cell_length_a                    15.024165
_cell_length_b                    10.865216
_cell_length_c                    9.568902
_cell_angle_alpha                 90.514756
_cell_angle_beta                  90.697679
_cell_angle_gamma                 90.855929
_cell_volume                      1561.67948256

loop_
_atom_site_label
_atom_site_type_symbol
_atom_type_description
_atom_site_fract_x
_atom_site_fract_y
_atom_site_fract_z
_atom_type_partial_charge
C1    C     C_R   0.499229 0.262922 0.499512 0.827312
C2    C     C_R   0.187506 0.378122 0.508448 -0.080520
C3    C     C_R   0.232740 0.491942 0.497825 -0.088155
C4    C     C_R   0.329179 0.498844 0.499251 0.813133
C5    C     C_R   0.186912 0.601348 0.486914 -0.233095
C6    C     C_R   0.482497 0.063648 0.618312 0.081418
C7    C     C_R   0.498785 0.130521 0.498053 -0.073140
C8    C     C_R   0.515411 0.064142 0.374096 -0.161414
C9    C     C_R   0.515831 0.935119 0.374910 -0.195431
C10   C     C_R   0.499859 0.870253 0.499644 -0.081606
C11   C     C_R   0.483609 0.939286 0.619261 0.091453
C12   C     C_R   0.908045 0.603532 0.484839 0.074004
C13   C     C_3   0.460021 0.931880 0.770280 -0.521192
C14   C     C_3   0.459456 0.073890 0.769376 -0.075177
C15   C     C_R   0.573536 0.537887 0.075222 0.249775
C16   C     C_R   0.499731 0.737346 0.500403 0.795704
C17   C     C_R   0.433757 0.442382 0.070944 0.027694
C18   C     C_R   0.432805 0.445831 0.922572 -0.094158
C19   C     C_R   0.574648 0.534921 0.928357 0.240990
C20   C     C_3   0.624575 0.654401 0.923466 -0.290789
C21   C     C_3   0.620706 0.659266 0.082781 -0.526803
C22   C     C_R   0.670760 0.499883 0.500745 0.809221
C23   C     C_R   0.949423 0.269788 0.543127 -0.220976
C24   C     C_R   0.814949 0.603062 0.482531 -0.233824
C25   C     C_R   0.766934 0.494391 0.502586 -0.086174
C26   C     C_R   0.810095 0.382532 0.524702 -0.061680
C27   C     C_R   0.903865 0.380080 0.523696 0.061646
C28   C     C_R   0.952940 0.490598 0.503867 0.047870
C29   C     C_1   0.371316 0.126107 0.794656 0.268307
C30   C     C_1   0.530474 0.132580 0.855058 0.276324
C31   C     C_1   0.365402 0.370157 0.136451 0.317356
C32   C     C_1   0.715487 0.639170 0.871348 0.328867
C33   C     C_1   0.757515 0.271253 0.546860 0.236241
C34   C     C_R   0.042000 0.265780 0.540914 -0.042199
C35   C     C_1   0.080086 0.147135 0.570263 0.287871
C36   C     C_1   0.239704 0.267231 0.498953 0.276472
C37   C     C_1   0.915103 0.831803 0.451215 0.255354
C38   C     C_R   0.092961 0.375293 0.517598 0.023911
C39   C     C_R   0.046875 0.488513 0.502909 0.047913
C40   C     C_R   0.094594 0.600577 0.486493 0.103116
C41   C     C_R   0.049898 0.711564 0.470477 -0.223990
C42   C     C_R   0.957348 0.714044 0.468698 -0.023792
Cu1   Cu    Cu3+1 0.500000 0.499980 0.640670 0.968915
Cu2   Cu    Cu3+1 0.500000 0.500020 0.359330 0.969187
H1    H     H_    0.778650 0.687400 0.466711 0.141710
H2    H     H_    0.223783 0.687520 0.477318 0.140288
H3    H     H_    0.087446 0.796869 0.458389 0.170107
H4    H     H_    0.528517 0.111222 0.277011 0.173348
H5    H     H_    0.528844 0.886983 0.278121 0.157548
H6    H     H_    0.393765 0.887105 0.785159 0.206304
H7    H     H_    0.514292 0.894141 0.835257 0.186257
H8    H     H_    0.378241 0.403369 0.864189 0.162122
H9    H     H_    0.587475 0.727155 0.869610 0.166349
H10   H     H_    0.686295 0.653183 0.137385 0.207112
H11   H     H_    0.577294 0.733402 0.121951 0.198037
H12   H     H_    0.912852 0.184718 0.561078 0.177107
N1    N     N_R   0.500570 0.500930 0.147930 -0.210956
N2    N     N_1   0.881371 0.926052 0.437287 -0.277102
N3    N     N_R   0.500570 0.500890 0.852020 -0.203935
N4    N     N_1   0.301928 0.166813 0.815494 -0.275169
N5    N     N_1   0.586253 0.178897 0.922428 -0.282137
N6    N     N_1   0.310103 0.310804 0.186930 -0.270832
N7    N     N_1   0.787107 0.627309 0.830692 -0.270827
N8    N     N_1   0.715780 0.182517 0.564691 -0.271883
N9    N     N_1   0.109527 0.051637 0.594234 -0.264615
N10   N     N_1   0.281801 0.179260 0.489592 -0.269881
O1    O     O_R   0.500000 0.319640 0.618810 -0.582277
O2    O     O_R   0.500010 0.319680 0.381230 -0.585284
O3    O     O_R   0.370250 0.499950 0.618800 -0.585546
O4    O     O_R   0.370260 0.499990 0.381220 -0.575015
O5    O     O_R   0.499990 0.680320 0.618770 -0.584025
O6    O     O_R   0.500000 0.680360 0.381190 -0.589239
O7    O     O_R   0.629740 0.500010 0.618780 -0.572901
O8    O     O_R   0.629750 0.500050 0.381200 -0.580605

loop_
_geom_bond_atom_site_label_1
_geom_bond_atom_site_label_2
_ccdc_geom_bond_type
Cu1   O7    S    
C41   C42   A    
C19   C20   S    
C16   O6    A    
C4    O4    A    
C18   H8    S    
C7    C8    A    
C15   C19   A    
C26   C27   A    
C12   C28   A    
C24   H1    S    
C21   H10   S    
C36   N10   T    
C35   N9    T    
C1    O2    A    
C34   C35   S    
C37   C42   S    
C12   C42   A    
C13   H7    S    
C8    C9    A    
C22   C25   S    
Cu2   O4    S    
C23   C27   A    
C9    C10   A    
C37   N2    T    
Cu1   N3    S    
Cu1   O3    S    
C1    C7    S    
C13   C14   S    
C15   N1    A    
C31   N6    T    
C16   O5    A    
C14   C30   S    
C4    O3    A    
C30   N5    T    
C23   H12   S    
C9    H5    S    
C24   C25   A    
C6    C11   A    
C21   H11   S    
C28   C39   A    
C19   N3    A    
C25   C26   A    
Cu1   Cu2   S    
C8    H4    S    
C6    C14   S    
C2    C38   A    
C26   C33   S    
C29   N4    T    
Cu2   N1    S    
C23   C34   A    
C17   C18   A    
C41   H3    S    
Cu2   O8    S    
C40   C41   A    
C17   C31   S    
Cu2   O2    S    
C22   O8    A    
C14   C29   S    
C3    C4    S    
C39   C40   A    
C20   C32   S    
C2    C36   S    
Cu1   O5    S    
C34   C38   A    
C32   N7    T    
C20   H9    S    
C3    C5    A    
C6    C7    A    
C5    H2    S    
C12   C24   A    
C2    C3    A    
C10   C16   S    
C11   C13   S    
C38   C39   A    
C33   N8    T    
C1    O1    A    
Cu2   O6    S    
C10   C11   A    
C13   H6    S    
C18   N3    A    
C15   C21   S    
C20   C21   S    
Cu1   O1    S    
C5    C40   A    
C27   C28   A    
C22   O7    A    
C17   N1    A    
