data_mof_unit_24349.cif
_audit_creation_date              2012-10-26T19:59:11-0400
_audit_creation_method            fapswitch 2.2
_symmetry_space_group_name_H-M    P1
_symmetry_Int_Tables_number       1
_space_group_crystal_system       triclinic
_cell_length_a                    7.491109
_cell_length_b                    8.693308
_cell_length_c                    15.804324
_cell_angle_alpha                 95.587026
_cell_angle_beta                  74.76708
_cell_angle_gamma                 103.603787
_cell_volume                      964.502696554

loop_
_atom_site_label
_atom_site_type_symbol
_atom_type_description
_atom_site_fract_x
_atom_site_fract_y
_atom_site_fract_z
_atom_type_partial_charge
C1    C     C_R   0.545334 0.800163 0.502740 0.540371
C2    C     C_R   0.617180 0.515675 0.333861 0.547353
C3    C     C_R   0.309565 0.462022 0.761448 0.009606
C4    C     C_R   0.690438 0.538017 0.238556 0.009604
C5    C     C_R   0.073819 0.349327 0.889560 -0.111231
C6    C     C_R   0.926159 0.650805 0.110461 -0.111234
C7    C     C_R   0.123952 0.378796 0.800306 0.082704
C8    C     C_R   0.876034 0.621292 0.199709 0.082684
C9    C     C_R   0.438420 0.515281 0.813801 -0.137181
C10   C     C_R   0.561594 0.484756 0.186198 -0.137181
C11   C     C_R   0.393181 0.479003 0.902807 0.025252
C12   C     C_R   0.454666 0.199837 0.497259 0.540371
C13   C     C_R   0.606814 0.521100 0.097204 0.025252
C14   C     C_R   0.206227 0.396493 0.940437 0.018406
C15   C     C_R   0.793756 0.603643 0.059581 0.018401
C16   C     C_R   0.528392 0.520139 0.954959 0.040563
C17   C     C_R   0.471598 0.479988 0.045055 0.040564
C18   C     C_R   0.281069 0.401938 0.080118 -0.118605
C19   C     C_R   0.718909 0.598229 0.919903 -0.118600
C20   C     C_R   0.152368 0.360168 0.028505 -0.126357
C21   C     C_R   0.847606 0.640004 0.971519 -0.126352
C22   C     C_2   0.570132 0.968575 0.504207 -0.117346
C23   C     C_2   0.429868 0.031425 0.495793 -0.117347
C24   C     C_R   0.382821 0.484330 0.666140 0.547351
Cl1   Cl    Cl    0.016583 0.668175 0.606251 -0.474540
Cl2   Cl    Cl    0.983419 0.331830 0.393747 -0.474540
Cu1   Cu    Cu3+1 0.322120 0.483240 0.490330 1.173668
Cu2   Cu    Cu3+1 0.677880 0.516760 0.509670 1.173666
H1    H     H_    0.008504 0.299119 0.058132 0.129390
H2    H     H_    0.295347 0.958927 0.487700 0.178125
H3    H     H_    0.991459 0.701086 0.941897 0.129389
H4    H     H_    0.424796 0.416377 0.217589 0.154827
H5    H     H_    0.575246 0.583596 0.782397 0.154856
H6    H     H_    0.931228 0.285505 0.919006 0.139601
H7    H     H_    0.068739 0.714658 0.081023 0.139605
H8    H     H_    0.224378 0.370961 0.147641 0.148322
H9    H     H_    0.775592 0.629257 0.852388 0.148296
H10   H     H_    0.704654 0.041073 0.512300 0.178123
I1    I     I_    0.088946 0.719116 0.268319 -0.296956
I2    I     I_    0.911019 0.280974 0.731707 -0.296960
N1    N     N_2   0.945180 0.542040 0.524240 0.084683
N2    N     N_2   0.054820 0.457960 0.475760 0.084679
O1    O     O_R   0.384450 0.714270 0.493720 -0.475467
O2    O     O_R   0.615550 0.285730 0.506280 -0.475467
O3    O     O_R   0.684880 0.742590 0.510050 -0.477891
O4    O     O_R   0.315120 0.257410 0.489950 -0.477893
O5    O     O_R   0.265540 0.477900 0.617090 -0.446425
O6    O     O_R   0.734460 0.522100 0.382910 -0.446427
O7    O     O_R   0.565970 0.506210 0.633420 -0.490859
O8    O     O_R   0.434030 0.493790 0.366580 -0.490853

loop_
_geom_bond_atom_site_label_1
_geom_bond_atom_site_label_2
_ccdc_geom_bond_type
C2    C4    S    
C7    I2    S    
C10   C13   A    
C3    C9    A    
C8    I1    S    
C10   H4    S    
C9    C11   A    
N1    N2    D    
C18   C20   A    
Cu1   N2    S    
Cu1   O8    S    
C13   C17   A    
C4    C8    A    
C5    H6    S    
C2    O8    A    
C17   C18   A    
C5    C14   A    
C1    C22   S    
C12   O2    A    
C9    H5    S    
C21   H3    S    
C12   C23   S    
C1    O3    A    
C3    C24   S    
C16   C19   A    
Cu1   O4    S    
Cu1   O5    S    
C19   C21   A    
C1    O1    A    
C3    C7    A    
C20   H1    S    
C13   C15   A    
C11   C14   A    
Cu2   O3    S    
C4    C10   A    
C22   H10   S    
C23   H2    S    
C14   C20   A    
Cu2   N1    S    
C15   C21   A    
C6    H7    S    
Cl2   N2    S    
C12   O4    A    
C11   C16   A    
Cl1   N1    S    
C24   O7    A    
C5    C7    A    
Cu1   O1    S    
C22   C23   D    
Cu2   O6    S    
C6    C8    A    
C19   H9    S    
C2    O6    A    
C6    C15   A    
C24   O5    A    
C18   H8    S    
Cu2   O2    S    
C16   C17   A    
Cu1   Cu2   S    
Cu2   O7    S    
