data_mof_unit_5043.cif
_audit_creation_date              2012-12-10T19:25:01-0500
_audit_creation_method            fapswitch 2.2
_symmetry_space_group_name_H-M    P1
_symmetry_Int_Tables_number       1
_space_group_crystal_system       triclinic
_cell_length_a                    15.692628
_cell_length_b                    10.563225
_cell_length_c                    9.852386
_cell_angle_alpha                 90.552764
_cell_angle_beta                  89.074929
_cell_angle_gamma                 90.111623
_cell_volume                      1632.88692449

loop_
_atom_site_label
_atom_site_type_symbol
_atom_type_description
_atom_site_fract_x
_atom_site_fract_y
_atom_site_fract_z
_atom_type_partial_charge
C1    C     C_R   0.504595 0.258189 0.499377 1.021773
C2    C     C_R   0.494672 0.741607 0.500667 1.018835
C3    C     C_3   0.577115 0.950626 0.500764 0.288209
C4    C     C_3   0.421175 0.048978 0.499500 0.279730
C5    C     C_3   0.493143 0.876451 0.501412 -0.404123
C6    C     C_3   0.505260 0.123151 0.498794 -0.397980
C7    C     C_3   0.455807 0.964140 0.612055 0.298169
C8    C     C_3   0.542571 0.035370 0.388358 0.298940
C9    C     C_3   0.490106 0.387090 0.046721 0.321086
C10   C     C_3   0.509883 0.612626 0.953373 0.337015
C11   C     C_3   0.560976 0.431689 0.950219 0.370963
C12   C     C_3   0.439027 0.568306 0.049791 0.374456
C13   C     C_3   0.428434 0.455304 0.953113 0.120841
C14   C     C_3   0.571340 0.544722 0.046679 0.138206
C15   C     C_R   0.338344 0.499954 0.500954 0.898223
C16   C     C_R   0.661658 0.500031 0.499043 0.899471
C17   C     C_3   0.970360 0.422849 0.595724 0.470375
C18   C     C_3   0.029665 0.576960 0.404153 0.469108
C19   C     C_3   0.028259 0.383020 0.476063 0.476168
C20   C     C_3   0.971766 0.616792 0.523812 0.478198
C21   C     C_1   0.249417 0.500274 0.503204 -0.044307
C22   C     C_1   0.750592 0.499644 0.496770 -0.039831
C23   C     C_3   0.025260 0.541350 0.625749 -0.481355
C24   C     C_3   0.974761 0.458462 0.374127 -0.482226
C25   C     C_3   0.083170 0.500768 0.503820 -0.090101
C26   C     C_3   0.916848 0.499043 0.496061 -0.090335
C27   C     C_1   0.174072 0.500571 0.504221 0.136527
C28   C     C_1   0.825940 0.499286 0.495707 0.140296
C29   C     C_3   0.539934 0.039107 0.611224 0.281373
C30   C     C_3   0.458441 0.960429 0.388863 0.280436
H1    H     H_    0.951686 0.425517 0.273888 0.187440
H2    H     H_    0.048338 0.574293 0.725988 0.185375
N1    N     N_3   0.499940 0.500030 0.863290 -0.170956
N2    N     N_3   0.500060 0.499970 0.136710 -0.172450
O1    O     O_R   0.500000 0.313960 0.616610 -0.567620
O2    O     O_R   0.500000 0.686040 0.383390 -0.566277
O3    O     O_R   0.500040 0.313950 0.383350 -0.545375
O4    O     O_R   0.499960 0.686050 0.616650 -0.547877
O5    O     O_R   0.376760 0.499990 0.616610 -0.577935
O6    O     O_R   0.623240 0.500010 0.383390 -0.580002
O7    O     O_R   0.376790 0.499980 0.383350 -0.569411
O8    O     O_R   0.623210 0.500020 0.616650 -0.562297
Zn1   Zn    Zn3+2 0.499980 0.500010 0.655740 1.121932
Zn2   Zn    Zn3+2 0.500020 0.499990 0.344260 1.120448
O9    O     O_3   0.065761 0.262878 0.455732 -0.571539
C31   C     C_3   0.002903 0.175737 0.415108 -0.200476
H3    H     H_    0.978387 0.199324 0.313214 0.160079
H4    H     H_    0.949604 0.170098 0.490611 0.186858
H5    H     H_    0.032272 0.080461 0.407322 0.192139
O10   O     O_3   0.934277 0.736944 0.544131 -0.571424
C32   C     C_3   0.997146 0.824074 0.584739 -0.200050
H6    H     H_    0.050442 0.829698 0.509223 0.186716
H7    H     H_    0.021669 0.800487 0.686634 0.159619
H8    H     H_    0.967784 0.919359 0.592526 0.192126
O11   O     O_3   0.931535 0.341095 0.690859 -0.594980
C33   C     C_3   0.993422 0.297433 0.781049 -0.216717
H9    H     H_    0.016842 0.375849 0.846708 0.167811
H10   H     H_    0.047588 0.250643 0.726473 0.201014
H11   H     H_    0.963461 0.225881 0.848363 0.187128
O12   O     O_3   0.068515 0.658708 0.309036 -0.598721
C34   C     C_3   0.006671 0.702266 0.218722 -0.222703
H12   H     H_    0.952421 0.748944 0.273192 0.202993
H13   H     H_    0.983380 0.623810 0.153001 0.169658
H14   H     H_    0.036629 0.773882 0.151480 0.186861
Cl1   Cl    Cl    0.680769 0.881180 0.502055 -0.458549
Cl2   Cl    Cl    0.317592 0.118516 0.498265 -0.460772
Cl3   Cl    Cl    0.600444 0.088158 0.752746 -0.564693
Cl4   Cl    Cl    0.398951 0.911092 0.245844 -0.531797
Cl5   Cl    Cl    0.393205 0.920680 0.756500 -0.545900
Cl6   Cl    Cl    0.606369 0.078255 0.245602 -0.572406
O13   O     O_3   0.628227 0.364268 0.886345 -0.548846
C35   C     C_3   0.671552 0.291481 0.982250 -0.020079
H15   H     H_    0.634531 0.205066 0.005939 0.228325
H16   H     H_    0.685554 0.344368 0.077304 0.171044
H17   H     H_    0.733393 0.261009 0.936800 0.191769
O14   O     O_3   0.376730 0.645743 0.113389 -0.542674
C36   C     C_3   0.314591 0.681539 0.019496 -0.043725
H18   H     H_    0.263380 0.609099 0.016035 0.178723
H19   H     H_    0.341023 0.698335 0.915691 0.194888
H20   H     H_    0.284826 0.771246 0.055117 0.213072
O15   O     O_3   0.483905 0.266881 0.107060 -0.567178
C37   C     C_3   0.444496 0.180028 0.018835 -0.012234
H21   H     H_    0.463221 0.193214 0.910442 0.195105
H22   H     H_    0.374263 0.184922 0.032426 0.220744
H23   H     H_    0.463944 0.083618 0.047210 0.214212
O16   O     O_3   0.515022 0.733271 0.893830 -0.558298
C38   C     C_3   0.555363 0.819670 0.981459 0.025656
H24   H     H_    0.625508 0.814059 0.966817 0.207199
H25   H     H_    0.537223 0.806524 0.090098 0.196499
H26   H     H_    0.536224 0.916320 0.953443 0.209015
Cl7   Cl    Cl    0.331290 0.396154 0.884614 -0.589477
Cl8   Cl    Cl    0.669599 0.602053 0.112907 -0.569153

loop_
_geom_bond_atom_site_label_1
_geom_bond_atom_site_label_2
_ccdc_geom_bond_type
C38   H24   S    
C7    C29   S    
O11   C33   S    
O15   C37   S    
C36   H18   S    
C31   H5    S    
C17   C23   S    
C18   C24   S    
C17   C26   S    
C24   C26   S    
C4    C7    S    
C11   C14   S    
C11   O13   S    
C33   H9    S    
C34   H13   S    
C3    C29   S    
C9    C13   S    
C20   O10   S    
C29   Cl3   S    
O1    Zn1   S    
C17   O11   S    
C1    O3    A    
C21   C27   T    
C22   C28   T    
C13   Cl7   S    
C3    Cl1   S    
C18   C25   S    
C35   H17   S    
C36   H19   S    
C31   H4    S    
C32   H6    S    
N1    Zn1   S    
C11   N1    S    
N2    Zn2   S    
O14   C36   S    
C15   O7    A    
C35   H16   S    
C3    C8    S    
C10   C14   S    
C5    C7    S    
O16   C38   S    
O5    Zn1   S    
O9    C31   S    
C4    C30   S    
C1    C6    S    
O12   C34   S    
C32   H7    S    
C34   H14   S    
C13   N1    S    
C2    O4    A    
C20   C23   S    
C15   C21   S    
C15   O5    A    
O10   C32   S    
C9    C11   S    
C14   Cl8   S    
C10   C12   S    
C16   O6    A    
C4    C6    S    
C37   H22   S    
C12   O14   S    
C9    N2    S    
O7    Zn2   S    
O2    Zn2   S    
C2    C5    S    
O8    Zn1   S    
C12   N2    S    
C16   O8    A    
C1    O1    A    
C5    C30   S    
C36   H20   S    
C2    O2    A    
C31   H3    S    
C10   O16   S    
C16   C22   S    
C8    Cl6   S    
C35   H15   S    
C3    C5    S    
C14   N2    S    
C6    C8    S    
C19   O9    S    
C25   C27   S    
C37   H23   S    
C26   C28   S    
C33   H11   S    
C32   H8    S    
C8    C30   S    
C23   H2    S    
O3    Zn2   S    
C38   H25   S    
C7    Cl5   S    
C24   H1    S    
O4    Zn1   S    
C4    Cl2   S    
C20   C26   S    
C17   C19   S    
C33   H10   S    
C19   C24   S    
C10   N1    S    
C18   C20   S    
C23   C25   S    
C34   H12   S    
C19   C25   S    
C18   O12   S    
O6    Zn2   S    
C6    C29   S    
O13   C35   S    
C12   C13   S    
C37   H21   S    
C38   H26   S    
C30   Cl4   S    
C9    O15   S    
