data_mof_unit_10635.cif
_audit_creation_date              2013-03-05T16:32:21-0500
_audit_creation_method            fapswitch 2.2
_symmetry_space_group_name_H-M    P1
_symmetry_Int_Tables_number       1
_space_group_crystal_system       triclinic
_cell_length_a                    14.281087
_cell_length_b                    13.642269
_cell_length_c                    15.066373
_cell_angle_alpha                 90.482789
_cell_angle_beta                  89.85858
_cell_angle_gamma                 83.889901
_cell_volume                      2918.53232817

loop_
_atom_site_label
_atom_site_type_symbol
_atom_site_description
_atom_site_fract_x
_atom_site_fract_y
_atom_site_fract_z
_atom_type_partial_charge
O1    O     O_R   0.579480 0.500010 0.369070 -0.554684
O2    O     O_R   0.420520 0.499990 0.630930 -0.601869
O3    O     O_R   0.420520 0.500010 0.369060 -0.576718
O4    O     O_R   0.579480 0.499990 0.630940 -0.591984
C1    C     C_R   0.500376 0.498017 0.327236 0.971801
C2    C     C_R   0.500118 0.498257 0.672078 1.004239
O5    O     O_R   0.590920 0.359650 0.500030 -0.591149
O6    O     O_R   0.409080 0.640350 0.499970 -0.593738
O7    O     O_R   0.431960 0.359650 0.500020 -0.577612
O8    O     O_R   0.568040 0.640350 0.499980 -0.554879
C3    C     C_R   0.516259 0.314733 0.498790 0.908466
C4    C     C_R   0.483743 0.685233 0.500332 0.914444
Zn1   Zn    Zn3+2 0.606140 0.500000 0.500010 1.086899
Zn2   Zn    Zn3+2 0.393860 0.500000 0.499990 1.055218
C5    C     C_1   0.472150 0.788172 0.502837 -0.017376
C6    C     C_1   0.527764 0.211974 0.491036 0.004938
C7    C     C_2   0.461766 0.979199 0.507747 0.152117
C8    C     C_2   0.536510 0.021358 0.476615 0.159510
C9    C     C_1   0.534911 0.124952 0.483698 0.062465
C10   C     C_1   0.464493 0.875442 0.505138 0.077001
C11   C     C_R   0.588885 0.454560 0.092171 0.277451
C12   C     C_R   0.454295 0.401308 0.898534 0.271410
C13   C     C_R   0.588449 0.477378 0.182702 0.151793
C14   C     C_R   0.447408 0.417869 0.807299 0.105995
C15   C     C_R   0.501788 0.485644 0.230354 -0.403965
C16   C     C_R   0.500868 0.487094 0.767684 -0.381988
C17   C     C_R   0.416665 0.474209 0.184735 0.363365
C18   C     C_R   0.557427 0.542449 0.819953 0.334810
C19   C     C_R   0.416681 0.470747 0.092728 0.346341
C20   C     C_R   0.547316 0.541265 0.911578 0.347270
C21   C     C_R   0.502641 0.458484 0.046905 -0.108964
C22   C     C_R   0.502064 0.465722 0.950696 -0.129042
C23   C     C_R   0.109944 0.425316 0.536526 0.303160
C24   C     C_R   0.887501 0.585280 0.523122 0.296386
C25   C     C_R   0.209049 0.420567 0.529591 0.223119
C26   C     C_R   0.788608 0.583537 0.524100 0.220391
N1    N     N_R   0.252470 0.500000 0.499980 -0.248963
N2    N     N_R   0.747530 0.500000 0.500020 -0.232352
C27   C     C_R   0.197360 0.578102 0.463350 0.220041
C28   C     C_R   0.804948 0.418207 0.471849 0.243860
C29   C     C_R   0.098551 0.577657 0.455578 0.305675
C30   C     C_R   0.903815 0.419152 0.465727 0.313670
C31   C     C_R   0.052863 0.502252 0.495444 -0.139367
C32   C     C_R   0.946782 0.502512 0.493741 -0.133488
N3    N     N_R   0.616842 0.966414 0.434452 0.232230
O9    O     O_R   0.698298 0.001025 0.436433 -0.290020
O10   O     O_R   0.606288 0.891950 0.382193 -0.353443
N4    N     N_R   0.381646 0.034571 0.549496 0.224611
O11   O     O_R   0.298755 0.003977 0.541968 -0.302736
O12   O     O_R   0.393603 0.102553 0.608207 -0.279910
N5    N     N_R   0.676465 0.432573 0.044675 0.259316
O13   O     O_R   0.687324 0.357801 0.990058 -0.376811
O14   O     O_R   0.742389 0.491289 0.050111 -0.344499
N6    N     N_R   0.417232 0.317246 0.937406 0.261069
O15   O     O_R   0.468006 0.261554 0.992705 -0.361851
O16   O     O_R   0.332410 0.296791 0.919298 -0.307280
N7    N     N_R   0.675632 0.494219 0.224500 0.272129
O17   O     O_R   0.688998 0.582930 0.250292 -0.367511
O18   O     O_R   0.746961 0.426510 0.221553 -0.349489
N8    N     N_R   0.390852 0.360120 0.754493 0.273739
O19   O     O_R   0.430200 0.290070 0.703491 -0.314655
O20   O     O_R   0.299785 0.380308 0.755496 -0.342917
O21   O     O_3   0.330795 0.475219 0.227987 -0.586629
C33   C     C_3   0.318791 0.379384 0.258750 0.167712
H1    H     H_    0.274234 0.388609 0.319406 0.181386
H2    H     H_    0.386148 0.336168 0.278822 0.124012
C34   C     C_3   0.267899 0.321310 0.189940 -0.371838
H3    H     H_    0.201978 0.365748 0.169143 0.229959
H4    H     H_    0.313602 0.305485 0.130738 0.289361
C35   C     C_3   0.244106 0.223556 0.227835 -0.866664
H5    H     H_    0.309517 0.177295 0.247111 0.284724
H6    H     H_    0.206867 0.183055 0.176978 0.275926
H7    H     H_    0.197819 0.236793 0.286982 0.278252
O22   O     O_3   0.621582 0.599022 0.782085 -0.578441
C36   C     C_3   0.714634 0.553249 0.796148 0.233213
H8    H     H_    0.745732 0.529605 0.730738 0.139491
H9    H     H_    0.719109 0.485467 0.837887 0.150432
C37   C     C_3   0.775009 0.626926 0.838875 -0.299912
H10   H     H_    0.777820 0.691246 0.794714 0.232795
H11   H     H_    0.743168 0.654640 0.902644 0.276211
C38   C     C_3   0.874712 0.579401 0.857132 -0.984301
H12   H     H_    0.872937 0.517680 0.904503 0.312948
H13   H     H_    0.916945 0.634857 0.886926 0.272358
H14   H     H_    0.909293 0.550801 0.794706 0.238289
O23   O     O_3   0.332043 0.469896 0.048207 -0.604517
C39   C     C_3   0.293354 0.567607 0.032181 0.107503
H15   H     H_    0.334265 0.600170 0.979140 0.110932
H16   H     H_    0.292681 0.614337 0.093384 0.167420
C40   C     C_3   0.192100 0.566087 0.000207 -0.292992
H17   H     H_    0.191529 0.519516 0.939317 0.250929
H18   H     H_    0.150211 0.533327 0.052376 0.223307
C41   C     C_3   0.146671 0.669699 0.979574 -0.973416
H19   H     H_    0.145874 0.717487 0.039691 0.277726
H20   H     H_    0.072992 0.666100 0.957577 0.271594
H21   H     H_    0.185983 0.702646 0.925685 0.275720
O24   O     O_3   0.592520 0.606304 0.962785 -0.606617
C42   C     C_3   0.528557 0.689263 0.983630 0.058920
H22   H     H_    0.469125 0.667397 0.024169 0.111860
H23   H     H_    0.500875 0.726540 0.921981 0.164953
C43   C     C_3   0.579666 0.761643 0.038458 -0.299036
H24   H     H_    0.609018 0.724308 0.099243 0.264486
H25   H     H_    0.638980 0.785534 0.998989 0.229814
C44   C     C_3   0.513324 0.852129 0.065591 -0.851200
H26   H     H_    0.484475 0.891692 0.005789 0.273038
H27   H     H_    0.552519 0.902983 0.105500 0.289541
H28   H     H_    0.454254 0.829997 0.106418 0.263270
O25   O     O_3   0.070399 0.347224 0.574411 -0.526540
C45   C     C_3   0.039727 0.374299 0.661283 0.121669
H29   H     H_    0.977066 0.429988 0.658956 0.090593
H30   H     H_    0.096594 0.404578 0.700331 0.160285
C46   C     C_3   0.011557 0.283234 0.708521 -0.249130
H31   H     H_    0.957828 0.249631 0.668420 0.253197
H32   H     H_    0.074367 0.228226 0.715039 0.269091
C47   C     C_3   0.970974 0.309360 0.800571 -0.918457
H33   H     H_    0.022697 0.344841 0.841553 0.278452
H34   H     H_    0.954199 0.241258 0.834243 0.289144
H35   H     H_    0.905165 0.360189 0.794978 0.259375
O26   O     O_3   0.925121 0.671590 0.545317 -0.526859
C48   C     C_3   0.949330 0.669832 0.635973 0.089510
H36   H     H_    0.993079 0.600351 0.653740 0.091805
H37   H     H_    0.884308 0.678072 0.676999 0.163729
C49   C     C_3   0.006549 0.755741 0.655983 -0.227610
H38   H     H_    0.071706 0.747834 0.614837 0.254274
H39   H     H_    0.964615 0.826265 0.638539 0.258754
C50   C     C_3   0.033606 0.758744 0.753812 -0.970447
H40   H     H_    0.969428 0.771420 0.795871 0.273248
H41   H     H_    0.077568 0.819951 0.765608 0.290451
H42   H     H_    0.074622 0.688377 0.773063 0.266865
N9    N     N_R   0.260819 0.325814 0.539620 0.292862
O27   O     O_R   0.281221 0.273966 0.467938 -0.395042
O28   O     O_R   0.253956 0.278711 0.613544 -0.224576
N10   N     N_R   0.732530 0.672064 0.550016 0.250611
O29   O     O_R   0.738656 0.752564 0.505661 -0.277748
O30   O     O_R   0.690740 0.677598 0.626814 -0.388800
N11   N     N_R   0.239427 0.659075 0.426636 0.260699
O31   O     O_R   0.278965 0.649753 0.348795 -0.359058
O32   O     O_R   0.218046 0.746992 0.459783 -0.341313
N12   N     N_R   0.766047 0.329944 0.446637 0.251193
O33   O     O_R   0.720532 0.326298 0.372328 -0.339277
O34   O     O_R   0.792178 0.248304 0.488012 -0.337080
O35   O     O_3   0.047719 0.652868 0.409591 -0.530559
C51   C     C_3   0.031621 0.619365 0.322559 0.110569
H43   H     H_    0.987301 0.557230 0.323864 0.114298
H44   H     H_    0.099455 0.595108 0.288065 0.151809
C52   C     C_3   0.979093 0.703192 0.270079 -0.258480
H45   H     H_    0.913116 0.730688 0.305767 0.272807
H46   H     H_    0.023797 0.764787 0.264596 0.242086
C53   C     C_3   0.954290 0.668851 0.177167 -0.910405
H47   H     H_    0.019146 0.640670 0.140307 0.257680
H48   H     H_    0.917751 0.731650 0.140087 0.280267
H49   H     H_    0.906828 0.609558 0.181270 0.302706
O36   O     O_3   0.957486 0.337096 0.431322 -0.537056
C54   C     C_3   0.970639 0.349478 0.339145 0.104504
H50   H     H_    0.038844 0.380079 0.328224 0.115348
H51   H     H_    0.913395 0.399703 0.307774 0.166796
C55   C     C_3   0.973897 0.249112 0.292893 -0.254099
H52   H     H_    0.034726 0.199742 0.318153 0.237032
H53   H     H_    0.908365 0.215246 0.308279 0.280487
C56   C     C_3   0.982598 0.258621 0.192399 -0.900773
H54   H     H_    0.919084 0.302271 0.165376 0.312210
H55   H     H_    0.989191 0.184211 0.161136 0.277097
H56   H     H_    0.045755 0.295444 0.175114 0.253611

loop_
_geom_bond_atom_site_label_1
_geom_bond_atom_site_label_2
_geom_bond_distance
_ccdc_geom_bond_type
C24   O26   1.384130 S    
C20   C22   1.406128 A    
C36   H8    1.111075 S    
C17   C19   1.386611 A    
C46   H31   1.111957 S    
C23   O25   1.384370 S    
C7    N4    1.442193 S    
O7    Zn2   1.933998 S    
C18   O22   1.384169 S    
C38   H14   1.109608 S    
C38   H12   1.110670 S    
N11   O31   1.299751 A    
C27   C29   1.416884 A    
C27   N11   1.427266 S    
O23   C39   1.410585 S    
O5    C3    1.285176 A    
C11   C21   1.405596 A    
C12   C22   1.404935 A    
O1    C1    1.297682 A    
C55   H52   1.111089 S    
C25   N1    1.381182 A    
C14   C16   1.411287 A    
C26   N10   1.427236 S    
C52   H45   1.111963 S    
C37   H11   1.108121 S    
N7    O18   1.300627 A    
C37   C38   1.527036 S    
C7    C10   1.412078 S    
C45   H29   1.111334 S    
N8    O20   1.300402 A    
C8    C9    1.414134 S    
O4    Zn1   2.008126 S    
O26   C48   1.409525 S    
C43   H24   1.112718 S    
C20   O24   1.382780 S    
C52   H46   1.111589 S    
C21   C22   1.453694 S    
N10   O29   1.301094 A    
C28   N12   1.427771 S    
C50   H42   1.111116 S    
O25   C45   1.412786 S    
C53   H49   1.111264 S    
C35   H5    1.110940 S    
C54   H51   1.117730 S    
C30   O36   1.383800 S    
C25   N9    1.428549 S    
C19   O23   1.384909 S    
C14   N8    1.426205 S    
C48   H37   1.109399 S    
N11   O32   1.300909 A    
C29   C31   1.412816 A    
C51   C52   1.526842 S    
O2    C2    1.294248 A    
C30   C32   1.410558 A    
C43   H25   1.112167 S    
C42   H23   1.115616 S    
C42   H22   1.112129 S    
C49   H38   1.111964 S    
N3    O10   1.301655 A    
C5    C10   1.184131 T    
N6    O16   1.300745 A    
O22   C36   1.423990 S    
N5    O13   1.301250 A    
C23   C31   1.407310 A    
C33   C34   1.530737 S    
C24   C32   1.404948 A    
C53   H47   1.110016 S    
C44   H27   1.110611 S    
C37   H10   1.109708 S    
N3    O9    1.301502 A    
C39   C40   1.527460 S    
C41   H21   1.110873 S    
C34   H3    1.111370 S    
N8    O19   1.300261 A    
C34   H4    1.109987 S    
C33   H2    1.117172 S    
C44   H28   1.111731 S    
C31   C32   1.514869 S    
C29   O35   1.384096 S    
O7    C3    1.291441 A    
C3    C6    1.397860 S    
C56   H54   1.110863 S    
C4    C5    1.396610 S    
O6    C4    1.284850 A    
O24   C42   1.409397 S    
C35   H7    1.110257 S    
C41   H20   1.109880 S    
C7    C8    1.350172 D    
C56   H56   1.109592 S    
C46   H32   1.111650 S    
C40   C41   1.526015 S    
N4    O12   1.300905 A    
C36   H9    1.118942 S    
Zn1   N2    2.019203 S    
O3    Zn2   2.008126 S    
O8    C4    1.291206 A    
N10   O30   1.298529 A    
C1    C15   1.467818 S    
O4    C2    1.292957 A    
N4    O11   1.301329 A    
C12   N6    1.441284 S    
C11   C13   1.396346 A    
C50   H40   1.110407 S    
C12   C14   1.396906 A    
O1    Zn1   2.010117 S    
C49   H39   1.111647 S    
C26   N2    1.382360 A    
C8    N3    1.444582 S    
C11   N5    1.441700 S    
C52   C53   1.526843 S    
N9    O27   1.301259 A    
C48   C49   1.526864 S    
C13   N7    1.435926 S    
N6    O15   1.301371 A    
O6    Zn2   1.949845 S    
C42   C43   1.527354 S    
C39   H15   1.111862 S    
C55   C56   1.526593 S    
C53   H48   1.110282 S    
O3    C1    1.299210 A    
O8    Zn1   1.933995 S    
C38   H13   1.109220 S    
C47   H34   1.110248 S    
C48   H36   1.113337 S    
C47   H33   1.111065 S    
N12   O34   1.301024 A    
C15   C17   1.420285 A    
C16   C18   1.402087 A    
C45   C46   1.526969 S    
C34   C35   1.525844 S    
C33   H1    1.110875 S    
C49   C50   1.525991 S    
C55   H53   1.111664 S    
C56   H55   1.110223 S    
C54   H50   1.112213 S    
C18   C20   1.388048 A    
C19   C21   1.400635 A    
O35   C51   1.412416 S    
Zn2   N1    2.019203 S    
N2    C28   1.375922 A    
C54   C55   1.527337 S    
N7    O17   1.301423 A    
C2    C16   1.449686 S    
C6    C9    1.184890 T    
C28   C30   1.416145 A    
C41   H19   1.110840 S    
C23   C25   1.413470 A    
C24   C26   1.415071 A    
C45   H30   1.116240 S    
C46   C47   1.526456 S    
C39   H16   1.116032 S    
C43   C44   1.526169 S    
O2    Zn2   2.010117 S    
C36   C37   1.531148 S    
C47   H35   1.110788 S    
N12   O33   1.299223 A    
O21   C33   1.418119 S    
O5    Zn1   1.949845 S    
C13   C15   1.422797 A    
O36   C54   1.414891 S    
N1    C27   1.375794 A    
C40   H18   1.111725 S    
C44   H26   1.111550 S    
C50   H41   1.110241 S    
C51   H43   1.110828 S    
C17   O21   1.386009 S    
C35   H6    1.110243 S    
N5    O14   1.301727 A    
C40   H17   1.112039 S    
C51   H44   1.115548 S    
N9    O28   1.299218 A    
