data_mof_unit_63834.cif
_audit_creation_date              2012-12-10T20:46:45-0500
_audit_creation_method            fapswitch 2.2
_symmetry_space_group_name_H-M    P1
_symmetry_Int_Tables_number       1
_space_group_crystal_system       triclinic
_cell_length_a                    15.461071
_cell_length_b                    19.244124
_cell_length_c                    19.258597
_cell_angle_alpha                 94.700739
_cell_angle_beta                  102.372749
_cell_angle_gamma                 97.316902
_cell_volume                      5516.03642654

loop_
_atom_site_label
_atom_site_type_symbol
_atom_type_description
_atom_site_fract_x
_atom_site_fract_y
_atom_site_fract_z
_atom_type_partial_charge
C1    C     C_R   0.509610 0.311688 0.493132 0.554054
C2    C     C_R   0.883084 0.524329 0.501449 -0.081853
C3    C     C_R   0.885251 0.569835 0.622617 -0.133225
C4    C     C_R   0.491535 0.688269 0.506903 0.528548
C5    C     C_R   0.159184 0.457884 0.444071 0.053223
C6    C     C_R   0.491485 0.765087 0.511988 0.067663
C7    C     C_R   0.522544 0.803126 0.460804 -0.180692
C8    C     C_R   0.525407 0.875893 0.464678 -0.100186
C9    C     C_R   0.497334 0.912409 0.520379 0.206202
C10   C     C_R   0.467081 0.874853 0.571726 -0.104871
C11   C     C_R   0.463502 0.801548 0.568100 0.074641
C12   C     C_R   0.034701 0.466101 0.346070 -0.122659
C13   C     C_R   0.530003 0.129704 0.548138 -0.079008
C14   C     C_R   0.528346 0.202366 0.552402 0.216643
C15   C     C_R   0.514225 0.089163 0.481142 0.159155
C16   C     C_R   0.510144 0.508982 0.690792 0.495625
C17   C     C_R   0.513161 0.235584 0.489194 0.076268
C18   C     C_R   0.499560 0.195182 0.422171 0.028360
C19   C     C_R   0.500678 0.122477 0.418911 -0.122101
C20   C     C_R   0.487311 0.487193 0.231442 0.030288
C21   C     C_R   0.550434 0.531168 0.205036 0.246820
C22   C     C_R   0.543125 0.529367 0.131435 -0.078896
C23   C     C_R   0.990566 0.497348 0.393416 0.096754
C24   C     C_R   0.475405 0.482402 0.082835 0.174879
C25   C     C_R   0.414739 0.437696 0.109401 -0.128806
C26   C     C_R   0.420367 0.440018 0.182925 -0.198300
C27   C     C_R   0.435422 0.510626 0.864488 0.104670
C28   C     C_R   0.490762 0.490776 0.308887 0.520534
C29   C     C_R   0.434802 0.508335 0.791495 -0.169860
C30   C     C_R   0.518155 0.516456 0.914738 0.220627
C31   C     C_R   0.514763 0.511936 0.767935 -0.013551
C32   C     C_R   0.597514 0.519474 0.818372 0.113110
C33   C     C_R   0.598754 0.522523 0.891392 0.130175
C34   C     C_R   0.023378 0.498650 0.468714 0.028418
C35   C     C_R   0.741347 0.535019 0.535639 0.490227
C36   C     C_R   0.257888 0.465795 0.465601 0.514124
C37   C     C_R   0.975612 0.564218 0.643153 -0.110308
C38   C     C_R   0.838502 0.547617 0.552319 0.029798
C39   C     C_R   0.118276 0.446337 0.370365 0.075735
C40   C     C_3   0.207211 0.584725 0.706049 -0.134064
C41   C     C_3   0.696725 0.550080 0.262943 -0.101451
C42   C     C_3   0.463280 0.237678 0.641404 -0.103912
C43   C     C_R   0.108606 0.477366 0.494147 -0.062537
C44   C     C_R   0.975766 0.521720 0.519802 0.001772
C45   C     C_R   0.020206 0.536426 0.593259 0.017027
C46   C     C_R   0.104642 0.516414 0.617141 0.311797
C47   C     C_R   0.142054 0.478260 0.569229 0.128430
H1    H     H_    0.850358 0.586874 0.662639 0.117572
H2    H     H_    0.591146 0.565026 0.112941 0.145524
H3    H     H_    0.008685 0.577411 0.699102 0.160481
H4    H     H_    0.842007 0.500594 0.450419 0.147767
H5    H     H_    0.007105 0.462626 0.288977 0.111969
H6    H     H_    0.368673 0.774696 0.622699 0.226629
H7    H     H_    0.475029 0.786175 0.672017 0.223495
H8    H     H_    0.536734 0.217504 0.331130 0.225898
H9    H     H_    0.424928 0.204546 0.324531 0.237382
H10   H     H_    0.352931 0.559094 0.913417 0.236044
H11   H     H_    0.298109 0.499881 0.844130 0.237147
H12   H     H_    0.543286 0.105324 0.597306 0.155205
H13   H     H_    0.175174 0.632367 0.694156 0.109637
H14   H     H_    0.261842 0.581509 0.677049 0.139203
H15   H     H_    0.238091 0.590929 0.764166 0.134454
H16   H     H_    0.683492 0.567070 0.764322 0.225720
H17   H     H_    0.686309 0.479199 0.768505 0.264995
H18   H     H_    0.688598 0.576694 0.976850 0.233425
H19   H     H_    0.683973 0.487950 0.971828 0.239181
H20   H     H_    0.688846 0.499848 0.287377 0.112197
H21   H     H_    0.748872 0.587719 0.301374 0.166072
H22   H     H_    0.720888 0.541639 0.212926 0.095935
H23   H     H_    0.446122 0.902816 0.614968 0.116205
H24   H     H_    0.125607 0.375822 0.288878 0.227730
H25   H     H_    0.171627 0.459416 0.284238 0.223592
H26   H     H_    0.869631 0.497126 0.327674 0.207628
H27   H     H_    0.941947 0.572492 0.335232 0.236060
H28   H     H_    0.268183 0.463339 0.619000 0.254350
H29   H     H_    0.208714 0.392306 0.561237 0.214391
H30   H     H_    0.437881 0.182741 0.649143 0.111003
H31   H     H_    0.411581 0.259480 0.603174 0.105357
H32   H     H_    0.475603 0.270334 0.693748 0.154807
H33   H     H_    0.550206 0.903339 0.424360 0.147569
H34   H     H_    0.489990 0.091544 0.367375 0.130372
H35   H     H_    0.544574 0.776512 0.417387 0.148886
H36   H     H_    0.371565 0.503410 0.752723 0.136641
H37   H     H_    0.362463 0.401177 0.072863 0.143654
H38   H     H_    0.371591 0.405376 0.201733 0.152819
N1    N     N_2   0.499482 0.986632 0.527458 -0.247623
N2    N     N_3   0.164949 0.421021 0.318922 -0.588507
N3    N     N_3   0.917940 0.533344 0.363853 -0.660768
N4    N     N_3   0.205118 0.433494 0.598874 -0.583272
N5    N     N_2   0.512378 0.015044 0.473928 -0.240387
N6    N     N_2   0.466883 0.478330 0.007485 -0.182852
N7    N     N_2   0.523994 0.520501 0.989406 -0.267256
N8    N     N_3   0.433636 0.764945 0.622514 -0.595423
N9    N     N_3   0.486395 0.228050 0.357332 -0.601722
N10   N     N_3   0.353022 0.509017 0.887905 -0.575734
N11   N     N_3   0.681392 0.526489 0.797127 -0.571495
N12   N     N_3   0.683275 0.530963 0.941975 -0.576428
O1    O     O_3   0.500000 0.500000 0.500000 -0.454292
O2    O     O_R   0.703360 0.489010 0.567610 -0.538398
O3    O     O_R   0.300660 0.429640 0.429680 -0.503123
O4    O     O_R   0.695340 0.566530 0.487850 -0.536406
O5    O     O_R   0.300650 0.514820 0.514850 -0.561291
O6    O     O_3   0.143583 0.522937 0.689535 -0.554383
O7    O     O_3   0.616487 0.579360 0.250454 -0.537055
O8    O     O_3   0.544476 0.241089 0.618780 -0.540580
O9    O     O_R   0.453370 0.540700 0.651360 -0.553322
O10   O     O_R   0.442100 0.444740 0.334100 -0.547029
O11   O     O_R   0.561930 0.354050 0.543340 -0.498422
O12   O     O_R   0.542600 0.660510 0.471200 -0.551153
O13   O     O_R   0.453390 0.335660 0.446330 -0.522507
O14   O     O_R   0.442080 0.649780 0.539130 -0.499788
O15   O     O_R   0.561920 0.473910 0.663190 -0.544666
O16   O     O_R   0.542610 0.540650 0.351350 -0.486342
Zn1   Zn    Zn3+2 0.425320 0.550450 0.550460 0.926099
Zn2   Zn    Zn3+2 0.580410 0.455020 0.567370 0.952482
Zn3   Zn    Zn3+2 0.568940 0.565780 0.453410 0.959446
Zn4   Zn    Zn3+2 0.425330 0.428750 0.428760 0.955918

loop_
_geom_bond_atom_site_label_1
_geom_bond_atom_site_label_2
_ccdc_geom_bond_type
C4    O12   A    
C40   H13   S    
C27   C29   A    
C27   N10   S    
C39   N2    S    
C7    C8    A    
C41   H20   S    
C45   C46   A    
C16   C31   S    
C15   C19   A    
C12   C23   A    
C16   O15   A    
O9    Zn1   S    
H19   N12   S    
C29   H36   S    
O2    Zn2   S    
C9    N1    S    
O1    Zn1   S    
C28   O10   A    
C5    C36   S    
C3    H1    S    
C40   H15   S    
C36   O5    A    
C18   C19   A    
H7    N8    S    
O12   Zn3   S    
C21   O7    S    
C14   O8    S    
C3    C38   A    
C2    C44   A    
C8    C9    A    
C25   H37   S    
C13   C14   A    
C9    C10   A    
C16   O9    A    
H29   N4    S    
O16   Zn3   S    
C11   N8    S    
C5    C43   A    
C42   H32   S    
C21   C22   A    
C27   C30   A    
C47   N4    S    
C14   C17   A    
H8    N9    S    
C35   O2    A    
O13   Zn4   S    
C12   H5    S    
C41   H21   S    
H6    N8    S    
C35   C38   S    
C34   C44   A    
C24   C25   A    
H17   N11   S    
C4    C6    S    
C10   C11   A    
C6    C11   A    
C20   C28   S    
C25   C26   A    
H16   N11   S    
C40   H14   S    
H9    N9    S    
H11   N10   S    
H26   N3    S    
O5    Zn1   S    
C1    O13   A    
C2    C38   A    
O1    Zn3   S    
C31   C32   A    
C23   C34   A    
C17   C18   A    
C36   O3    A    
C22   H2    S    
H24   N2    S    
C10   H23   S    
C30   N7    S    
C32   N11   S    
C4    O14   A    
C42   H31   S    
C23   N3    S    
C5    C39   A    
N1    N5    D    
C18   N9    S    
C22   C24   A    
C37   C45   A    
C24   N6    S    
N6    N7    D    
H25   N2    S    
C44   C45   A    
O11   Zn2   S    
O1    Zn4   S    
C41   H22   S    
C46   C47   A    
C30   C33   A    
C34   C43   A    
C35   O4    A    
C6    C7    A    
C13   H12   S    
C46   O6    S    
C1    C17   S    
C2    H4    S    
C41   O7    S    
C32   C33   A    
C12   C39   A    
C13   C15   A    
H18   N12   S    
C29   C31   A    
C40   O6    S    
C37   H3    S    
O1    Zn2   S    
C20   C26   A    
C26   H38   S    
O14   Zn1   S    
C33   N12   S    
C42   O8    S    
C28   O16   A    
H28   N4    S    
C1    O11   A    
C7    H35   S    
C20   C21   A    
C3    C37   A    
C42   H30   S    
H10   N10   S    
C8    H33   S    
O4    Zn3   S    
O3    Zn4   S    
H27   N3    S    
C19   H34   S    
C43   C47   A    
O10   Zn4   S    
O15   Zn2   S    
C15   N5    S    
