data_mof_unit_59233.cif
_audit_creation_date              2012-10-26T20:48:43-0400
_audit_creation_method            fapswitch 2.2
_symmetry_space_group_name_H-M    P1
_symmetry_Int_Tables_number       1
_space_group_crystal_system       triclinic
_cell_length_a                    15.241694
_cell_length_b                    13.870201
_cell_length_c                    9.081828
_cell_angle_alpha                 90.0
_cell_angle_beta                  90.275711
_cell_angle_gamma                 90.000107
_cell_volume                      1919.92488291

loop_
_atom_site_label
_atom_site_type_symbol
_atom_type_description
_atom_site_fract_x
_atom_site_fract_y
_atom_site_fract_z
_atom_type_partial_charge
C1    C     C_R   0.329703 0.499931 0.501880 0.581758
C2    C     C_R   0.542715 0.891671 0.611668 -0.159072
C3    C     C_R   0.499952 0.499998 0.220543 0.552784
C4    C     C_R   0.500048 0.499998 0.779457 0.552783
C5    C     C_R   0.499999 0.054439 0.500000 0.018693
C6    C     C_R   0.499999 0.945036 0.500000 0.023501
C7    C     C_1   0.499982 0.499989 0.065512 -0.056035
C8    C     C_1   0.500017 0.499989 0.934488 -0.056035
C9    C     C_R   0.093497 0.578968 0.458002 -0.128527
C10   C     C_R   0.904763 0.414072 0.457534 -0.121060
C11   C     C_R   0.906503 0.578966 0.542003 -0.128529
C12   C     C_R   0.670297 0.499932 0.498120 0.581761
C13   C     C_R   0.095237 0.414070 0.542458 -0.121061
C14   C     C_R   0.184965 0.584145 0.469840 0.217867
C15   C     C_R   0.813150 0.413368 0.461396 0.211292
C16   C     C_R   0.815036 0.584144 0.530166 0.217869
C17   C     C_R   0.186849 0.413367 0.538597 0.211293
C18   C     C_R   0.232785 0.499266 0.503392 0.026942
C19   C     C_R   0.767215 0.499267 0.496608 0.026944
C20   C     C_R   0.048254 0.495751 0.499231 -0.044993
C21   C     C_R   0.951746 0.495751 0.500767 -0.044992
C22   C     C_3   0.194127 0.744740 0.532933 -0.006811
C23   C     C_R   0.517076 0.209078 0.626760 0.027492
C24   C     C_3   0.260066 0.826466 0.544732 -0.360072
C25   C     C_3   0.774689 0.259334 0.521407 0.005601
C26   C     C_3   0.736838 0.166153 0.459735 -0.360696
C27   C     C_3   0.805879 0.744746 0.467105 -0.006813
C28   C     C_3   0.739940 0.826470 0.455302 -0.360074
C29   C     C_3   0.225311 0.259334 0.478578 0.005600
C30   C     C_3   0.263160 0.166152 0.540246 -0.360696
C31   C     C_R   0.458524 0.790385 0.389986 0.039652
C32   C     C_R   0.482923 0.209078 0.373240 0.027490
C33   C     C_R   0.541476 0.790385 0.610015 0.039648
C34   C     C_R   0.516139 0.107817 0.629586 -0.161386
C35   C     C_R   0.457284 0.891671 0.388333 -0.159070
C36   C     C_R   0.483860 0.107817 0.370415 -0.161388
Cu1   Cu    Cu3+1 0.500000 0.596430 0.500000 0.977754
Cu2   Cu    Cu3+1 0.500000 0.403570 0.500000 0.967170
H1    H     H_    0.531105 0.247304 0.727653 0.130042
H2    H     H_    0.420889 0.926889 0.301315 0.085318
H3    H     H_    0.472973 0.072599 0.265841 0.088870
H4    H     H_    0.579110 0.926889 0.698686 0.085317
H5    H     H_    0.180259 0.718918 0.646914 0.124944
H6    H     H_    0.133109 0.774682 0.483450 0.115976
H7    H     H_    0.274712 0.855125 0.433430 0.150529
H8    H     H_    0.232531 0.885618 0.612749 0.084640
H9    H     H_    0.321252 0.800162 0.597931 0.178590
H10   H     H_    0.736145 0.280424 0.620152 0.143200
H11   H     H_    0.843736 0.244615 0.555369 0.105346
H12   H     H_    0.424535 0.751054 0.304181 0.146606
H13   H     H_    0.777876 0.140102 0.367186 0.142814
H14   H     H_    0.735349 0.110065 0.546969 0.087235
H15   H     H_    0.669163 0.178518 0.418763 0.187246
H16   H     H_    0.819760 0.718933 0.353123 0.124942
H17   H     H_    0.866892 0.774687 0.516611 0.115980
H18   H     H_    0.725286 0.855123 0.566605 0.150525
H19   H     H_    0.767479 0.885627 0.387300 0.084640
H20   H     H_    0.678759 0.800168 0.402087 0.178591
H21   H     H_    0.263857 0.280427 0.379836 0.143200
H22   H     H_    0.156264 0.244617 0.444612 0.105346
H23   H     H_    0.468894 0.247303 0.272347 0.130042
H24   H     H_    0.222120 0.140098 0.632791 0.142813
H25   H     H_    0.264650 0.110066 0.453008 0.087234
H26   H     H_    0.330835 0.178515 0.581222 0.187246
H27   H     H_    0.575464 0.751054 0.695819 0.146607
H28   H     H_    0.057458 0.640972 0.418181 0.107162
H29   H     H_    0.939007 0.350463 0.419257 0.118773
H30   H     H_    0.942543 0.640969 0.581830 0.107158
H31   H     H_    0.060992 0.350460 0.580730 0.118773
H32   H     H_    0.527026 0.072599 0.734160 0.088870
N1    N     N_R   0.500000 0.258690 0.500000 -0.220722
N2    N     N_R   0.500000 0.741310 0.500000 -0.229645
O1    O     O_R   0.371460 0.581430 0.500010 -0.458558
O2    O     O_3   0.769027 0.332056 0.412667 -0.537213
O3    O     O_3   0.771700 0.670483 0.557600 -0.540165
O4    O     O_3   0.230972 0.332053 0.587322 -0.537213
O5    O     O_R   0.628540 0.418570 0.499990 -0.470597
O6    O     O_R   0.628540 0.581430 0.499990 -0.458556
O7    O     O_R   0.371460 0.418570 0.500010 -0.470596
O8    O     O_R   0.500000 0.581420 0.288390 -0.510214
O9    O     O_R   0.500000 0.418580 0.711610 -0.513654
O10   O     O_R   0.500000 0.581420 0.711610 -0.510214
O11   O     O_R   0.500000 0.418580 0.288390 -0.513654
O12   O     O_3   0.228300 0.670485 0.442415 -0.540166

loop_
_geom_bond_atom_site_label_1
_geom_bond_atom_site_label_2
_ccdc_geom_bond_type
C30   H26   S    
Cu2   O11   S    
C16   O3    S    
C14   C18   A    
C14   O12   S    
C4    C8    S    
C28   H18   S    
C27   H16   S    
C33   H27   S    
C7    C8    T    
C29   O4    S    
C10   H29   S    
C15   C19   A    
C1    C18   S    
C29   C30   S    
C24   H7    S    
C32   C36   A    
C32   H23   S    
C3    C7    S    
C10   C15   A    
C5    C6    S    
C27   H17   S    
Cu2   O7    S    
C5    C36   A    
C6    C35   A    
C25   O2    S    
C9    H28   S    
C33   N2    A    
C22   H6    S    
C4    O9    A    
C29   H21   S    
C12   O6    A    
C17   O4    S    
C34   H32   S    
C30   H25   S    
C5    C34   A    
C36   H3    S    
C2    C6    A    
C27   O3    S    
C3    O8    A    
C32   N1    A    
C10   C21   A    
Cu1   O8    S    
C23   N1    A    
C25   C26   S    
C28   H19   S    
C11   C21   A    
C22   O12   S    
C9    C14   A    
Cu1   Cu2   S    
C26   H14   S    
C11   C16   A    
C9    C20   A    
C22   H5    S    
C29   H22   S    
C23   C34   A    
C12   O5    A    
C17   C18   A    
C25   H10   S    
C2    C33   A    
C31   N2    A    
C30   H24   S    
Cu2   O9    S    
C3    O11   A    
C1    O7    A    
C22   C24   S    
Cu1   O10   S    
C31   H12   S    
C26   H15   S    
C11   H30   S    
Cu1   O1    S    
Cu2   N1    S    
C13   C20   A    
C24   H9    S    
Cu2   O5    S    
C28   H20   S    
Cu1   O6    S    
C13   C17   A    
C1    O1    A    
C35   H2    S    
C24   H8    S    
C26   H13   S    
C13   H31   S    
C2    H4    S    
C16   C19   A    
C23   H1    S    
C12   C19   S    
C31   C35   A    
C25   H11   S    
C15   O2    S    
C4    O10   A    
C20   C21   S    
Cu1   N2    S    
C27   C28   S    
