data_mof_unit_10625.cif
_audit_creation_date              2013-03-05T15:40:41-0500
_audit_creation_method            fapswitch 2.2
_symmetry_space_group_name_H-M    P1
_symmetry_Int_Tables_number       1
_space_group_crystal_system       triclinic
_cell_length_a                    19.028622
_cell_length_b                    10.98944
_cell_length_c                    18.741324
_cell_angle_alpha                 89.75203
_cell_angle_beta                  90.095115
_cell_angle_gamma                 89.967466
_cell_volume                      3919.02859682

loop_
_atom_site_label
_atom_site_type_symbol
_atom_site_description
_atom_site_fract_x
_atom_site_fract_y
_atom_site_fract_z
_atom_type_partial_charge
O1    O     O_R   0.043230 0.549300 0.667990 -0.483760
O2    O     O_R   0.956770 0.549300 0.332010 -0.482553
O3    O     O_R   0.543230 0.049300 0.667990 -0.484929
O4    O     O_R   0.456770 0.049300 0.332010 -0.483153
O5    O     O_R   0.178620 0.457600 0.674100 -0.514058
O6    O     O_R   0.821380 0.457600 0.325900 -0.508793
O7    O     O_R   0.678620 0.957600 0.674100 -0.508332
O8    O     O_R   0.321380 0.957600 0.325900 -0.508980
C1    C     C_R   0.238905 0.468829 0.645846 0.569020
C2    C     C_R   0.760613 0.467536 0.353552 0.577232
C3    C     C_R   0.738908 0.968831 0.645848 0.574238
C4    C     C_R   0.260652 0.967601 0.353595 0.577441
O9    O     O_R   0.284680 0.542100 0.669460 -0.468846
O10   O     O_R   0.715320 0.542100 0.330540 -0.472939
O11   O     O_R   0.784680 0.042100 0.669460 -0.474284
O12   O     O_R   0.215320 0.042100 0.330540 -0.472666
O13   O     O_R   0.262860 0.790390 0.676650 -0.480066
O14   O     O_R   0.737140 0.790390 0.323350 -0.486406
O15   O     O_R   0.762860 0.290390 0.676650 -0.508497
O16   O     O_R   0.237140 0.290390 0.323350 -0.486620
C5    C     C_R   0.227133 0.874548 0.647600 0.560472
C6    C     C_R   0.772482 0.875344 0.351880 0.559342
C7    C     C_R   0.727107 0.374456 0.647557 0.561512
C8    C     C_R   0.272481 0.375348 0.351878 0.558269
O17   O     O_R   0.167460 0.907030 0.670940 -0.501161
O18   O     O_R   0.832540 0.907030 0.329060 -0.501431
O19   O     O_R   0.667460 0.407030 0.670940 -0.494013
O20   O     O_R   0.332540 0.407030 0.329060 -0.501828
O21   O     O_R   0.053950 0.750220 0.675100 -0.473807
O22   O     O_R   0.946050 0.750220 0.324900 -0.467905
O23   O     O_R   0.553950 0.250220 0.675100 -0.464347
O24   O     O_R   0.446050 0.250220 0.324900 -0.468196
C9    C     C_R   0.027167 0.656029 0.645777 0.612494
C10   C     C_R   0.972857 0.654123 0.354157 0.588572
C11   C     C_R   0.527313 0.156092 0.645707 0.572267
C12   C     C_R   0.472752 0.154130 0.354233 0.585256
O25   O     O_R   0.043300 0.547370 0.827390 -0.430319
O26   O     O_R   0.956700 0.547370 0.172610 -0.429920
O27   O     O_R   0.543300 0.047370 0.827390 -0.429774
O28   O     O_R   0.456700 0.047370 0.172610 -0.429409
O29   O     O_R   0.178690 0.455820 0.821860 -0.450812
O30   O     O_R   0.821310 0.455820 0.178140 -0.452663
O31   O     O_R   0.678690 0.955820 0.821860 -0.448849
O32   O     O_R   0.321310 0.955820 0.178140 -0.453177
C13   C     C_R   0.240017 0.461563 0.849022 0.555106
C14   C     C_R   0.760137 0.462099 0.150843 0.560621
C15   C     C_R   0.740074 0.961456 0.848944 0.558442
C16   C     C_R   0.260219 0.962273 0.150734 0.560202
O33   O     O_R   0.284750 0.540170 0.828860 -0.511498
O34   O     O_R   0.715250 0.540170 0.171140 -0.506029
O35   O     O_R   0.784750 0.040170 0.828860 -0.512566
O36   O     O_R   0.215250 0.040170 0.171140 -0.505331
O37   O     O_R   0.262920 0.788600 0.824420 -0.463975
O38   O     O_R   0.737080 0.788600 0.175580 -0.462124
O39   O     O_R   0.762920 0.288600 0.824420 -0.467301
O40   O     O_R   0.237080 0.288600 0.175580 -0.462321
C17   C     C_R   0.226006 0.870439 0.854468 0.568972
C18   C     C_R   0.774024 0.870583 0.145467 0.576508
C19   C     C_R   0.726013 0.370426 0.854473 0.574089
C20   C     C_R   0.274033 0.370586 0.145464 0.574575
O41   O     O_R   0.167530 0.905110 0.830340 -0.493556
O42   O     O_R   0.832470 0.905110 0.169660 -0.496552
O43   O     O_R   0.667530 0.405110 0.830340 -0.491063
O44   O     O_R   0.332470 0.405110 0.169660 -0.497017
O45   O     O_R   0.054010 0.748440 0.822860 -0.499766
O46   O     O_R   0.945990 0.748440 0.177140 -0.500024
O47   O     O_R   0.554010 0.248440 0.822860 -0.500464
O48   O     O_R   0.445990 0.248440 0.177140 -0.500132
C21   C     C_R   0.028220 0.652057 0.850423 0.582344
C22   C     C_R   0.972319 0.652530 0.150034 0.584380
C23   C     C_R   0.528516 0.151948 0.850676 0.574795
C24   C     C_R   0.472544 0.152642 0.150256 0.585813
Cr1   Cr    Cr6+3 0.113970 0.508630 0.747920 1.132100
Cr2   Cr    Cr6+3 0.886030 0.508630 0.252080 1.145439
Cr3   Cr    Cr6+3 0.613970 0.008630 0.747920 1.143883
Cr4   Cr    Cr6+3 0.386030 0.008630 0.252080 1.144721
Cr5   Cr    Cr6+3 0.269200 0.666740 0.749850 1.137043
Cr6   Cr    Cr6+3 0.730800 0.666740 0.250150 1.138148
Cr7   Cr    Cr6+3 0.769200 0.166740 0.749850 1.111018
Cr8   Cr    Cr6+3 0.230800 0.166740 0.250150 1.137510
Cr9   Cr    Cr6+3 0.112300 0.820070 0.749800 1.122934
Cr10  Cr    Cr6+3 0.887700 0.820070 0.250200 1.116768
Cr11  Cr    Cr6+3 0.612300 0.320070 0.749800 1.126905
Cr12  Cr    Cr6+3 0.387700 0.320070 0.250200 1.115879
O49   O     O_3   0.165160 0.665150 0.749190 -0.311731
O50   O     O_3   0.834840 0.665150 0.250810 -0.310459
O51   O     O_3   0.665160 0.165150 0.749190 -0.307131
O52   O     O_3   0.334840 0.165150 0.250810 -0.310097
C25   C     C_2   0.248901 0.916032 0.577455 -0.084389
C26   C     C_2   0.749599 0.920728 0.420661 -0.094309
C27   C     C_2   0.748820 0.415622 0.577325 -0.074239
C28   C     C_2   0.249595 0.420762 0.420652 -0.095230
C29   C     C_2   0.246704 0.909181 0.421460 -0.077876
C30   C     C_2   0.751023 0.913321 0.576867 -0.084007
C31   C     C_2   0.746492 0.408966 0.421328 -0.076016
C32   C     C_2   0.251001 0.413313 0.576862 -0.090938
C33   C     C_2   0.299535 0.866762 0.461380 -0.177701
C34   C     C_2   0.696409 0.878595 0.536488 -0.175769
C35   C     C_2   0.799127 0.365716 0.461162 -0.168533
C36   C     C_2   0.196366 0.378711 0.536466 -0.179107
C37   C     C_2   0.289274 0.843132 0.537139 -0.141347
C38   C     C_2   0.705396 0.854128 0.460684 -0.145487
C39   C     C_2   0.788781 0.342151 0.536920 -0.155375
C40   C     C_2   0.205346 0.354236 0.460662 -0.147369
H1    H     H_    0.351559 0.853129 0.439173 0.165126
H2    H     H_    0.643772 0.870855 0.558413 0.166678
H3    H     H_    0.851039 0.351349 0.438869 0.166763
H4    H     H_    0.143714 0.371094 0.558372 0.165176
H5    H     H_    0.314597 0.762889 0.559381 0.168923
H6    H     H_    0.676570 0.777783 0.438494 0.179869
H7    H     H_    0.813690 0.261466 0.559090 0.153083
H8    H     H_    0.176479 0.277945 0.438462 0.179854
H9    H     H_    0.194299 0.917917 0.443720 0.128439
H10   H     H_    0.803769 0.917324 0.554794 0.142318
H11   H     H_    0.694142 0.418270 0.443636 0.127816
H12   H     H_    0.303756 0.417206 0.554802 0.141904
H13   H     H_    0.224354 0.997071 0.555168 0.102553
H14   H     H_    0.776736 0.998925 0.442901 0.110546
H15   H     H_    0.724572 0.496973 0.555095 0.109461
H16   H     H_    0.276766 0.498915 0.442903 0.110854
C41   C     C_R   0.008589 0.658444 0.425149 -0.007904
C42   C     C_R   0.992358 0.667706 0.574446 0.050316
C43   C     C_R   0.508188 0.158547 0.425359 -0.004579
C44   C     C_R   0.492195 0.168182 0.574579 -0.007377
C45   C     C_R   0.041973 0.875507 0.424149 0.222916
C46   C     C_R   0.994619 0.894695 0.566452 0.229220
C47   C     C_R   0.542035 0.375399 0.424131 0.220494
C48   C     C_R   0.495014 0.395121 0.566517 0.232430
C49   C     C_R   0.044987 0.986276 0.460165 -0.170783
C50   C     C_R   0.019932 0.996577 0.529466 -0.160898
C51   C     C_R   0.545400 0.486185 0.460090 -0.172467
C52   C     C_R   0.520534 0.496753 0.529450 -0.162576
C53   C     C_R   0.000425 0.777722 0.534596 -0.060848
C54   C     C_R   0.016421 0.770768 0.460404 -0.050722
C55   C     C_R   0.500444 0.278092 0.534686 -0.042895
C56   C     C_R   0.516262 0.270918 0.460478 -0.045147
H17   H     H_    0.067484 0.065077 0.434115 0.150211
H18   H     H_    0.020032 0.085061 0.554347 0.146374
H19   H     H_    0.568071 0.564751 0.433952 0.151186
H20   H     H_    0.520954 0.585229 0.554326 0.144982
C57   C     C_R   0.982584 0.557636 0.537235 0.009314
C58   C     C_R   0.006612 0.550238 0.466565 -0.059652
C59   C     C_R   0.481465 0.058237 0.537507 -0.045569
C60   C     C_R   0.505869 0.050556 0.466925 -0.042005
C61   C     C_R   0.955002 0.452176 0.570775 0.275764
C62   C     C_R   0.022929 0.433353 0.438367 0.268274
C63   C     C_R   0.454237 0.951692 0.571141 0.276029
C64   C     C_R   0.522882 0.933687 0.439108 0.268867
C65   C     C_R   0.964059 0.338426 0.538368 -0.185974
C66   C     C_R   0.999731 0.329398 0.473971 -0.117015
C67   C     C_R   0.465058 0.838606 0.539705 -0.122673
C68   C     C_R   0.500777 0.829634 0.475337 -0.135950
H21   H     H_    0.944245 0.256618 0.563536 0.117948
H22   H     H_    0.008304 0.241207 0.450655 0.141420
H23   H     H_    0.445765 0.757131 0.565671 0.153999
H24   H     H_    0.510280 0.741363 0.452539 0.137458
C69   C     C_2   0.238876 0.898315 0.928603 0.007273
C70   C     C_2   0.761250 0.898437 0.071193 0.011252
C71   C     C_2   0.738950 0.398362 0.928594 0.008984
C72   C     C_2   0.261315 0.398414 0.071177 0.010255
C73   C     C_2   0.243822 0.888095 0.088249 0.198059
C74   C     C_2   0.757358 0.886166 0.911175 0.195897
C75   C     C_2   0.743505 0.387848 0.088431 0.198435
C76   C     C_2   0.257144 0.386329 0.911323 0.194080
C77   C     C_2   0.189240 0.923838 0.047749 -0.117408
C78   C     C_2   0.810704 0.924884 0.952378 -0.122006
C79   C     C_2   0.689420 0.424902 0.047601 -0.117761
C80   C     C_2   0.310865 0.424202 0.952264 -0.122202
C81   C     C_2   0.183229 0.894917 0.972775 -0.083896
C82   C     C_2   0.816966 0.895511 0.027272 -0.084748
C83   C     C_2   0.683278 0.395784 0.972709 -0.083924
C84   C     C_2   0.317032 0.395093 0.027235 -0.084353
H25   H     H_    0.151600 0.990779 0.066539 0.174608
H26   H     H_    0.846573 0.995507 0.934440 0.176328
H27   H     H_    0.652406 0.493161 0.066013 0.175563
H28   H     H_    0.347196 0.493875 0.934021 0.175980
H29   H     H_    0.130210 0.881304 0.952615 0.147838
H30   H     H_    0.870047 0.882897 0.047573 0.148985
H31   H     H_    0.630197 0.382935 0.952549 0.148374
H32   H     H_    0.370078 0.382119 0.047557 0.148713
H33   H     H_    0.292098 0.911988 0.947879 0.178317
H34   H     H_    0.708056 0.910631 0.051393 0.177945
H35   H     H_    0.792201 0.411137 0.947996 0.178497
H36   H     H_    0.208139 0.411063 0.051433 0.177966
C85   C     C_2   0.999500 0.659867 0.922180 -0.113748
C86   C     C_2   0.003061 0.661656 0.079223 -0.109714
C87   C     C_2   0.500886 0.159338 0.922925 -0.117310
C88   C     C_2   0.504230 0.162286 0.079940 -0.107440
C89   C     C_2   0.011742 0.559812 0.040055 0.163314
C90   C     C_2   0.994579 0.558156 0.962812 0.162667
C91   C     C_2   0.514434 0.060554 0.041188 0.164660
C92   C     C_2   0.497429 0.057708 0.963919 0.161411
H37   H     H_    0.996698 0.750425 0.055069 0.056980
H38   H     H_    0.004208 0.749425 0.945237 0.057568
H39   H     H_    0.497334 0.250718 0.055513 0.056609
H40   H     H_    0.505052 0.249169 0.945719 0.058827
N1    N     N_R   0.286955 0.784765 0.069140 0.066806
O53   O     O_R   0.259661 0.693692 0.034640 -0.361884
O54   O     O_R   0.350938 0.774448 0.092942 -0.246131
N2    N     N_R   0.717301 0.777805 0.928268 0.072476
O55   O     O_R   0.744183 0.693656 0.969114 -0.365318
O56   O     O_R   0.659750 0.752891 0.893780 -0.248744
N3    N     N_R   0.785612 0.282799 0.070038 0.068206
O57   O     O_R   0.758096 0.193869 0.033830 -0.362934
O58   O     O_R   0.847990 0.267730 0.097135 -0.247286
N4    N     N_R   0.216351 0.279098 0.929012 0.070485
O59   O     O_R   0.243419 0.193489 0.968669 -0.365193
O60   O     O_R   0.157245 0.257130 0.896614 -0.249540
N5    N     N_R   0.032205 0.447662 0.074597 0.127175
O61   O     O_R   0.991507 0.352722 0.071861 -0.206006
O62   O     O_R   0.085216 0.447026 0.118560 -0.324242
N6    N     N_R   0.976871 0.443541 0.930274 0.132379
O63   O     O_R   0.021001 0.353161 0.932327 -0.209155
O64   O     O_R   0.921819 0.436029 0.889246 -0.320597
N7    N     N_R   0.535897 0.949470 0.076341 0.124332
O65   O     O_R   0.496867 0.852531 0.072774 -0.205497
O66   O     O_R   0.587800 0.951575 0.121633 -0.325478
N8    N     N_R   0.480817 0.942202 0.931945 0.135441
O67   O     O_R   0.526363 0.853917 0.933193 -0.208532
O68   O     O_R   0.424820 0.931706 0.892495 -0.314976
N9    N     N_R   0.071622 0.868895 0.353649 0.079782
O69   O     O_R   0.111255 0.777481 0.335678 -0.366958
O70   O     O_R   0.065571 0.960659 0.309937 -0.310685
N10   N     N_R   0.958401 0.912839 0.633122 0.088020
O71   O     O_R   0.908374 0.839295 0.652751 -0.338187
O72   O     O_R   0.970205 0.009754 0.670978 -0.337413
N11   N     N_R   0.571640 0.368437 0.353626 0.079680
O73   O     O_R   0.611202 0.276863 0.335772 -0.366404
O74   O     O_R   0.565685 0.460081 0.309814 -0.310378
N12   N     N_R   0.458933 0.413606 0.633229 0.089753
O75   O     O_R   0.408772 0.340423 0.652971 -0.366272
O76   O     O_R   0.471038 0.510460 0.671041 -0.324670
O77   O     O_3   0.062624 0.417093 0.377499 -0.659958
H41   H     H_    0.087295 0.494206 0.366248 0.348604
O78   O     O_3   0.918318 0.463266 0.634057 -0.650230
H42   H     H_    0.904054 0.381230 0.650835 0.338069
O79   O     O_3   0.562645 0.917495 0.378279 -0.659267
H43   H     H_    0.587008 0.994807 0.366818 0.348798
O80   O     O_3   0.416150 0.954704 0.633793 -0.653509
H44   H     H_    0.400215 0.039240 0.642316 0.338042

loop_
_geom_bond_atom_site_label_1
_geom_bond_atom_site_label_2
_geom_bond_distance
_ccdc_geom_bond_type
C45   C54   1.420538 A    
C18   O42   1.259642 A    
C21   C85   1.455312 S    
Cr11  O51   1.977013 S    
N3    O57   1.301866 A    
O4    C12   1.263822 A    
O47   Cr11  1.929106 S    
O39   C19   1.274378 A    
C87   H40   1.080254 S    
O20   Cr12  2.053169 S    
C28   C40   1.343038 D    
C58   C62   1.425344 A    
C86   H37   1.080318 S    
O15   C7    1.267792 A    
O80   H44   0.990770 S    
C92   N8    1.441057 S    
C85   H38   1.080294 S    
C60   C64   1.425468 A    
N10   O71   1.301613 A    
N12   O76   1.301682 A    
O26   C22   1.264689 A    
C30   H10   1.087071 S    
O78   H42   0.991667 S    
O1    C9    1.279590 A    
C85   C90   1.353139 D    
C5    C25   1.450659 S    
C27   H15   1.086910 S    
O7    C3    1.270138 A    
C45   N9    1.439649 S    
N3    O58   1.300483 A    
C75   N3    1.448035 S    
C71   C83   1.345115 D    
C82   H30   1.087340 S    
C88   C91   1.349924 D    
O24   C12   1.291862 A    
C79   H27   1.086402 S    
C11   C44   1.495532 S    
C13   C76   1.463946 S    
O25   C21   1.263553 A    
N7    O66   1.301511 A    
O35   Cr7   2.048202 S    
O38   C18   1.273598 A    
C31   C35   1.334279 D    
C72   H36   1.085483 S    
C65   C66   1.389557 A    
C64   C68   1.392929 A    
C46   C50   1.400387 A    
C37   H5    1.085921 S    
C59   C60   1.405535 A    
O21   C9    1.279758 A    
O8    Cr4   1.934327 S    
O23   Cr11  1.946044 S    
N6    O63   1.300674 A    
C39   H7    1.085903 S    
O30   C14   1.272424 A    
C81   H29   1.087366 S    
C79   C83   1.445507 S    
N1    O54   1.300687 A    
C1    O9    1.267097 A    
O44   Cr12  2.058553 S    
C61   C65   1.402809 A    
C65   H21   1.081751 S    
C69   C81   1.345606 D    
C62   C66   1.392895 A    
C15   C74   1.463923 S    
C3    O11   1.267034 A    
O41   Cr9   2.065017 S    
C36   C40   1.457368 S    
C26   C38   1.343063 D    
C68   H24   1.076985 S    
C88   H39   1.080292 S    
C31   H11   1.085897 S    
N2    O55   1.301880 A    
C43   C60   1.417522 A    
C48   N12   1.442475 S    
C67   C68   1.389472 A    
C44   C59   1.411137 A    
C67   H23   1.081876 S    
C41   C54   1.410457 A    
N1    O53   1.301749 A    
O3    Cr3   2.059737 S    
O77   H41   0.991082 S    
Cr4   O52   1.976281 S    
O47   C23   1.276002 A    
O2    Cr2   2.062877 S    
C57   C61   1.417473 A    
C33   H1    1.085079 S    
O2    C10   1.263760 A    
Cr10  O50   1.977912 S    
O42   Cr10  2.058553 S    
C62   O77   1.381373 S    
Cr5   O49   1.979843 S    
O18   Cr10  2.053169 S    
C74   C78   1.344789 D    
O79   H43   0.991012 S    
O31   Cr3   1.939149 S    
C72   C84   1.344126 D    
C83   H31   1.087309 S    
N12   O75   1.301624 A    
C19   C71   1.444704 S    
C4    O12   1.263309 A    
C8    C28   1.451621 S    
Cr7   O51   1.979843 S    
O6    Cr2   1.934327 S    
C47   C51   1.395545 A    
C77   C81   1.446307 S    
O24   Cr12  1.940757 S    
O9    Cr5   2.061959 S    
C36   H4    1.086515 S    
C78   H26   1.086430 S    
O22   C10   1.292114 A    
O27   Cr3   2.054098 S    
C91   C92   1.483781 S    
O48   Cr12  1.933419 S    
C20   C72   1.444141 S    
C55   C56   1.425932 A    
C12   C43   1.493827 S    
C47   C56   1.420520 A    
C46   C53   1.424007 A    
C35   C39   1.455829 S    
C18   C70   1.444144 S    
C48   C55   1.423823 A    
C27   C39   1.345387 D    
C69   H33   1.085430 S    
O16   Cr8   1.938763 S    
N4    O59   1.301889 A    
C70   C82   1.343755 D    
O7    Cr3   1.937395 S    
C16   C73   1.463061 S    
O27   C23   1.262832 A    
C34   C38   1.457361 S    
C66   H22   1.077294 S    
O13   C5    1.267921 A    
O40   C20   1.273737 A    
O43   Cr11  2.065017 S    
O48   C24   1.273702 A    
O12   Cr8   2.053504 S    
Cr12  O52   1.977912 S    
O22   Cr10  1.940757 S    
O37   Cr5   1.943543 S    
N7    O65   1.300870 A    
C42   C53   1.426824 A    
O5    C1    1.270098 A    
N9    O69   1.301655 A    
O46   Cr10  1.933419 S    
O39   Cr7   1.943543 S    
C29   C33   1.334770 D    
N8    O68   1.301374 A    
N11   O73   1.301655 A    
O3    C11   1.279985 A    
C75   C79   1.343407 D    
O8    C4    1.272464 A    
C33   C37   1.455763 S    
O13   Cr5   1.930324 S    
N5    O61   1.300833 A    
C6    C26   1.451613 S    
C29   H9    1.085941 S    
O29   C13   1.274099 A    
Cr2   O50   1.976281 S    
O15   Cr7   1.930324 S    
O32   Cr4   1.943154 S    
C70   H34   1.085541 S    
C1    C32   1.450632 S    
Cr1   O49   1.977423 S    
C87   C92   1.354537 D    
O30   Cr2   1.943154 S    
C76   C80   1.344462 D    
Cr3   O51   1.977423 S    
O14   Cr6   1.938763 S    
N11   O74   1.301432 A    
N6    O64   1.301326 A    
O21   Cr9   1.946044 S    
C25   H13   1.086929 S    
C10   C41   1.494084 S    
C7    O19   1.269237 A    
C14   C75   1.463378 S    
C61   O78   1.382956 S    
C24   C88   1.453596 S    
C53   C54   1.426242 A    
C7    C27   1.450761 S    
C4    C29   1.447257 S    
C38   H6    1.086510 S    
C91   N7    1.443128 S    
C51   C52   1.389389 A    
C50   H18   1.080240 S    
C26   H14   1.087081 S    
C59   C63   1.425512 A    
O34   Cr6   2.057113 S    
C3    C30   1.450591 S    
C40   H8    1.086509 S    
C49   C50   1.389324 A    
O26   Cr2   2.051743 S    
C80   C84   1.444235 S    
C80   H28   1.086368 S    
C5    O17   1.269125 A    
C48   C52   1.400299 A    
O37   C17   1.274490 A    
C63   O80   1.381382 S    
O28   C24   1.265466 A    
C44   C55   1.426646 A    
C25   C37   1.345135 D    
O14   C6    1.270276 A    
C19   O43   1.258821 A    
C41   C58   1.417761 A    
C8    O20   1.269235 A    
C23   C87   1.455929 S    
O17   Cr9   2.047760 S    
N10   O72   1.301690 A    
O6    C2    1.272739 A    
C15   O35   1.269539 A    
C64   O79   1.381404 S    
C17   O41   1.258637 A    
C90   N6    1.441638 S    
O11   Cr7   2.061959 S    
C52   H20   1.080146 S    
C35   H3    1.084918 S    
C14   O34   1.270205 A    
O25   Cr1   2.054098 S    
C34   H2    1.086480 S    
C73   N1    1.447341 S    
C43   C56   1.410204 A    
C20   O44   1.259502 A    
O1    Cr1   2.059737 S    
C86   C89   1.351319 D    
O19   Cr11  2.047760 S    
O40   Cr8   1.935281 S    
C28   H16   1.087081 S    
Cr8   O52   1.979821 S    
C89   N5    1.442701 S    
C57   C58   1.404552 A    
C17   C69   1.444604 S    
C84   H32   1.087349 S    
N8    O67   1.300680 A    
C9    C42   1.495927 S    
O31   C15   1.274446 A    
C2    C31   1.447140 S    
C47   N11   1.439607 S    
C46   N10   1.442482 S    
O45   C21   1.275252 A    
C63   C67   1.392972 A    
C32   C36   1.341238 D    
O23   C11   1.278661 A    
N5    O62   1.301393 A    
C78   C82   1.443614 S    
O33   Cr5   2.048202 S    
C13   O33   1.269901 A    
N4    O60   1.300466 A    
O10   Cr6   2.053504 S    
O5    Cr1   1.937395 S    
C89   C90   1.483690 S    
C73   C77   1.342932 D    
O4    Cr4   2.062877 S    
C51   H19   1.081191 S    
C22   C86   1.454284 S    
O29   Cr1   1.939149 S    
C45   C49   1.395613 A    
C16   O36   1.270585 A    
C49   H17   1.081200 S    
O46   C22   1.274702 A    
N9    O70   1.301435 A    
Cr6   O50   1.979821 S    
C6    O18   1.269246 A    
O28   Cr4   2.051743 S    
C30   C34   1.341152 D    
O45   Cr9   1.929106 S    
C32   H12   1.087077 S    
C76   N4    1.449002 S    
C42   C57   1.411100 A    
C71   H35   1.085386 S    
O36   Cr8   2.057113 S    
C77   H25   1.086588 S    
O16   C8    1.270291 A    
N2    O56   1.300588 A    
Cr9   O49   1.977013 S    
O32   C16   1.271924 A    
C74   N2    1.449216 S    
C2    O10   1.262995 A    
O38   Cr6   1.935281 S    
