data_mof_unit_28314.cif
_audit_creation_date              2012-12-10T17:18:55-0500
_audit_creation_method            fapswitch 2.2
_symmetry_space_group_name_H-M    P1
_symmetry_Int_Tables_number       1
_space_group_crystal_system       triclinic
_cell_length_a                    9.574963
_cell_length_b                    10.828504
_cell_length_c                    13.438179
_cell_angle_alpha                 92.553561
_cell_angle_beta                  72.442553
_cell_angle_gamma                 90.688653
_cell_volume                      1327.07664717

loop_
_atom_site_label
_atom_site_type_symbol
_atom_type_description
_atom_site_fract_x
_atom_site_fract_y
_atom_site_fract_z
_atom_type_partial_charge
C1    C     C_R   0.504657 0.736510 0.489791 0.808958
C2    C     C_R   0.432776 0.476681 0.979240 0.081662
C3    C     C_R   0.470881 0.450357 0.869951 0.084047
C4    C     C_R   0.541263 0.462488 0.030649 0.074209
C5    C     C_R   0.679665 0.410442 0.974956 0.168935
C6    C     C_R   0.707311 0.369908 0.871079 -0.250921
C7    C     C_R   0.603855 0.387763 0.819734 -0.205397
C8    C     C_R   0.517317 0.500454 0.135501 -0.249901
C9    C     C_R   0.759433 0.431767 0.129795 -0.212140
C10   C     C_R   0.373665 0.485970 0.814546 -0.110125
C11   C     C_R   0.292635 0.877700 0.406903 0.189140
C12   C     C_R   0.421501 0.493341 0.699824 0.793698
C13   C     C_R   0.155797 0.932507 0.422420 -0.138333
C14   C     C_R   0.119691 0.042447 0.481536 -0.201538
C15   C     C_R   0.225747 0.105805 0.515225 -0.173801
C16   C     C_R   0.369163 0.057323 0.493048 0.069785
C17   C     C_R   0.392253 0.932916 0.456448 0.064103
C18   C     C_R   0.510724 0.869622 0.474623 -0.130323
C19   C     C_R   0.624829 0.936774 0.496123 -0.205035
C20   C     C_R   0.618039 0.064187 0.506298 -0.214636
C21   C     C_R   0.490745 0.126411 0.506018 -0.103126
C22   C     C_R   0.912632 0.338016 0.359501 -0.168566
C23   C     C_R   0.496233 0.261936 0.504779 0.774521
C24   C     C_R   0.012744 0.258796 0.290643 -0.231909
C25   C     C_R   0.156350 0.257794 0.291143 -0.187484
C26   C     C_R   0.200633 0.335978 0.360517 -0.145157
C27   C     C_R   0.102721 0.419608 0.431322 0.186226
C28   C     C_R   0.953123 0.420116 0.431062 0.207535
C29   C     C_R   0.899431 0.576353 0.565342 -0.064432
C30   C     C_R   0.047522 0.576400 0.565250 -0.080027
C31   C     C_R   0.578505 0.497643 0.299983 0.769144
C32   C     C_R   0.788128 0.397221 0.024472 -0.203535
C33   C     C_R   0.622409 0.480790 0.186125 -0.043095
C34   C     C_R   0.231411 0.525564 0.870310 -0.192949
C35   C     C_R   0.187873 0.536579 0.978545 -0.155147
C36   C     C_R   0.287421 0.515058 0.032732 -0.174576
Cu1   Cu    Cu3+1 0.359340 0.500010 0.500010 0.911222
Cu2   Cu    Cu3+1 0.640660 0.499990 0.499990 0.923720
H1    H     H_    0.842247 0.416177 0.167714 0.154354
H2    H     H_    0.077583 0.890092 0.387681 0.142966
H3    H     H_    0.011471 0.081921 0.496922 0.150280
H4    H     H_    0.191144 0.189988 0.561750 0.173729
H5    H     H_    0.711455 0.113682 0.517650 0.161514
H6    H     H_    0.822269 0.638928 0.618846 0.143681
H7    H     H_    0.805275 0.330663 0.352886 0.203575
H8    H     H_    0.978163 0.197297 0.236801 0.155926
H9    H     H_    0.234101 0.195106 0.238014 0.161294
H10   H     H_    0.312511 0.325360 0.355508 0.206985
H11   H     H_    0.809786 0.324565 0.829022 0.145128
H12   H     H_    0.081269 0.639017 0.618639 0.143092
H13   H     H_    0.894018 0.357668 0.982249 0.140236
H14   H     H_    0.416905 0.545372 0.180237 0.155810
H15   H     H_    0.154011 0.550557 0.830116 0.154981
H16   H     H_    0.245870 0.526370 0.116572 0.135549
H17   H     H_    0.077291 0.565848 0.020709 0.149598
H18   H     H_    0.628721 0.348570 0.741046 0.175610
H19   H     H_    0.719077 0.890878 0.506531 0.161479
N1    N     N_R   0.852480 0.498790 0.499000 -0.199934
N2    N     N_R   0.148360 0.498710 0.498970 -0.207740
O1    O     O_R   0.381190 0.680360 0.500010 -0.582119
O2    O     O_R   0.618760 0.680340 0.500000 -0.576512
O3    O     O_R   0.323240 0.499990 0.650990 -0.577165
O4    O     O_R   0.560820 0.499960 0.650980 -0.579693
O5    O     O_R   0.381240 0.319660 0.500000 -0.608260
O6    O     O_R   0.618810 0.319640 0.499990 -0.603931
O7    O     O_R   0.439180 0.500040 0.349020 -0.612242
O8    O     O_R   0.676760 0.500010 0.349010 -0.596213
N3    N     N_3   0.334402 0.778892 0.328673 -0.600911
H20   H     H_    0.271778 0.700835 0.356037 0.252955
H21   H     H_    0.445655 0.757760 0.310341 0.211225

loop_
_geom_bond_atom_site_label_1
_geom_bond_atom_site_label_2
_ccdc_geom_bond_type
C31   O7    A    
C2    C4    A    
C31   C33   S    
C32   H13   S    
Cu1   O5    S    
C29   C30   A    
C28   N1    A    
C12   O3    A    
C25   H9    S    
C19   C20   A    
Cu2   O6    S    
C26   H10   S    
C4    C8    A    
Cu2   O2    S    
C24   H8    S    
C30   N2    A    
C23   O6    A    
C2    C3    A    
C30   H12   S    
C10   C34   A    
C3    C10   A    
C27   N2    A    
C13   C14   A    
C19   H19   S    
C31   O8    A    
C11   C13   A    
C1    C18   S    
Cu1   N2    S    
C10   C12   S    
C7    H18   S    
C9    C33   A    
C14   H3    S    
C29   N1    A    
C23   O5    A    
Cu1   Cu2   S    
C17   C18   A    
C6    C7    A    
C3    C7    A    
C8    C33   A    
C21   C23   S    
C29   H6    S    
C26   C27   A    
C5    C6    A    
C34   C35   A    
C16   C17   A    
C22   C24   A    
C20   H5    S    
Cu1   O1    S    
C36   H16   S    
Cu1   O7    S    
C35   H17   S    
C15   C16   A    
Cu2   O8    S    
C20   C21   A    
C8    H14   S    
C9    H1    S    
C22   H7    S    
C24   C25   A    
C34   H15   S    
N3    H21   S    
Cu2   O4    S    
C1    O1    A    
C2    C36   A    
C27   C28   A    
C12   O4    A    
Cu1   O3    S    
C11   N3    S    
C18   C19   A    
C13   H2    S    
C22   C28   A    
C9    C32   A    
C25   C26   A    
C14   C15   A    
C16   C21   A    
Cu2   N1    S    
N3    H20   S    
C5    C32   A    
C11   C17   A    
C6    H11   S    
C35   C36   A    
C15   H4    S    
C4    C5    A    
C1    O2    A    
