data_mof_unit_14950.cif
_audit_creation_date              2012-12-10T17:52:46-0500
_audit_creation_method            fapswitch 2.2
_symmetry_space_group_name_H-M    P1
_symmetry_Int_Tables_number       1
_space_group_crystal_system       triclinic
_cell_length_a                    18.781368
_cell_length_b                    18.741871
_cell_length_c                    18.740943
_cell_angle_alpha                 109.313338
_cell_angle_beta                  109.250614
_cell_angle_gamma                 109.551377
_cell_volume                      5096.78094531

loop_
_atom_site_label
_atom_site_type_symbol
_atom_type_description
_atom_site_fract_x
_atom_site_fract_y
_atom_site_fract_z
_atom_type_partial_charge
C1    C     C_R   0.120168 0.120153 0.500053 1.041030
C2    C     C_R   0.270266 0.016509 0.682532 -0.083650
C3    C     C_R   0.191117 0.003137 0.683522 -0.115180
C4    C     C_R   0.174483 0.988152 0.747100 -0.090417
C5    C     C_R   0.238746 0.990762 0.813593 -0.085095
C6    C     C_R   0.313973 0.996748 0.809344 -0.098131
C7    C     C_R   0.179011 0.175587 0.419102 0.372048
C8    C     C_R   0.246594 0.235204 0.418118 -0.174424
C9    C     C_R   0.314444 0.310863 0.497769 -0.298093
C10   C     C_R   0.317411 0.324967 0.577375 0.389778
C11   C     C_R   0.255022 0.259639 0.578647 0.374467
C12   C     C_R   0.124501 0.004398 0.619251 1.028238
C13   C     C_R   0.185551 0.186554 0.499299 -0.300894
C14   C     C_R   0.746990 0.919517 0.237256 0.393202
C15   C     C_R   0.685195 0.919204 0.170609 -0.090488
C16   C     C_R   0.685249 0.998334 0.185018 -0.243236
C17   C     C_R   0.746802 0.077235 0.263969 -0.178110
C18   C     C_R   0.807399 0.076101 0.330514 0.448137
C19   C     C_R   0.810311 0.998514 0.314772 -0.292798
C20   C     C_R   0.820077 0.741850 0.497310 0.485778
C21   C     C_R   0.755161 0.676120 0.495003 0.371990
C22   C     C_R   0.683745 0.684546 0.495556 -0.369210
C23   C     C_R   0.879438 0.879996 0.499576 1.010349
C24   C     C_R   0.672004 0.753213 0.489785 0.484704
C25   C     C_R   0.738087 0.820735 0.494567 -0.222294
C26   C     C_R   0.811288 0.813513 0.497368 -0.362502
C27   C     C_R   0.501675 0.879630 0.881617 1.108607
C28   C     C_R   0.379988 0.998834 0.878495 0.974974
C29   C     C_R   0.500196 0.119860 0.120346 0.905519
C30   C     C_R   0.619775 0.998792 0.118916 0.981156
C31   C     C_R   0.500173 0.620126 0.620067 0.961541
C32   C     C_R   0.380178 0.378779 0.498985 1.025078
C33   C     C_R   0.498781 0.378785 0.379885 0.925686
C34   C     C_R   0.879222 0.999788 0.380010 0.920898
C35   C     C_R   0.619646 0.620551 0.499967 1.015589
C36   C     C_R   0.582528 0.824087 0.819596 -0.158383
C37   C     C_R   0.580434 0.758069 0.755056 0.448571
C38   C     C_R   0.499891 0.684993 0.686945 -0.268842
C39   C     C_R   0.420996 0.672866 0.684774 -0.217438
C40   C     C_R   0.424152 0.733792 0.754849 0.451703
C41   C     C_R   0.503657 0.811718 0.818575 -0.259718
C42   C     C_R   0.490363 0.252560 0.173970 -0.088973
C43   C     C_R   0.486340 0.313815 0.236733 0.415984
C44   C     C_R   0.495963 0.310012 0.312929 -0.208191
C45   C     C_R   0.294563 0.039457 0.624591 0.306282
C46   C     C_R   0.503893 0.242094 0.325296 -0.102692
C47   C     C_R   0.505277 0.178578 0.260952 -0.094600
C48   C     C_R   0.499493 0.185263 0.186481 -0.211143
C49   C     C_R   0.380779 0.067312 0.639868 -0.260067
C50   C     C_R   0.433036 0.046918 0.692896 0.422922
C51   C     C_R   0.399882 0.004196 0.732828 0.373733
C52   C     C_R   0.328466 0.005931 0.742399 -0.139249
O1    O     O_R   0.091590 0.143330 0.551700 -0.595058
O2    O     O_R   0.551760 0.960180 0.908450 -0.591362
O3    O     O_R   0.356660 0.948290 0.908410 -0.628673
O4    O     O_R   0.460090 0.051750 0.908420 -0.583054
O5    O     O_R   0.448250 0.039900 0.091630 -0.635456
O6    O     O_R   0.551680 0.143360 0.091630 -0.612320
O7    O     O_R   0.539910 0.948330 0.091670 -0.628834
O8    O     O_R   0.643340 0.051790 0.091670 -0.611198
O9    O     O_R   0.448280 0.591700 0.540000 -0.638466
O10   O     O_R   0.551730 0.591680 0.643420 -0.605628
O11   O     O_R   0.356670 0.408480 0.448390 -0.630928
O12   O     O_R   0.091620 0.039900 0.448280 -0.584209
O13   O     O_R   0.460120 0.408460 0.551810 -0.597253
O14   O     O_R   0.448270 0.408490 0.356760 -0.570564
O15   O     O_R   0.551720 0.408480 0.460170 -0.652979
O16   O     O_R   0.539880 0.591710 0.448370 -0.620678
O17   O     O_R   0.643330 0.591700 0.551790 -0.572433
O18   O     O_R   0.091610 0.051730 0.643330 -0.639243
O19   O     O_R   0.091640 0.948310 0.539920 -0.592165
O20   O     O_R   0.908380 0.960100 0.551720 -0.621330
O21   O     O_R   0.908410 0.856670 0.448300 -0.623021
O22   O     O_R   0.908360 0.051690 0.460080 -0.625672
O23   O     O_R   0.908390 0.948270 0.356670 -0.575201
O24   O     O_R   0.448330 0.856720 0.908450 -0.591171
Zn1   Zn    Zn3+2 0.999980 0.069060 0.569050 1.009113
Zn2   Zn    Zn3+2 0.000020 0.930940 0.430950 0.998250
Zn3   Zn    Zn3+2 0.430940 0.930960 0.000040 1.025230
Zn4   Zn    Zn3+2 0.569060 0.069120 0.000040 1.019774
Zn5   Zn    Zn3+2 0.430920 0.500100 0.431040 0.984339
Zn6   Zn    Zn3+2 0.569080 0.500080 0.569140 1.037280
C53   C     C_2   0.090710 0.972084 0.746119 0.530319
H1    H     H_    0.090777 0.007498 0.805154 0.070579
O25   O     O_2   0.021214 0.917165 0.679994 -0.523981
O26   O     O_3   0.258283 0.268141 0.656241 -0.590448
C54   C     C_3   0.328739 0.260965 0.704233 -0.236254
H2    H     H_    0.338067 0.211099 0.662442 0.145058
H3    H     H_    0.315421 0.240826 0.749939 0.174958
H4    H     H_    0.389681 0.324923 0.743575 0.200693
O27   O     O_3   0.748921 0.843046 0.224036 -0.582405
C55   C     C_3   0.702975 0.803897 0.259271 -0.334309
H5    H     H_    0.635036 0.791685 0.230855 0.133627
H6    H     H_    0.737166 0.844115 0.331175 0.131896
H7    H     H_    0.699669 0.739996 0.243669 0.193784
C56   C     C_2   0.624000 0.835413 0.086441 0.464413
H8    H     H_    0.611608 0.773802 0.084532 0.086781
O28   O     O_2   0.589311 0.833609 0.017765 -0.579445
C57   C     C_2   0.747205 0.160605 0.277645 0.483350
H9    H     H_    0.687679 0.160218 0.243923 0.013117
O29   O     O_2   0.814477 0.230772 0.325824 -0.511930
O30   O     O_3   0.866947 0.151861 0.409868 -0.559517
C58   C     C_3   0.827040 0.162706 0.461757 -0.131449
H10   H     H_    0.877346 0.217630 0.528288 0.183817
H11   H     H_    0.798177 0.103769 0.467460 0.137725
H12   H     H_    0.776265 0.179403 0.436235 0.158289
O31   O     O_3   0.898007 0.743087 0.512104 -0.524495
C59   C     C_3   0.889113 0.686117 0.434043 -0.171438
H13   H     H_    0.838558 0.676580 0.374098 0.099627
H14   H     H_    0.875708 0.622386 0.430504 0.185128
H15   H     H_    0.952037 0.714187 0.435322 0.179593
O32   O     O_3   0.764838 0.606682 0.497376 -0.547073
C60   C     C_3   0.710830 0.532872 0.412984 -0.259261
H16   H     H_    0.720518 0.547065 0.362715 0.118721
H17   H     H_    0.641233 0.506463 0.394262 0.163561
H18   H     H_    0.726933 0.481025 0.412724 0.201448
O33   O     O_3   0.597856 0.756288 0.484862 -0.530235
C61   C     C_3   0.539609 0.726642 0.397402 -0.183293
H19   H     H_    0.476222 0.717972 0.391699 0.187319
H20   H     H_    0.527713 0.662562 0.351630 0.128645
H21   H     H_    0.563145 0.774968 0.377041 0.143173
C62   C     C_2   0.730282 0.898022 0.496676 0.499777
H22   H     H_    0.760621 0.934034 0.470280 0.017196
O34   O     O_2   0.690776 0.923278 0.529305 -0.495646
C63   C     C_2   0.668139 0.903736 0.886778 0.474903
H23   H     H_    0.715953 0.929281 0.868448 0.097064
O35   O     O_2   0.688148 0.938320 0.963422 -0.538986
O36   O     O_3   0.235545 0.033741 0.552367 -0.625265
C64   C     C_3   0.212756 0.959034 0.477480 -0.195355
H24   H     H_    0.159787 0.948640 0.419518 0.204086
H25   H     H_    0.188448 0.898991 0.482660 0.153395
H26   H     H_    0.267822 0.967025 0.464703 0.138740
O37   O     O_3   0.656389 0.767485 0.753570 -0.605260
C65   C     C_3   0.701023 0.746361 0.813061 -0.217203
H27   H     H_    0.748373 0.733034 0.796424 0.200718
H28   H     H_    0.656997 0.686977 0.810283 0.162440
H29   H     H_    0.738433 0.801879 0.880578 0.158108
C66   C     C_2   0.335664 0.596517 0.610588 0.457764
H30   H     H_    0.331384 0.535902 0.572259 0.057512
O38   O     O_2   0.269049 0.600850 0.590511 -0.518250
O39   O     O_3   0.348083 0.721428 0.757168 -0.561271
C67   C     C_3   0.329191 0.665699 0.791977 -0.163722
H31   H     H_    0.274935 0.664678 0.803973 0.186904
H32   H     H_    0.385608 0.688884 0.855303 0.148146
H33   H     H_    0.307654 0.597781 0.745461 0.136581
C68   C     C_2   0.483681 0.260589 0.095834 0.409459
H34   H     H_    0.513439 0.324717 0.102465 0.096152
O40   O     O_2   0.441019 0.196668 0.023199 -0.616373
O41   O     O_3   0.479089 0.381736 0.226894 -0.641193
C69   C     C_3   0.390697 0.352285 0.172196 -0.257721
H35   H     H_    0.382899 0.410005 0.179702 0.178026
H36   H     H_    0.346247 0.314026 0.189325 0.190231
H37   H     H_    0.370280 0.312915 0.102764 0.152355
C70   C     C_2   0.509878 0.237965 0.405033 0.578939
H38   H     H_    0.468037 0.250969 0.429460 0.081066
O42   O     O_2   0.563912 0.223777 0.445959 -0.531742
C71   C     C_2   0.513155 0.105180 0.270559 0.558575
H39   H     H_    0.554500 0.083953 0.251914 -0.010451
O43   O     O_2   0.470588 0.065385 0.295478 -0.525983
C72   C     C_2   0.412398 0.112933 0.595626 0.485353
H40   H     H_    0.370654 0.127934 0.554590 0.082907
O44   O     O_2   0.485373 0.135622 0.605110 -0.489083
O45   O     O_3   0.509363 0.054976 0.693762 -0.525978
C73   C     C_3   0.580088 0.119219 0.777799 -0.136804
H41   H     H_    0.580005 0.097628 0.826372 0.166588
H42   H     H_    0.580591 0.182456 0.798587 0.129678
H43   H     H_    0.641303 0.130446 0.776295 0.187114
O46   O     O_3   0.433122 0.954423 0.754869 -0.609370
C74   C     C_3   0.385941 0.869944 0.681623 -0.199603
H44   H     H_    0.365869 0.868935 0.618044 0.150857
H45   H     H_    0.327682 0.828871 0.681966 0.202137
H46   H     H_    0.428207 0.840478 0.685312 0.188630
C75   C     C_2   0.228874 0.989694 0.889215 0.401459
H47   H     H_    0.283162 0.035115 0.954927 0.105784
O47   O     O_2   0.161749 0.936215 0.878628 -0.544258
O48   O     O_3   0.109240 0.102920 0.341727 -0.599202
C76   C     C_3   0.040905 0.120964 0.314843 -0.260003
H48   H     H_    0.060526 0.177069 0.303020 0.150803
H49   H     H_    0.017858 0.133531 0.362879 0.166227
H50   H     H_    0.985177 0.063083 0.252627 0.204682
C77   C     C_2   0.244755 0.215049 0.333413 0.479459
H51   H     H_    0.183535 0.171618 0.272742 0.108255
O49   O     O_2   0.311443 0.243086 0.329825 -0.625338
O50   O     O_3   0.384029 0.401482 0.653531 -0.595371
C78   C     C_3   0.349885 0.451779 0.688158 -0.297821
H52   H     H_    0.293459 0.446396 0.637208 0.139550
H53   H     H_    0.401667 0.521297 0.727456 0.163131
H54   H     H_    0.331062 0.433580 0.732460 0.215177

loop_
_geom_bond_atom_site_label_1
_geom_bond_atom_site_label_2
_ccdc_geom_bond_type
C8    C77   S    
C54   H2    S    
C71   H39   S    
C10   O50   S    
C74   H44   S    
C31   O9    A    
O45   C73   S    
C67   H33   S    
O24   Zn3   S    
O36   C64   S    
C65   H29   S    
C51   O46   S    
C27   O2    A    
O41   C69   S    
C7    C8    A    
C75   H47   S    
O50   C78   S    
C64   H25   S    
C22   C35   S    
C24   O33   S    
O20   Zn1   S    
O11   Zn5   S    
O16   Zn5   S    
C73   H41   S    
C60   H16   S    
C47   C71   S    
C5    C6    A    
C78   H53   S    
C45   O36   S    
C16   C30   S    
C15   C16   A    
C59   H13   S    
C18   C19   A    
C18   O30   S    
C23   C26   S    
O5    Zn3   S    
C61   H19   S    
C1    O1    A    
O17   Zn6   S    
C9    C32   S    
O8    Zn4   S    
C78   H52   S    
C53   H1    S    
C8    C9    A    
C76   H49   S    
O22   Zn1   S    
C30   O8    A    
O31   C59   S    
C49   C72   S    
O48   C76   S    
C3    C12   S    
C25   C62   S    
C70   O42   D    
C43   O41   S    
O6    Zn4   S    
C34   O23   A    
C20   O31   S    
C75   O47   D    
C63   H23   S    
O10   Zn6   S    
C39   C66   S    
C71   O43   D    
C21   C22   A    
C7    O48   S    
O18   Zn1   S    
C74   H45   S    
C31   O10   A    
C36   C41   A    
C5    C75   S    
C23   O21   A    
C14   C19   A    
O32   C60   S    
C28   O3    A    
C44   C46   A    
C33   O14   A    
C17   C18   A    
C68   O40   D    
C77   O49   D    
C2    C45   A    
C28   O4    A    
C46   C70   S    
C6    C28   S    
C36   C63   S    
C29   C48   S    
C51   C52   A    
C47   C48   A    
O46   C74   S    
C24   C25   A    
C10   C11   A    
O7    Zn3   S    
C15   C56   S    
O26   C54   S    
C16   C17   A    
C78   H54   S    
C65   H28   S    
C25   C26   A    
C77   H51   S    
C69   H37   S    
C55   H7    S    
C56   O28   D    
C61   H21   S    
C72   O44   D    
O1    Zn1   S    
C43   C44   A    
C37   C38   A    
C69   H36   S    
O3    Zn3   S    
C27   C41   S    
C57   H9    S    
C14   C15   A    
C45   C49   A    
O21   Zn2   S    
C76   H50   S    
C56   H8    S    
C55   H6    S    
C50   C51   A    
C58   H11   S    
C42   C48   A    
C20   C21   A    
C17   C57   S    
C70   H38   S    
C2    C52   A    
C34   O22   A    
C40   C41   A    
C53   O25   D    
C12   O19   A    
C29   O5    A    
C49   C50   A    
C54   H3    S    
O2    Zn4   S    
O37   C65   S    
C74   H46   S    
C22   C24   A    
C1    C13   S    
C42   C43   A    
C62   O34   D    
C3    C4    A    
C42   C68   S    
C1    O12   A    
C39   C40   A    
C21   O32   S    
C33   O15   A    
C68   H34   S    
C9    C10   A    
C12   O18   A    
C46   C47   A    
C36   C37   A    
C57   O29   D    
C50   O45   S    
C69   H35   S    
C33   C44   S    
O12   Zn2   S    
C23   O20   A    
C73   H43   S    
C32   O11   A    
C4    C5    A    
C19   C34   S    
C59   H15   S    
C60   H18   S    
C65   H27   S    
C66   O38   D    
O33   C61   S    
O4    Zn4   S    
C31   C38   S    
C72   H40   S    
C64   H26   S    
C73   H42   S    
C2    C3    A    
C64   H24   S    
O9    Zn5   S    
O39   C67   S    
O14   Zn5   S    
C11   C13   A    
O13   Zn6   S    
C38   C39   A    
C4    C53   S    
C20   C26   A    
C35   O16   A    
C55   H5    S    
C59   H14   S    
C58   H12   S    
C37   O37   S    
O30   C58   S    
O23   Zn2   S    
C61   H20   S    
C14   O27   S    
C66   H30   S    
C7    C13   A    
C29   O6    A    
C35   O17   A    
O15   Zn6   S    
C76   H48   S    
C54   H4    S    
C58   H10   S    
C63   O35   D    
C30   O7    A    
C67   H31   S    
C11   O26   S    
C6    C52   A    
C62   H22   S    
C40   O39   S    
O19   Zn2   S    
C67   H32   S    
O27   C55   S    
C27   O24   A    
C32   O13   A    
C60   H17   S    
