data_mof_unit_27259.cif
_audit_creation_date              2012-12-10T19:17:48-0500
_audit_creation_method            fapswitch 2.2
_symmetry_space_group_name_H-M    P1
_symmetry_Int_Tables_number       1
_space_group_crystal_system       triclinic
_cell_length_a                    15.994987
_cell_length_b                    14.759177
_cell_length_c                    10.644402
_cell_angle_alpha                 89.59024
_cell_angle_beta                  91.614884
_cell_angle_gamma                 91.756836
_cell_volume                      2510.6257818

loop_
_atom_site_label
_atom_site_type_symbol
_atom_type_description
_atom_site_fract_x
_atom_site_fract_y
_atom_site_fract_z
_atom_type_partial_charge
C1    C     C_R   0.340758 0.498713 0.498115 0.818917
C2    C     C_R   0.659132 0.501266 0.501906 0.800424
C3    C     C_1   0.823095 0.504921 0.504860 0.110774
C4    C     C_1   0.176409 0.494438 0.492015 0.098065
C5    C     C_R   0.962272 0.558478 0.581763 0.281040
C6    C     C_R   0.036845 0.443140 0.410305 0.293168
C7    C     C_R   0.049890 0.552810 0.580965 0.290270
C8    C     C_R   0.949119 0.444352 0.417198 0.295422
C9    C     C_R   0.912488 0.502700 0.501838 -0.169142
C10   C     C_R   0.086784 0.496116 0.494243 -0.168869
C11   C     C_R   0.497058 0.500351 0.258814 0.877171
C12   C     C_R   0.504518 0.499670 0.740727 0.848246
C13   C     C_1   0.251534 0.495761 0.494229 -0.195555
C14   C     C_1   0.748132 0.504111 0.504298 -0.194109
C15   C     C_R   0.573841 0.954619 0.537303 0.342786
C16   C     C_R   0.423509 0.044820 0.493672 0.325496
C17   C     C_R   0.424701 0.948979 0.487690 0.336846
C18   C     C_R   0.574289 0.050865 0.532184 0.333992
C19   C     C_R   0.499894 0.902783 0.508538 -0.309336
C20   C     C_R   0.499038 0.097050 0.508419 -0.297340
C21   C     C_3   0.489581 0.584370 0.035307 0.466703
C22   C     C_3   0.515536 0.415881 0.963662 0.394627
C23   C     C_3   0.565139 0.554068 0.963105 0.427343
C24   C     C_3   0.439029 0.445811 0.034121 0.399530
C25   C     C_3   0.428584 0.529489 0.947728 -0.483343
C26   C     C_3   0.575917 0.471437 0.051763 -0.469123
C27   C     C_3   0.505451 0.498632 0.876214 -0.232345
C28   C     C_3   0.498264 0.501406 0.122734 -0.197273
C29   C     C_1   0.500257 0.802597 0.503841 0.264491
C30   C     C_1   0.499399 0.197355 0.503435 0.245888
Cu1   Cu    Cu3+1 0.500000 0.589220 0.500000 0.998520
Cu2   Cu    Cu3+1 0.500000 0.410780 0.500000 0.968315
H1    H     H_    0.369547 0.553299 0.903347 0.161158
H2    H     H_    0.634879 0.447770 0.096547 0.161516
N1    N     N_1   0.500000 0.276710 0.500000 -0.170744
N2    N     N_1   0.500000 0.723290 0.500000 -0.160295
O1    O     O_R   0.380310 0.575320 0.500020 -0.566925
O2    O     O_R   0.619690 0.424680 0.499980 -0.580302
O3    O     O_R   0.619690 0.575320 0.499980 -0.568900
O4    O     O_R   0.380310 0.424680 0.500020 -0.583947
O5    O     O_R   0.499980 0.575330 0.316850 -0.544543
O6    O     O_R   0.500020 0.424670 0.683150 -0.555446
O7    O     O_R   0.500020 0.575330 0.683150 -0.583613
O8    O     O_R   0.499980 0.424670 0.316850 -0.583715
O9    O     O_3   0.650126 0.098660 0.542787 -0.577631
C31   C     C_3   0.659486 0.138658 0.663047 0.068007
H3    H     H_    0.681640 0.087403 0.732276 0.139371
H4    H     H_    0.600155 0.166253 0.696722 0.140631
C32   C     C_3   0.724861 0.216416 0.657136 -0.325309
H5    H     H_    0.787331 0.188288 0.641543 0.203747
H6    H     H_    0.709055 0.262115 0.577007 0.243502
C33   C     C_3   0.729162 0.271752 0.777888 -0.928388
H7    H     H_    0.668826 0.305043 0.791592 0.294650
H8    H     H_    0.779209 0.325292 0.771339 0.250394
H9    H     H_    0.743475 0.227560 0.860132 0.251409
O10   O     O_3   0.349870 0.900542 0.471087 -0.564688
C34   C     C_3   0.339116 0.879351 0.342324 0.065849
H10   H     H_    0.388619 0.833333 0.312562 0.145475
H11   H     H_    0.341351 0.941921 0.283026 0.114983
C35   C     C_3   0.254214 0.831021 0.320700 -0.292292
H12   H     H_    0.250996 0.768640 0.379792 0.236841
H13   H     H_    0.203724 0.876261 0.348612 0.221046
C36   C     C_3   0.240469 0.805019 0.182995 -0.950289
H14   H     H_    0.241389 0.866553 0.122272 0.258207
H15   H     H_    0.178835 0.769099 0.170171 0.261703
H16   H     H_    0.290235 0.759432 0.153771 0.266782
O11   O     O_3   0.347019 0.084571 0.505626 -0.568540
C37   C     C_3   0.323489 0.131362 0.394787 0.055092
H17   H     H_    0.280332 0.086869 0.337399 0.150200
H18   H     H_    0.377106 0.152432 0.335129 0.113477
C38   C     C_3   0.277175 0.215332 0.433090 -0.318797
H19   H     H_    0.218933 0.194345 0.481483 0.224969
H20   H     H_    0.317234 0.255950 0.499926 0.243723
C39   C     C_3   0.254931 0.273814 0.319812 -0.871689
H21   H     H_    0.312414 0.294786 0.269897 0.284552
H22   H     H_    0.224544 0.335650 0.351247 0.293060
H23   H     H_    0.210949 0.235621 0.255777 0.241689
O12   O     O_3   0.646473 0.912202 0.574343 -0.570275
C40   C     C_3   0.640521 0.887779 0.702860 0.063381
H24   H     H_    0.601304 0.824684 0.712400 0.154171
H25   H     H_    0.612726 0.942186 0.759421 0.115072
C41   C     C_3   0.727656 0.870290 0.757767 -0.320288
H26   H     H_    0.754175 0.812131 0.708372 0.226084
H27   H     H_    0.768763 0.931328 0.743302 0.227069
C42   C     C_3   0.724803 0.849281 0.898260 -0.926554
H28   H     H_    0.684052 0.788489 0.915299 0.297070
H29   H     H_    0.700303 0.907713 0.949515 0.253363
H30   H     H_    0.788791 0.836075 0.935595 0.250696
O13   O     O_3   0.480186 0.673808 0.078045 -0.586067
C43   C     C_3   0.452413 0.728781 0.976836 0.086737
H31   H     H_    0.384319 0.715305 0.958629 0.139075
H32   H     H_    0.486788 0.715961 0.889227 0.172120
C44   C     C_3   0.466672 0.828637 0.010431 -0.348400
H33   H     H_    0.435041 0.843191 0.099190 0.216973
H34   H     H_    0.534829 0.843452 0.024695 0.227901
C45   C     C_3   0.432332 0.890261 0.906575 -0.926400
H35   H     H_    0.463286 0.877445 0.816592 0.250704
H36   H     H_    0.444150 0.962288 0.932571 0.256161
H37   H     H_    0.363760 0.878183 0.893392 0.269815
O14   O     O_3   0.528915 0.326919 0.921882 -0.616850
C46   C     C_3   0.544901 0.270333 0.027125 0.073142
H38   H     H_    0.497304 0.277945 0.100484 0.182996
H39   H     H_    0.608135 0.286949 0.068538 0.145168
C47   C     C_3   0.542509 0.171273 0.986258 -0.359116
H40   H     H_    0.481484 0.154577 0.937996 0.225189
H41   H     H_    0.593314 0.160628 0.919649 0.213209
C48   C     C_3   0.554354 0.107745 0.098873 -0.934681
H42   H     H_    0.614263 0.124538 0.150020 0.264789
H43   H     H_    0.556022 0.036633 0.066029 0.255084
H44   H     H_    0.501812 0.113471 0.164189 0.249365
O15   O     O_3   0.627388 0.615905 0.920389 -0.620124
C49   C     C_3   0.699546 0.569925 0.886244 0.059219
H45   H     H_    0.722963 0.601529 0.798395 0.170355
H46   H     H_    0.687479 0.496674 0.864514 0.133461
C50   C     C_3   0.767559 0.581720 0.989529 -0.320882
H47   H     H_    0.789615 0.653846 0.992386 0.216496
H48   H     H_    0.741569 0.564087 0.082515 0.229152
C51   C     C_3   0.841691 0.521968 0.967063 -0.919762
H49   H     H_    0.821601 0.449252 0.969320 0.260554
H50   H     H_    0.890291 0.534018 0.042142 0.257120
H51   H     H_    0.869214 0.538201 0.874788 0.288187
O16   O     O_3   0.372697 0.387125 0.071321 -0.623668
C52   C     C_3   0.330677 0.352087 0.962298 0.068863
H52   H     H_    0.374568 0.320057 0.898073 0.193859
H53   H     H_    0.298072 0.406884 0.910263 0.136233
C53   C     C_3   0.265801 0.279834 0.999306 -0.383039
H54   H     H_    0.296951 0.225459 0.054243 0.225588
H55   H     H_    0.218964 0.311497 0.058378 0.234499
C54   C     C_3   0.221467 0.237908 0.883833 -0.911586
H56   H     H_    0.191338 0.291052 0.825378 0.252676
H57   H     H_    0.172447 0.188222 0.914220 0.260492
H58   H     H_    0.266861 0.202189 0.826212 0.268945
O17   O     O_3   0.099900 0.609420 0.656476 -0.590159
C55   C     C_3   0.110658 0.568650 0.775885 0.083322
H59   H     H_    0.134208 0.498614 0.767690 0.126967
H60   H     H_    0.050356 0.566301 0.825761 0.171557
C56   C     C_3   0.175016 0.625329 0.852672 -0.330476
H61   H     H_    0.236069 0.625698 0.805226 0.217732
H62   H     H_    0.154244 0.696364 0.857857 0.228194
C57   C     C_3   0.186546 0.587952 0.985793 -0.968129
H63   H     H_    0.127178 0.591248 0.037009 0.254561
H64   H     H_    0.235717 0.628656 0.037071 0.269016
H65   H     H_    0.206587 0.516803 0.983551 0.259156
O18   O     O_3   0.898633 0.395064 0.333094 -0.594990
C58   C     C_3   0.888031 0.305392 0.378230 0.072741
H66   H     H_    0.868805 0.303911 0.478231 0.125023
H67   H     H_    0.947438 0.268754 0.370200 0.178595
C59   C     C_3   0.819298 0.257153 0.298612 -0.368861
H68   H     H_    0.758020 0.287012 0.318008 0.226545
H69   H     H_    0.831772 0.267325 0.197199 0.221634
C60   C     C_3   0.814486 0.155595 0.326418 -0.868826
H70   H     H_    0.873697 0.123805 0.301003 0.244784
H71   H     H_    0.762194 0.123563 0.270200 0.263423
H72   H     H_    0.803290 0.142948 0.427405 0.280631
O19   O     O_3   0.925133 0.614166 0.666500 -0.618512
C61   C     C_3   0.931938 0.705455 0.625681 0.110783
H73   H     H_    0.873245 0.722630 0.573562 0.140655
H74   H     H_    0.985413 0.720066 0.562532 0.158268
C62   C     C_3   0.942997 0.766191 0.740904 -0.329475
H75   H     H_    0.887804 0.756830 0.801154 0.215969
H76   H     H_    0.999341 0.746103 0.796592 0.234566
C63   C     C_3   0.953226 0.865827 0.703410 -0.932523
H77   H     H_    0.899699 0.886709 0.642341 0.257574
H78   H     H_    0.012145 0.877260 0.652006 0.266840
H79   H     H_    0.955905 0.908463 0.789034 0.258231
O20   O     O_3   0.073636 0.385250 0.328019 -0.614984
C64   C     C_3   0.069340 0.420363 0.203867 0.099985
H80   H     H_    0.133497 0.443148 0.178157 0.155243
H81   H     H_    0.027855 0.479522 0.190884 0.134676
C65   C     C_3   0.038509 0.344986 0.114367 -0.306750
H82   H     H_    0.077964 0.284838 0.127601 0.212704
H83   H     H_    0.973266 0.324326 0.136243 0.241980
C66   C     C_3   0.040705 0.375662 0.977348 -0.974161
H84   H     H_    0.000764 0.434963 0.961589 0.263190
H85   H     H_    0.017089 0.319667 0.915580 0.264170
H86   H     H_    0.105600 0.394280 0.951424 0.258204

loop_
_geom_bond_atom_site_label_1
_geom_bond_atom_site_label_2
_ccdc_geom_bond_type
C8    C9    A    
C7    C10   A    
C6    O20   S    
C46   H38   S    
C15   C18   A    
O15   C49   S    
C59   C60   S    
C55   C56   S    
C36   H15   S    
C58   H66   S    
C43   H31   S    
C52   H52   S    
C64   H81   S    
C20   C30   S    
C42   H28   S    
C15   C19   A    
C56   H62   S    
C29   N2    T    
C44   H33   S    
Cu1   O7    S    
C30   N1    T    
C35   C36   S    
C61   H73   S    
C57   H64   S    
C7    O17   S    
C12   O7    A    
C37   C38   S    
C52   H53   S    
C15   O12   S    
C65   H82   S    
C50   H47   S    
C45   H37   S    
O10   C34   S    
C35   H13   S    
C23   C26   S    
C4    C13   T    
C51   H49   S    
C47   H40   S    
C12   O6    A    
C1    O4    A    
C17   C19   A    
C2    O3    A    
C26   H2    S    
Cu1   Cu2   S    
C37   H17   S    
C50   H48   S    
C39   H23   S    
C45   H36   S    
C48   H42   S    
C62   H76   S    
Cu2   O2    S    
C33   H9    S    
C1    O1    A    
C54   H58   S    
C32   C33   S    
C42   H29   S    
C36   H16   S    
C46   H39   S    
C60   H71   S    
C48   H43   S    
C49   H46   S    
C49   H45   S    
C58   H67   S    
C33   H8    S    
C64   C65   S    
C63   H78   S    
C23   C27   S    
C66   H85   S    
C57   H63   S    
C56   C57   S    
C31   H4    S    
C22   O14   S    
C39   H21   S    
C12   C27   S    
O11   C37   S    
Cu2   N1    S    
C24   C28   S    
C59   H68   S    
C64   H80   S    
C40   H25   S    
O12   C40   S    
C16   C17   A    
C52   C53   S    
C6    C8    A    
C53   C54   S    
C32   H6    S    
C66   H84   S    
C63   H77   S    
C36   H14   S    
Cu1   O1    S    
C35   H12   S    
C51   H51   S    
C5    C9    A    
C3    C9    S    
C38   C39   S    
C63   H79   S    
C2    O2    A    
C43   H32   S    
C62   H75   S    
C31   C32   S    
C60   H70   S    
C50   C51   S    
C45   H35   S    
C24   O16   S    
Cu2   O8    S    
C62   C63   S    
C11   O8    A    
C8    O18   S    
C16   O11   S    
C16   C20   A    
C24   C25   S    
C57   H65   S    
C17   O10   S    
C47   C48   S    
C55   H59   S    
C3    C14   T    
C39   H22   S    
C60   H72   S    
C37   H18   S    
C21   C28   S    
C32   H5    S    
C44   C45   S    
C41   H27   S    
C22   C27   S    
C21   C23   S    
O17   C55   S    
C48   H44   S    
C22   C24   S    
C1    C13   S    
C4    C10   S    
C19   C29   S    
C18   O9    S    
C58   C59   S    
C33   H7    S    
C43   C44   S    
C5    C7    A    
C54   H56   S    
C42   H30   S    
C21   C25   S    
C31   H3    S    
C53   H55   S    
Cu1   O5    S    
C61   C62   S    
C21   O13   S    
C59   H69   S    
O18   C58   S    
C34   C35   S    
C6    C10   A    
C40   C41   S    
C55   H60   S    
C47   H41   S    
C25   C27   S    
C41   C42   S    
C23   O15   S    
C56   H61   S    
C26   C28   S    
C61   H74   S    
O13   C43   S    
C38   H19   S    
C5    O19   S    
C34   H10   S    
O20   C64   S    
C65   H83   S    
C11   C28   S    
C53   H54   S    
O14   C46   S    
C66   H86   S    
Cu1   O3    S    
C11   O5    A    
C18   C20   A    
Cu2   O4    S    
C2    C14   S    
C51   H50   S    
C34   H11   S    
C40   H24   S    
O9    C31   S    
C44   H34   S    
C41   H26   S    
C22   C26   S    
C38   H20   S    
O19   C61   S    
Cu2   O6    S    
Cu1   N2    S    
C46   C47   S    
O16   C52   S    
C49   C50   S    
C25   H1    S    
C54   H57   S    
C65   C66   S    
