data_mof_unit_58444.cif
_audit_creation_date              2013-03-05T16:07:57-0500
_audit_creation_method            fapswitch 2.2
_symmetry_space_group_name_H-M    P1
_symmetry_Int_Tables_number       1
_space_group_crystal_system       triclinic
_cell_length_a                    6.976268
_cell_length_b                    14.530594
_cell_length_c                    16.030119
_cell_angle_alpha                 90.17666
_cell_angle_beta                  90.206027
_cell_angle_gamma                 90.131541
_cell_volume                      1624.93967618

loop_
_atom_site_label
_atom_site_type_symbol
_atom_site_description
_atom_site_fract_x
_atom_site_fract_y
_atom_site_fract_z
_atom_type_partial_charge
O1    O     O_R   0.494380 0.415640 0.412830 -0.601672
O2    O     O_R   0.823960 0.405540 0.586560 -0.599457
O3    O     O_R   0.994270 0.584360 0.587170 -0.536015
C1    C     C_R   0.655266 0.383300 0.614990 1.003178
O4    O     O_R   0.824090 0.404620 0.413450 -0.608420
O5    O     O_R   0.994400 0.583430 0.412820 -0.596599
C2    C     C_R   0.655049 0.382420 0.384612 0.904894
O6    O     O_R   0.494250 0.416570 0.587180 -0.590410
O7    O     O_3   0.660800 0.558670 0.500000 -0.220493
V1    V     V_3+5 0.935650 0.489120 0.500000 1.181713
O8    O     O_R   0.324110 0.594460 0.413440 -0.597808
C3    C     C_R   0.155004 0.616229 0.384490 0.927592
O9    O     O_R   0.323980 0.595380 0.586550 -0.545000
C4    C     C_R   0.154795 0.615332 0.617494 0.883554
V2    V     V_3+5 0.435660 0.510880 0.500000 1.203147
O10   O     O_3   0.160640 0.441330 0.500000 -0.299691
C5    C     C_3   0.951708 0.672082 0.742361 0.303711
H1    H     H_    0.967233 0.606559 0.777870 0.038507
C6    C     C_3   0.930489 0.750761 0.807374 -0.474094
H2    H     H_    0.895324 0.720569 0.869248 0.128848
H3    H     H_    0.809472 0.796943 0.790205 0.191877
H4    H     H_    0.034517 0.799192 0.611180 0.190243
H5    H     H_    0.032811 0.906693 0.717023 0.142853
C7    C     C_3   0.152640 0.784845 0.655701 -0.333874
C8    C     C_3   0.306700 0.673147 0.752388 -0.375664
C9    C     C_3   0.139501 0.684709 0.689400 -0.060420
H6    H     H_    0.438987 0.692316 0.720553 0.267799
H7    H     H_    0.318747 0.600605 0.773808 0.153870
C10   C     C_3   0.118921 0.807693 0.813433 0.100048
C11   C     C_3   0.149464 0.855995 0.728231 -0.363957
C12   C     C_3   0.286013 0.738981 0.828025 -0.408190
H8    H     H_    0.258790 0.698252 0.885509 0.146239
H9    H     H_    0.423784 0.776499 0.837539 0.182286
H10   H     H_    0.287814 0.793562 0.619866 0.167866
H11   H     H_    0.287133 0.894915 0.729345 0.156246
C13   C     C_R   0.273716 0.815244 0.239448 0.164234
C14   C     C_R   0.118560 0.815841 0.183664 -0.228452
C15   C     C_R   0.966203 0.754760 0.199976 -0.163157
H12   H     H_    0.843080 0.752780 0.158950 0.139455
C16   C     C_R   0.977152 0.691032 0.265942 -0.156041
H13   H     H_    0.861513 0.642200 0.273879 0.132138
C17   C     C_R   0.141175 0.686139 0.317427 -0.224947
C18   C     C_R   0.285022 0.751901 0.304465 0.172313
C19   C     C_3   0.494678 0.738576 0.292137 -0.474629
C20   C     C_3   0.482485 0.807928 0.221597 -0.463028
H14   H     H_    0.528700 0.667750 0.270501 0.184649
H15   H     H_    0.580243 0.763549 0.346318 0.202520
H16   H     H_    0.510156 0.777535 0.159073 0.191474
H17   H     H_    0.560354 0.873155 0.235131 0.189426
C21   C     C_R   0.493889 0.316299 0.741152 0.193859
C22   C     C_R   0.647749 0.317408 0.685216 -0.243135
C23   C     C_R   0.798977 0.255466 0.700125 -0.169165
H18   H     H_    0.921245 0.253994 0.658975 0.137189
C24   C     C_R   0.787617 0.190186 0.764689 -0.149846
H19   H     H_    0.902230 0.140775 0.771616 0.131085
C25   C     C_R   0.624329 0.184678 0.816035 -0.228488
C26   C     C_R   0.482201 0.251448 0.804795 0.160144
C27   C     C_3   0.271691 0.239680 0.792701 -0.474800
C28   C     C_3   0.284327 0.310835 0.723669 -0.470162
H20   H     H_    0.188543 0.263704 0.847602 0.196821
H21   H     H_    0.234534 0.169656 0.769618 0.187028
H22   H     H_    0.209386 0.376195 0.738844 0.188795
H23   H     H_    0.253591 0.282312 0.660591 0.188970
C29   C     C_R   0.492103 0.315085 0.257620 0.162061
C30   C     C_R   0.646842 0.316454 0.313624 -0.216458
C31   C     C_R   0.799048 0.255371 0.297506 -0.161723
H24   H     H_    0.921917 0.253909 0.338664 0.138919
C32   C     C_R   0.788370 0.191029 0.231555 -0.158122
H25   H     H_    0.903821 0.142263 0.223846 0.134178
C33   C     C_R   0.624788 0.185446 0.179803 -0.227718
C34   C     C_R   0.481053 0.251131 0.192641 0.167128
C35   C     C_3   0.271277 0.237621 0.204751 -0.473238
C36   C     C_3   0.283220 0.307599 0.275211 -0.463116
H26   H     H_    0.236909 0.166927 0.226443 0.187377
H27   H     H_    0.186129 0.262003 0.150436 0.195148
H28   H     H_    0.255087 0.277702 0.337743 0.190867
H29   H     H_    0.205644 0.372594 0.261489 0.186906
O11   O     O_R   0.771490 0.080820 0.910070 -0.593319
O12   O     O_R   0.441590 0.092730 0.083780 -0.593490
O13   O     O_R   0.271350 0.913900 0.084390 -0.591336
C37   C     C_R   0.610861 0.114803 0.112762 0.933825
O14   O     O_R   0.441780 0.091820 0.910670 -0.593846
O15   O     O_R   0.271540 0.912980 0.910040 -0.596996
C38   C     C_R   0.610712 0.113820 0.882026 0.937269
O16   O     O_R   0.771300 0.081740 0.084420 -0.593832
O17   O     O_3   0.604960 0.938700 0.997240 -0.280516
V3    V     V_3+5 0.330090 0.008230 0.997220 1.137009
O18   O     O_R   0.941820 0.901930 0.910640 -0.598978
C39   C     C_R   0.110225 0.878649 0.882925 0.881315
O19   O     O_R   0.941630 0.902840 0.083750 -0.598938
C40   C     C_R   0.110485 0.880968 0.112601 0.930300
V4    V     V_3+5 0.830090 0.986410 0.997190 1.134430
O20   O     O_3   0.105080 0.055990 0.997200 -0.272410
N1    N     N_R   0.778237 0.664041 0.691511 0.223071
O21   O     O_R   0.725082 0.730257 0.642079 -0.457960
O22   O     O_R   0.686622 0.585872 0.689547 -0.444759

loop_
_geom_bond_atom_site_label_1
_geom_bond_atom_site_label_2
_geom_bond_distance
_ccdc_geom_bond_type
C8    C12   1.549433 S    
O15   V3    2.004196 S    
C31   C32   1.410786 A    
C6    H2    1.113715 S    
C1    O6    1.301706 A    
C10   C39   1.517001 S    
O19   C40   1.304312 A    
C23   H18   1.080359 S    
C8    H7    1.112869 S    
C10   C11   1.552662 S    
C11   H11   1.113489 S    
C5    C9    1.574360 S    
C13   C14   1.401591 A    
C6    H3    1.113940 S    
C7    C9    1.556250 S    
O13   V3    2.003144 S    
O5    C3    1.300482 A    
C15   H12   1.080192 S    
C27   H20   1.111553 S    
O14   V3    2.005274 S    
C25   C26   1.400384 A    
C29   C34   1.395567 A    
C33   C37   1.486624 S    
C3    C17   1.484370 S    
O8    V2    2.003209 S    
O18   V4    2.010223 S    
C19   H14   1.111430 S    
C32   H25   1.081149 S    
C29   C36   1.489047 S    
C12   H9    1.113663 S    
C25   C38   1.481604 S    
C33   C34   1.401231 A    
O1    V2    2.007572 S    
O7    V1    2.169504 S    
C19   H15   1.111598 S    
C27   H21   1.111391 S    
C16   C17   1.410487 A    
C31   H24   1.080088 S    
O9    C4    1.314555 A    
C35   H27   1.111574 S    
O12   V3    2.003827 S    
O16   V4    2.009239 S    
C23   C24   1.408377 A    
C21   C22   1.401185 A    
O15   C39   1.302623 A    
C24   C25   1.410046 A    
C14   C40   1.484189 S    
C1    C22   1.481071 S    
C22   C23   1.408586 A    
H5    C11   1.113436 S    
C35   H26   1.111420 S    
O4    C2    1.304548 A    
O17   V3    2.169490 S    
O11   V4    2.002416 S    
C27   C28   1.519427 S    
C7    H10   1.113142 S    
O2    C1    1.303893 A    
C18   C19   1.489606 S    
C14   C15   1.408868 A    
C2    C30   1.486453 S    
O19   V4    2.003092 S    
C12   H8    1.113345 S    
C20   H17   1.111748 S    
C5    H1    1.116052 S    
C13   C20   1.489259 S    
C4    C9    1.533121 S    
N1    O22   1.302268 A    
O3    C4    1.298212 A    
C16   H13   1.081271 S    
O6    V2    2.002075 S    
O14   C38   1.305756 A    
O9    V2    2.010260 S    
C36   H28   1.111646 S    
H4    C7    1.108760 S    
C17   C18   1.400589 A    
C21   C28   1.489484 S    
C6    C10   1.554164 S    
C19   C20   1.519241 S    
O12   C37   1.306361 A    
C20   H16   1.111708 S    
C24   H19   1.081484 S    
C28   H22   1.111875 S    
O1    C2    1.303359 A    
C21   C26   1.393421 A    
C35   C36   1.519362 S    
O5    V1    2.003074 S    
O8    C3    1.306085 A    
C8    H6    1.092151 S    
C28   H23   1.111580 S    
C29   C30   1.401607 A    
O13   C40   1.302086 A    
C8    C9    1.549764 S    
O4    V1    2.003877 S    
C10   C12   1.554093 S    
O3    V1    2.004082 S    
V1    O10   1.717798 S    
C15   C16   1.409715 A    
C26   C27   1.490016 S    
V3    O20   1.717749 S    
V4    O20   2.166462 S    
C5    C6    1.552293 S    
O7    V2    1.715840 S    
N1    O21   1.302068 A    
C7    C11   1.553709 S    
O11   C38   1.300096 A    
C34   C35   1.489584 S    
O18   C39   1.302580 A    
C32   C33   1.410492 A    
C30   C31   1.409578 A    
C36   H29   1.111730 S    
C13   C18   1.394727 A    
O17   V4    1.715313 S    
C5    N1    1.460924 S    
C37   O16   1.301824 A    
V2    O10   2.166447 S    
O2    V1    2.005297 S    
