data_mof_unit_18889.cif
_audit_creation_date              2012-12-11T15:54:05-0500
_audit_creation_method            fapswitch 2.2
_symmetry_space_group_name_H-M    P1
_symmetry_Int_Tables_number       1
_space_group_crystal_system       triclinic
_cell_length_a                    10.630734
_cell_length_b                    10.734135
_cell_length_c                    17.059427
_cell_angle_alpha                 80.697772
_cell_angle_beta                  99.189516
_cell_angle_gamma                 118.74362
_cell_volume                      1676.79068285

loop_
_atom_site_label
_atom_site_type_symbol
_atom_type_description
_atom_site_fract_x
_atom_site_fract_y
_atom_site_fract_z
_atom_type_partial_charge
C1    C     C_R   0.384125 0.283390 0.632090 0.559659
C2    C     C_1   0.333400 0.185032 0.781358 -0.061814
C3    C     C_1   0.335771 0.663513 0.277700 -0.050976
C4    C     C_R   0.368761 0.655215 0.585693 0.556993
C5    C     C_1   0.323226 0.673022 0.206987 -0.053826
C6    C     C_R   0.815102 0.661184 0.153864 0.016615
C7    C     C_R   0.786903 0.533971 0.202444 0.020422
C8    C     C_R   0.779272 0.527024 0.282097 0.035842
C9    C     C_R   0.802509 0.764036 0.266816 -0.153228
C10   C     C_R   0.809984 0.772054 0.185078 -0.151141
C11   C     C_3   0.861437 0.442006 0.217151 -0.261767
C12   C     C_R   0.386455 0.832970 0.671927 0.251050
C13   C     C_3   0.851266 0.435008 0.305155 -0.271899
C14   C     C_R   0.799200 0.644760 0.316767 0.018829
C15   C     C_R   0.307163 0.134873 0.167972 0.018094
C16   C     C_R   0.777002 0.618953 0.626820 0.547077
C17   C     C_R   0.188926 0.120335 0.201286 0.035232
C18   C     C_R   0.194603 0.129536 0.280577 0.018941
C19   C     C_R   0.431222 0.143313 0.300636 -0.150372
C20   C     C_R   0.424508 0.134055 0.219211 -0.155028
C21   C     C_3   0.100309 0.195957 0.176509 -0.270774
C22   C     C_3   0.106163 0.207925 0.264157 -0.264026
C23   C     C_R   0.368125 0.853130 0.748522 -0.153221
C24   C     C_R   0.320967 0.154156 0.330149 0.019023
C25   C     C_R   0.892265 0.702136 0.855782 0.543454
C26   C     C_R   0.281816 0.750591 0.882846 0.571630
C27   C     C_R   0.286614 0.118070 0.858265 0.541189
C28   C     C_R   0.350415 0.224319 0.400806 0.572131
C29   C     C_R   0.884762 0.690171 0.082647 0.552722
C30   C     C_R   0.312994 0.700835 0.123882 0.557797
C31   C     C_R   0.283980 0.104722 0.086344 0.548614
C32   C     C_R   0.365256 0.653860 0.360712 0.553550
C33   C     C_R   0.768595 0.620490 0.398438 0.550457
C34   C     C_3   0.144353 0.457329 0.797026 -0.239493
C35   C     C_R   0.280437 0.736073 0.798955 -0.034125
C36   C     C_R   0.186356 0.608743 0.765210 0.010599
C37   C     C_R   0.202844 0.587423 0.690653 -0.030850
C38   C     C_3   0.612958 0.025413 0.658463 0.016051
C39   C     C_3   0.716448 0.110006 0.594835 -0.329994
C40   C     C_3   0.163308 0.434133 0.715225 -0.253500
C41   C     C_R   0.313362 0.693109 0.646737 0.028614
C42   C     C_1   0.823379 0.656921 0.705941 -0.038297
C43   C     C_1   0.851289 0.684774 0.773666 -0.043607
C44   C     C_1   0.364267 0.231516 0.714173 -0.059385
Cr1   Cr    Cr6+3 0.608440 0.389080 0.519680 1.007744
Cr2   Cr    Cr6+3 0.288640 0.400090 0.490760 1.003832
Cr3   Cr    Cr6+3 0.602940 0.710800 0.489510 1.017023
Cr4   Cr    Cr6+3 0.052530 0.947560 0.964210 1.013579
Cr5   Cr    Cr6+3 0.059970 0.626800 0.992920 1.005688
Cr6   Cr    Cr6+3 0.373320 0.938440 0.995370 1.011376
H1    H     H_    0.794456 0.337163 0.192549 0.130764
H2    H     H_    0.224290 0.446718 0.844631 0.153260
H3    H     H_    0.255085 0.412091 0.715765 0.141032
H4    H     H_    0.060885 0.360901 0.682840 0.147071
H5    H     H_    0.803907 0.852084 0.290952 0.134606
H6    H     H_    0.825465 0.869592 0.148332 0.133520
H7    H     H_    0.975295 0.498740 0.202533 0.168477
H8    H     H_    0.653106 0.954570 0.696559 0.126622
H9    H     H_    0.613916 0.102562 0.695193 0.136753
H10   H     H_    0.681446 0.183749 0.556326 0.177766
H11   H     H_    0.826512 0.173461 0.623593 0.077508
H12   H     H_    0.777832 0.326590 0.331320 0.135791
H13   H     H_    0.719342 0.036209 0.557231 0.157352
H14   H     H_    0.999295 0.144865 0.288184 0.131061
H15   H     H_    0.427282 0.957481 0.770277 0.125399
H16   H     H_    0.957874 0.489727 0.339868 0.142878
H17   H     H_    0.527519 0.155158 0.338469 0.131492
H18   H     H_    0.512197 0.130970 0.196299 0.133878
H19   H     H_    0.990453 0.125278 0.150041 0.137962
H20   H     H_    0.158852 0.300659 0.141405 0.143805
H21   H     H_    0.166438 0.320839 0.278354 0.166328
H22   H     H_    0.030513 0.398384 0.811627 0.149729
O1    O     O_R   0.754020 0.497590 0.609930 -0.523321
O2    O     O_R   0.406180 0.826930 0.920660 -0.515163
O3    O     O_R   0.358620 0.062870 0.901950 -0.518348
O4    O     O_R   0.481420 0.271390 0.600630 -0.475820
O5    O     O_R   0.163910 0.085460 0.050210 -0.516764
O6    O     O_R   0.935200 0.815170 0.045770 -0.501830
O7    O     O_R   0.916120 0.596690 0.069430 -0.522892
O8    O     O_R   0.192310 0.631200 0.086170 -0.507279
O9    O     O_R   0.406770 0.819480 0.096420 -0.506109
O10   O     O_R   0.359170 0.055960 0.064880 -0.505514
O11   O     O_3   0.161940 0.837600 0.984160 -0.271439
O12   O     O_R   0.295080 0.533620 0.397890 -0.512122
O13   O     O_R   0.263810 0.254550 0.589590 -0.504590
O14   O     O_R   0.300820 0.531200 0.560890 -0.525552
O15   O     O_R   0.491480 0.744020 0.564270 -0.477150
O16   O     O_R   0.726290 0.693800 0.583010 -0.503106
O17   O     O_R   0.747830 0.500190 0.434090 -0.522701
O18   O     O_R   0.475680 0.273800 0.437630 -0.498757
O19   O     O_R   0.257620 0.257160 0.413750 -0.519904
O20   O     O_3   0.473070 0.946785 0.620745 -0.527258
O21   O     O_R   0.485280 0.746620 0.388440 -0.507682
O22   O     O_R   0.720550 0.696220 0.420010 -0.504628
O23   O     O_3   0.500010 0.499990 0.499980 -0.270166
O24   O     O_R   0.163320 0.092900 0.874450 -0.507620
O25   O     O_R   0.934650 0.822080 0.882840 -0.495584
O26   O     O_R   0.915520 0.604140 0.893670 -0.519910
O27   O     O_R   0.191760 0.638110 0.923230 -0.498349

loop_
_geom_bond_atom_site_label_1
_geom_bond_atom_site_label_2
_ccdc_geom_bond_type
C8    C13   S    
C16   C42   S    
C35   C36   A    
C33   O22   A    
C25   C43   S    
C14   C33   S    
C7    C8    A    
C4    O15   A    
C7    C11   S    
Cr4   O25   S    
C12   C23   A    
C31   O10   A    
Cr1   O4    S    
C34   C40   S    
C36   C37   A    
C37   C40   S    
Cr6   O2    S    
C38   C39   S    
C4    O14   A    
C4    C41   S    
C38   O20   S    
Cr1   O1    S    
Cr4   O6    S    
Cr5   O26   S    
C38   H8    S    
C13   H12   S    
C19   C20   A    
C2    C44   T    
C19   H17   S    
C2    C27   S    
C9    H5    S    
C10   H6    S    
C9    C10   A    
C26   O27   A    
Cr2   O13   S    
C30   O8    A    
C32   O21   A    
C21   C22   S    
C27   O24   A    
C27   O3    A    
C20   H18   S    
Cr6   O11   S    
C31   O5    A    
C13   H16   S    
C1    O13   A    
C15   C20   A    
C39   H11   S    
C29   O6    A    
C16   O1    A    
Cr2   O19   S    
C17   C21   S    
Cr5   O7    S    
C21   H19   S    
Cr3   O15   S    
Cr4   O5    S    
C9    C14   A    
C12   C41   A    
C33   O17   A    
Cr5   O27   S    
C26   C35   S    
C1    C44   S    
C29   O7    A    
C17   C18   A    
Cr3   O21   S    
Cr1   O18   S    
Cr2   O12   S    
C25   O25   A    
C23   C35   A    
C18   C24   A    
C42   C43   T    
Cr1   O23   S    
C34   H22   S    
C22   H21   S    
Cr1   O17   S    
Cr6   O10   S    
C5    C30   S    
C15   C17   A    
C8    C14   A    
Cr4   O24   S    
C18   C22   S    
C1    O4    A    
C34   H2    S    
C12   O20   S    
C24   C28   S    
C32   O12   A    
C3    C5    T    
C6    C10   A    
Cr5   O8    S    
C15   C31   S    
C6    C7    A    
C39   H13   S    
C40   H4    S    
Cr4   O11   S    
C21   H20   S    
Cr3   O16   S    
Cr5   O11   S    
C30   O9    A    
C19   C24   A    
Cr6   O3    S    
C11   C13   S    
C23   H15   S    
C39   H10   S    
C26   O2    A    
Cr3   O22   S    
C28   O19   A    
C34   C36   S    
C37   C41   A    
C3    C32   S    
Cr2   O23   S    
C11   H1    S    
C22   H14   S    
C38   H9    S    
C25   O26   A    
C6    C29   S    
C40   H3    S    
C16   O16   A    
Cr3   O23   S    
C28   O18   A    
C11   H7    S    
Cr6   O9    S    
Cr2   O14   S    
