data_mof_unit_19588.cif
_audit_creation_date              2012-12-11T16:17:56-0500
_audit_creation_method            fapswitch 2.2
_symmetry_space_group_name_H-M    P1
_symmetry_Int_Tables_number       1
_space_group_crystal_system       triclinic
_cell_length_a                    14.061235
_cell_length_b                    14.069793
_cell_length_c                    30.103792
_cell_angle_alpha                 97.145571
_cell_angle_beta                  97.089793
_cell_angle_gamma                 61.277057
_cell_volume                      5168.42278791

loop_
_atom_site_label
_atom_site_type_symbol
_atom_type_description
_atom_site_fract_x
_atom_site_fract_y
_atom_site_fract_z
_atom_type_partial_charge
C1    C     C_R   0.385987 0.710387 0.442181 0.544435
C2    C     C_R   0.389210 0.237996 0.221903 -0.100884
C3    C     C_R   0.398172 0.243056 0.268815 0.003168
C4    C     C_R   0.330875 0.340411 0.293170 0.019807
C5    C     C_R   0.314569 0.329280 0.199296 0.022225
C6    C     C_1   0.301996 0.319688 0.151258 -0.051322
C7    C     C_1   0.345797 0.351769 0.341253 -0.047196
C8    C     C_1   0.290791 0.302823 0.111349 -0.006523
C9    C     C_R   0.761972 0.369281 0.399567 0.004025
C10   C     C_R   0.765744 0.276425 0.374402 -0.128130
C11   C     C_R   0.788170 0.256670 0.329263 -0.001705
C12   C     C_R   0.398911 0.381113 0.426491 0.549247
C13   C     C_R   0.808524 0.329681 0.309332 0.022588
C14   C     C_R   0.813578 0.417038 0.335201 -0.123589
C15   C     C_R   0.790621 0.436787 0.380109 -0.127459
C16   C     C_R   0.826057 0.402705 0.157430 -0.110821
C17   C     C_R   0.855783 0.392747 0.113957 -0.121134
C18   C     C_R   0.889140 0.205579 0.105511 -0.123162
C19   C     C_R   0.859571 0.215752 0.149040 -0.107916
C20   C     C_R   0.831921 0.313022 0.175433 0.037532
C21   C     C_1   0.821653 0.317325 0.222272 -0.012449
C22   C     C_1   0.816209 0.321623 0.261928 -0.010473
C23   C     C_R   0.709334 0.405830 0.442227 0.542981
C24   C     C_R   0.892270 0.292551 0.088355 0.020806
C25   C     C_R   0.365828 0.768060 0.401728 0.006688
C26   C     C_R   0.450644 0.778367 0.386287 -0.130489
C27   C     C_R   0.442786 0.807020 0.342728 -0.001527
C28   C     C_R   0.348509 0.827112 0.314647 0.024702
C29   C     C_R   0.260384 0.826124 0.331183 -0.127575
C30   C     C_R   0.268774 0.796909 0.374557 -0.127495
C31   C     C_R   0.253068 0.840957 0.153964 -0.128293
C32   C     C_R   0.234063 0.865254 0.109277 -0.128533
C33   C     C_R   0.386682 0.903290 0.117744 -0.132410
C34   C     C_R   0.389766 0.711406 0.568274 0.547321
C35   C     C_R   0.405536 0.879718 0.162673 -0.004076
C36   C     C_R   0.335817 0.852051 0.181094 0.025446
C37   C     C_1   0.341803 0.843515 0.228269 -0.006942
C38   C     C_1   0.344753 0.837639 0.267779 -0.006714
C39   C     C_R   0.297786 0.901146 0.091356 0.007629
C40   C     C_R   0.365577 0.363350 0.592296 0.019048
C41   C     C_R   0.430906 0.267341 0.614076 -0.121951
C42   C     C_R   0.411805 0.259790 0.657487 -0.109869
C43   C     C_R   0.327033 0.347604 0.679216 0.037605
C44   C     C_R   0.256357 0.439872 0.656592 -0.110112
C45   C     C_R   0.402275 0.383128 0.552362 0.542037
C46   C     C_R   0.275151 0.447646 0.613153 -0.124908
C47   C     C_R   0.209791 0.394957 0.830561 -0.113667
C48   C     C_R   0.201855 0.377249 0.874018 -0.135047
C49   C     C_R   0.397520 0.258989 0.881807 -0.017710
C50   C     C_R   0.404400 0.277495 0.838002 -0.111116
C51   C     C_R   0.310203 0.341881 0.812073 0.023795
C52   C     C_1   0.314987 0.346003 0.765357 -0.016666
C53   C     C_1   0.319132 0.346960 0.725929 -0.018284
C54   C     C_R   0.294278 0.304857 0.899419 0.003171
C55   C     C_1   0.761411 0.377270 0.612619 -0.002468
C56   C     C_R   0.712890 0.407894 0.568533 0.547523
C57   C     C_R   0.794873 0.428833 0.729365 -0.111512
C58   C     C_R   0.810900 0.415453 0.775428 -0.010500
C59   C     C_R   0.866724 0.222370 0.759112 -0.004441
C60   C     C_R   0.850085 0.237185 0.713059 -0.114620
C61   C     C_R   0.815023 0.340024 0.698237 0.007233
C62   C     C_R   0.847275 0.311744 0.790656 0.007620
C63   C     C_1   0.873903 0.295896 0.838050 -0.031996
C64   C     C_1   0.790574 0.357374 0.651220 -0.044595
C65   C     C_1   0.903925 0.283503 0.877122 0.010129
C66   C     C_1   0.375519 0.759333 0.613439 -0.002896
C67   C     C_1   0.365512 0.363222 0.380929 -0.000905
C68   C     C_R   0.252841 0.846859 0.716461 -0.119413
C69   C     C_R   0.240624 0.863765 0.762536 -0.105731
C70   C     C_R   0.431262 0.815420 0.777258 -0.104290
C71   C     C_R   0.444203 0.798046 0.730958 0.007646
C72   C     C_R   0.354150 0.814188 0.700337 0.021453
C73   C     C_R   0.329665 0.847736 0.793032 0.019644
C74   C     C_1   0.313554 0.872946 0.840201 -0.039976
C75   C     C_1   0.365516 0.788577 0.652725 -0.044856
C76   C     C_1   0.293730 0.902432 0.878849 0.004074
C77   C     C_R   0.950387 0.273180 0.048033 0.543831
C78   C     C_R   0.255806 0.431335 0.270324 -0.116924
C79   C     C_R   0.275296 0.270074 0.065433 0.547877
C80   C     C_R   0.260563 0.954519 0.048976 0.542386
C81   C     C_R   0.952197 0.269175 0.922145 0.549813
C82   C     C_R   0.276590 0.266661 0.939692 0.539419
C83   C     C_R   0.261508 0.950902 0.922877 0.547747
C84   C     C_R   0.247335 0.425693 0.223466 -0.107723
Cr1   Cr    Cr6+3 0.581000 0.584320 0.508140 1.035867
Cr2   Cr    Cr6+3 0.339110 0.576430 0.496080 1.026183
Cr3   Cr    Cr6+3 0.579910 0.339270 0.495810 1.033241
Cr4   Cr    Cr6+3 0.082090 0.079210 0.982490 1.044409
Cr5   Cr    Cr6+3 0.082460 0.324610 0.994920 1.034009
Cr6   Cr    Cr6+3 0.323630 0.087860 0.996130 1.050403
H1    H     H_    0.204803 0.507035 0.288780 0.119127
H2    H     H_    0.864056 0.146090 0.162898 0.126360
H3    H     H_    0.165363 0.862462 0.089672 0.136414
H4    H     H_    0.199572 0.818923 0.167979 0.117402
H5    H     H_    0.187313 0.842086 0.309693 0.122539
H6    H     H_    0.525841 0.757262 0.406979 0.133434
H7    H     H_    0.437090 0.930271 0.104367 0.137239
H8    H     H_    0.188390 0.496141 0.206138 0.117669
H9    H     H_    0.121615 0.414545 0.886394 0.151213
H10   H     H_    0.190253 0.507938 0.673311 0.120135
H11   H     H_    0.223218 0.522479 0.597193 0.134569
H12   H     H_    0.500837 0.200934 0.598806 0.137411
H13   H     H_    0.482483 0.238347 0.823474 0.123735
H14   H     H_    0.766060 0.508707 0.717693 0.149516
H15   H     H_    0.440043 0.162892 0.202954 0.133869
H16   H     H_    0.863853 0.168873 0.688784 0.118605
H17   H     H_    0.183309 0.858266 0.693356 0.122101
H18   H     H_    0.161507 0.889854 0.774405 0.150571
H19   H     H_    0.499892 0.804351 0.800925 0.135489
H20   H     H_    0.856833 0.461249 0.101561 0.137840
H21   H     H_    0.804361 0.478382 0.177809 0.123191
H22   H     H_    0.829950 0.473172 0.320053 0.128257
H23   H     H_    0.744394 0.223089 0.388948 0.142335
O1    O     O_R   0.688580 0.499770 0.460490 -0.517154
O2    O     O_R   0.348600 0.476260 0.536540 -0.503324
O3    O     O_R   0.494840 0.313840 0.539010 -0.514226
O4    O     O_R   0.672120 0.351750 0.545910 -0.495730
O5    O     O_3   0.500010 0.500010 0.500010 -0.248509
O6    O     O_R   0.167510 0.972920 0.030390 -0.517099
O7    O     O_R   0.990840 0.178580 0.027590 -0.501454
O8    O     O_R   0.972840 0.345510 0.038590 -0.513446
O9    O     O_R   0.181550 0.320660 0.045200 -0.494196
O10   O     O_R   0.346150 0.177650 0.050510 -0.504364
O11   O     O_R   0.314200 0.996600 0.036060 -0.502975
O12   O     O_R   0.480400 0.672610 0.462660 -0.503239
O13   O     O_R   0.168690 0.969990 0.933130 -0.497389
O14   O     O_R   0.991920 0.175870 0.937430 -0.486105
O15   O     O_R   0.974010 0.342590 0.941330 -0.505719
O16   O     O_R   0.182630 0.317940 0.955040 -0.506707
O17   O     O_R   0.347320 0.174720 0.953250 -0.490901
O18   O     O_R   0.315290 0.993890 0.945900 -0.491189
O19   O     O_3   0.162730 0.163890 0.991180 -0.254447
O20   O     O_R   0.315310 0.685650 0.451800 -0.513769
O21   O     O_R   0.346220 0.474990 0.446280 -0.495959
O22   O     O_R   0.492270 0.312460 0.441630 -0.500913
O23   O     O_R   0.669740 0.350480 0.455640 -0.501905
O24   O     O_R   0.691150 0.501150 0.557860 -0.497941
O25   O     O_R   0.482790 0.673890 0.552920 -0.487102
O26   O     O_R   0.317880 0.687030 0.549170 -0.511310
H24   H     H_    0.916628 0.127439 0.086579 0.134824
C85   C     C_1   0.783636 0.165008 0.303472 0.197647
N1    N     N_1   0.779911 0.091654 0.282799 -0.272618
H25   H     H_    0.201990 0.790245 0.385683 0.140435
C86   C     C_1   0.492395 0.890775 0.189805 0.190738
N2    N     N_1   0.561929 0.899755 0.211503 -0.255490
C87   C     C_1   0.534801 0.808344 0.326678 0.206401
N3    N     N_1   0.608631 0.809195 0.313848 -0.246868
H26   H     H_    0.136704 0.445625 0.810613 0.129179
C88   C     C_1   0.496937 0.190750 0.907116 0.224988
N4    N     N_1   0.576721 0.136101 0.927349 -0.274328
H27   H     H_    0.466466 0.187876 0.674907 0.122122
C89   C     C_1   0.790218 0.509207 0.806445 0.198772
N5    N     N_1   0.773605 0.584326 0.831266 -0.286331
C90   C     C_1   0.904113 0.114874 0.773274 0.191325
N6    N     N_1   0.933919 0.028819 0.784658 -0.303063
C91   C     C_1   0.550123 0.763391 0.715624 0.197018
N7    N     N_1   0.634966 0.735729 0.703310 -0.299296
C92   C     C_1   0.477652 0.148320 0.291231 0.219315
N8    N     N_1   0.541352 0.072498 0.309217 -0.232375
H28   H     H_    0.788591 0.508721 0.398677 0.139882

loop_
_geom_bond_atom_site_label_1
_geom_bond_atom_site_label_2
_ccdc_geom_bond_type
C58   C62   A    
C55   C56   S    
C63   C65   T    
C15   H28   S    
C11   C13   A    
C41   C42   A    
Cr1   O12   S    
C35   C36   A    
C77   O7    A    
C17   H20   S    
C34   C66   S    
C14   H22   S    
C26   C27   A    
C29   C30   A    
Cr5   O19   S    
C74   C76   T    
C23   O23   A    
C56   O4    A    
C18   C24   A    
Cr1   O1    S    
C1    O12   A    
Cr3   O4    S    
Cr4   O14   S    
C4    C7    S    
C5    C6    S    
Cr5   O9    S    
C71   C91   S    
C49   C54   A    
C34   O26   A    
Cr5   O16   S    
C41   H12   S    
C18   C19   A    
C73   C74   S    
C32   C39   A    
C48   H9    S    
Cr4   O13   S    
C19   H2    S    
C68   C69   A    
C69   H18   S    
C47   C48   A    
C44   C46   A    
C16   C17   A    
C12   O22   A    
Cr2   O21   S    
C3    C92   S    
C69   C73   A    
C70   C71   A    
C68   H17   S    
C13   C14   A    
Cr4   O7    S    
C9    C10   A    
C68   C72   A    
C35   C86   S    
Cr6   O19   S    
C43   C53   S    
C32   H3    S    
C80   O6    A    
C59   C60   A    
C12   O21   A    
C21   C22   T    
C81   O14   A    
C1    C25   S    
C70   C73   A    
C72   C75   S    
C1    O20   A    
C76   C83   S    
C12   C67   S    
C59   C90   S    
C58   C89   S    
C26   H6    S    
C40   C45   S    
C46   H11   S    
C17   C24   A    
C51   C52   S    
Cr3   O22   S    
Cr3   O5    S    
C29   H5    S    
C5    C84   A    
C9    C23   S    
C47   C51   A    
C25   C26   A    
C79   O10   A    
C34   O25   A    
C30   H25   S    
Cr2   O2    S    
Cr4   O6    S    
C91   N7    T    
C48   C54   A    
C61   C64   S    
C40   C46   A    
C43   C44   A    
C4    C78   A    
C37   C38   T    
C70   H19   S    
C8    C79   S    
C45   O2    A    
Cr2   O20   S    
C65   C81   S    
C31   C32   A    
C28   C38   S    
C79   O9    A    
C16   C20   A    
C55   C64   T    
C62   C63   S    
C50   C51   A    
Cr3   O3    S    
Cr2   O5    S    
C33   C39   A    
C20   C21   S    
C82   O16   A    
C18   H24   S    
C42   H27   S    
C11   C85   S    
C90   N6    T    
C10   H23   S    
Cr2   O26   S    
Cr6   O18   S    
C40   C41   A    
C81   O15   A    
C92   N8    T    
C2    C5    A    
C82   O17   A    
C42   C43   A    
Cr4   O19   S    
C83   O13   A    
C3    C4    A    
Cr1   O24   S    
C54   C82   S    
C60   H16   S    
C52   C53   T    
C87   N3    T    
C80   O11   A    
C25   C30   A    
C57   H14   S    
C47   H26   S    
C28   C29   A    
C59   C62   A    
C31   C36   A    
Cr6   O11   S    
Cr3   O23   S    
C86   N2    T    
C6    C8    T    
C57   C61   A    
C78   H1    S    
C31   H4    S    
C2    H15   S    
C49   C88   S    
C84   H8    S    
C39   C80   S    
C19   C20   A    
C83   O18   A    
C9    C15   A    
C71   C72   A    
C85   N1    T    
C23   O1    A    
C56   O24   A    
C44   H10   S    
C45   O3    A    
C57   C58   A    
Cr5   O8    S    
C27   C87   S    
C66   C75   T    
C33   C35   A    
C13   C22   S    
C2    C3    A    
C33   H7    S    
Cr1   O5    S    
C77   O8    A    
C10   C11   A    
C7    C67   T    
Cr6   O17   S    
C78   C84   A    
C24   C77   S    
C50   H13   S    
C89   N5    T    
C36   C37   S    
C49   C50   A    
C27   C28   A    
C14   C15   A    
C60   C61   A    
C88   N4    T    
Cr1   O25   S    
Cr6   O10   S    
C16   H21   S    
Cr5   O15   S    
