data_mof_unit_44063.cif
_audit_creation_date              2012-12-11T14:13:13-0500
_audit_creation_method            fapswitch 2.2
_symmetry_space_group_name_H-M    P1
_symmetry_Int_Tables_number       1
_space_group_crystal_system       triclinic
_cell_length_a                    11.420652
_cell_length_b                    18.868078
_cell_length_c                    10.030743
_cell_angle_alpha                 90.000108
_cell_angle_beta                  109.121484
_cell_angle_gamma                 90.000048
_cell_volume                      2042.22491088

loop_
_atom_site_label
_atom_site_type_symbol
_atom_type_description
_atom_site_fract_x
_atom_site_fract_y
_atom_site_fract_z
_atom_type_partial_charge
C1    C     C_R   0.076739 0.645018 0.142184 0.550867
C2    C     C_R   0.923262 0.354981 0.857817 0.550863
C3    C     C_R   0.923260 0.145018 0.857816 0.550861
C4    C     C_R   0.076743 0.854983 0.142185 0.550865
C5    C     C_R   0.436435 0.472784 0.588889 0.023832
C6    C     C_R   0.563563 0.527216 0.411122 0.023829
C7    C     C_R   0.563564 0.972784 0.411128 0.023830
C8    C     C_R   0.436434 0.027217 0.588893 0.023836
C9    C     C_2   0.387682 0.929699 0.945731 -0.104424
C10   C     C_2   0.612301 0.070309 0.054308 -0.104410
C11   C     C_2   0.612311 0.429695 0.054292 -0.104411
C12   C     C_2   0.387680 0.570301 0.945726 -0.104417
C13   C     C_2   0.496335 0.962052 0.979730 -0.078758
C14   C     C_2   0.503638 0.037962 0.020281 -0.078753
C15   C     C_2   0.503645 0.462041 0.020270 -0.078753
C16   C     C_2   0.496343 0.537952 0.979731 -0.078754
C17   C     C_2   0.017115 0.924370 0.118021 -0.096108
C18   C     C_2   0.982890 0.075631 0.881982 -0.096113
C19   C     C_2   0.982891 0.424368 0.881983 -0.096107
C20   C     C_2   0.017110 0.575631 0.118018 -0.096106
C21   C     C_2   0.021881 0.963508 0.008463 -0.139050
C22   C     C_2   0.978124 0.036493 0.991539 -0.139046
C23   C     C_2   0.978122 0.463508 0.991538 -0.139050
C24   C     C_2   0.021879 0.536492 0.008463 -0.139050
C25   C     C_R   0.436611 0.637515 0.376307 0.534379
C26   C     C_R   0.563390 0.362485 0.623697 0.534375
C27   C     C_R   0.563392 0.137516 0.623702 0.534372
C28   C     C_R   0.436609 0.862485 0.376304 0.534369
C29   C     C_R   0.375402 0.645005 0.965345 0.554673
C30   C     C_R   0.624597 0.354994 0.034655 0.554671
C31   C     C_R   0.624596 0.145007 0.034658 0.554667
C32   C     C_R   0.375401 0.854996 0.965348 0.554670
C33   C     C_R   0.542624 0.437452 0.577472 -0.025514
C34   C     C_R   0.457374 0.562548 0.422539 -0.025508
C35   C     C_R   0.457374 0.937451 0.422544 -0.025503
C36   C     C_R   0.542625 0.062548 0.577477 -0.025511
C37   C     C_R   0.374174 0.450009 0.682909 -0.081381
C38   C     C_R   0.625825 0.549988 0.317102 -0.081384
C39   C     C_R   0.625826 0.950011 0.317109 -0.081386
C40   C     C_R   0.374172 0.049996 0.682908 -0.081380
C41   C     C_R   0.259869 0.477143 0.677622 -0.109489
C42   C     C_R   0.740133 0.522854 0.322397 -0.109495
C43   C     C_R   0.740132 0.977145 0.322401 -0.109500
C44   C     C_R   0.259867 0.022862 0.677624 -0.109484
C45   C     C_R   0.207404 0.530788 0.583829 0.008506
C46   C     C_R   0.792600 0.469215 0.416203 0.008518
C47   C     C_R   0.792600 0.030785 0.416206 0.008513
C48   C     C_R   0.207408 0.969212 0.583843 0.008499
C49   C     C_R   0.269333 0.555248 0.494586 -0.089425
C50   C     C_R   0.730670 0.444761 0.505449 -0.089411
C51   C     C_R   0.730670 0.055239 0.505452 -0.089412
C52   C     C_R   0.269339 0.944748 0.494606 -0.089437
C53   C     C_R   0.387838 0.530947 0.501465 0.001342
C54   C     C_R   0.612161 0.469056 0.498553 0.001335
C55   C     C_R   0.612162 0.030943 0.498558 0.001337
C56   C     C_R   0.387840 0.969052 0.501473 0.001347
Cr1   Cr    Cr6+3 0.187610 0.750000 0.979860 1.065273
Cr2   Cr    Cr6+3 0.812390 0.250000 0.020140 1.065269
Cr3   Cr    Cr6+3 0.245810 0.750000 0.341640 1.044142
Cr4   Cr    Cr6+3 0.754190 0.250000 0.658360 1.044167
Cr5   Cr    Cr6+3 0.485760 0.750000 0.219910 1.049373
Cr6   Cr    Cr6+3 0.514240 0.250000 0.780090 1.049369
H1    H     H_    0.213792 0.456997 0.748476 0.118500
H2    H     H_    0.786209 0.542997 0.251539 0.118489
H3    H     H_    0.786207 0.957002 0.251542 0.118489
H4    H     H_    0.213791 0.043010 0.748477 0.118500
H5    H     H_    0.413147 0.411396 0.763242 0.166626
H6    H     H_    0.586850 0.588598 0.236763 0.166620
H7    H     H_    0.586851 0.911401 0.236771 0.166621
H8    H     H_    0.413143 0.088610 0.763238 0.166630
H9    H     H_    0.221681 0.590982 0.416332 0.171992
H10   H     H_    0.778321 0.409037 0.583724 0.171967
H11   H     H_    0.778319 0.090965 0.583722 0.171970
H12   H     H_    0.221692 0.909003 0.416370 0.172012
H13   H     H_    0.696557 0.040340 0.068097 0.097219
H14   H     H_    0.303430 0.959662 0.931985 0.097214
H15   H     H_    0.303417 0.540334 0.931960 0.097211
H16   H     H_    0.696574 0.459664 0.068082 0.097213
H17   H     H_    0.937418 0.057537 0.067367 0.167627
H18   H     H_    0.062585 0.942464 0.932634 0.167628
H19   H     H_    0.062587 0.557536 0.932636 0.167626
H20   H     H_    0.937414 0.442463 0.067364 0.167624
H21   H     H_    0.018074 0.053342 0.802658 0.108811
H22   H     H_    0.981932 0.946660 0.197345 0.108811
H23   H     H_    0.981924 0.553342 0.197340 0.108809
H24   H     H_    0.018077 0.446658 0.802660 0.108811
O1    O     O_R   0.267710 0.668200 0.902110 -0.505097
O2    O     O_R   0.732290 0.331800 0.097890 -0.505100
O3    O     O_R   0.732290 0.168200 0.097890 -0.505101
O4    O     O_R   0.267710 0.831800 0.902110 -0.505097
O5    O     O_R   0.099480 0.674460 0.038850 -0.485802
O6    O     O_R   0.900520 0.325540 0.961150 -0.485804
O7    O     O_R   0.900520 0.174460 0.961150 -0.485803
O8    O     O_R   0.099480 0.825540 0.038850 -0.485802
O9    O     O_R   0.116720 0.669210 0.267660 -0.538730
O10   O     O_R   0.883280 0.330790 0.732340 -0.538721
O11   O     O_R   0.883280 0.169210 0.732340 -0.538723
O12   O     O_R   0.116720 0.830790 0.267660 -0.538735
O13   O     O_R   0.366710 0.675440 0.427590 -0.488752
O14   O     O_R   0.633290 0.324560 0.572410 -0.488740
O15   O     O_R   0.633290 0.175440 0.572410 -0.488739
O16   O     O_R   0.366710 0.824560 0.427590 -0.488763
O17   O     O_R   0.534870 0.669390 0.371760 -0.490448
O18   O     O_R   0.465130 0.330610 0.628240 -0.490453
O19   O     O_R   0.465130 0.169390 0.628240 -0.490454
O20   O     O_R   0.534870 0.830610 0.371760 -0.490447
O21   O     O_R   0.453080 0.674480 0.075160 -0.522174
O22   O     O_R   0.546920 0.325520 0.924840 -0.522178
O23   O     O_R   0.546920 0.174480 0.924840 -0.522183
O24   O     O_R   0.453080 0.825520 0.075160 -0.522173
O25   O     O_3   0.306390 0.750000 0.180470 -0.311637
O26   O     O_3   0.693610 0.250000 0.819530 -0.311642
C57   C     C_1   0.093144 0.563320 0.583340 0.197945
N1    N     N_1   0.001829 0.589807 0.583608 -0.281863
C58   C     C_1   0.906861 0.436681 0.416700 0.197955
N2    N     N_1   0.998174 0.410191 0.416437 -0.281859
C59   C     C_1   0.906863 0.063319 0.416705 0.197953
N3    N     N_1   0.998179 0.089808 0.416446 -0.281857
C60   C     C_1   0.093150 0.936678 0.583360 0.197941
N4    N     N_1   0.001837 0.910190 0.583633 -0.281860
C61   C     C_1   0.395644 0.077155 0.026917 0.194043
N5    N     N_1   0.310002 0.108255 0.032475 -0.282908
C62   C     C_1   0.604324 0.922864 0.973073 0.194047
N6    N     N_1   0.689964 0.891769 0.967503 -0.282914
C63   C     C_1   0.604347 0.577146 0.973094 0.194025
N7    N     N_1   0.689999 0.608246 0.967533 -0.282904
C64   C     C_1   0.395637 0.422843 0.026886 0.194024
N8    N     N_1   0.309980 0.391739 0.032429 -0.282906

loop_
_geom_bond_atom_site_label_1
_geom_bond_atom_site_label_2
_ccdc_geom_bond_type
C44   C48   A    
C23   H20   S    
C4    O12   A    
C12   C29   S    
Cr3   O13   S    
C44   H4    S    
C7    C55   A    
C19   H24   S    
C6    C34   A    
C8    C56   A    
Cr2   O6    S    
C62   N6    T    
Cr6   O19   S    
C50   C54   A    
C40   H8    S    
C46   C58   S    
Cr2   O26   S    
C5    C53   A    
Cr5   O17   S    
Cr2   O7    S    
C22   H17   S    
C38   C42   A    
C48   C52   A    
C52   H12   S    
C42   C46   A    
C13   C62   S    
Cr6   O22   S    
C5    C37   A    
C27   O19   A    
C15   C16   S    
C3    C18   S    
C8    C36   A    
C9    C13   D    
C50   H10   S    
C9    C32   S    
C26   O18   A    
C47   C59   S    
C11   C15   D    
C10   C31   S    
C25   O13   A    
C32   O4    A    
C20   C24   D    
C11   C30   S    
C28   O20   A    
C31   O3    A    
C5    C33   A    
Cr3   O25   S    
C23   C24   S    
C6    C38   A    
C9    H14   S    
C16   C63   S    
C43   H3    S    
C25   C34   S    
C35   C56   A    
C1    O5    A    
C14   C61   S    
C15   C64   S    
C21   C22   S    
C12   H15   S    
Cr3   O9    S    
C6    C54   A    
Cr5   O24   S    
C48   C60   S    
Cr6   O18   S    
C39   H7    S    
Cr1   O4    S    
C12   C16   D    
C28   C35   S    
Cr4   O11   S    
C10   C14   D    
C25   O17   A    
C39   C43   A    
C27   O15   A    
C17   C21   D    
Cr1   O1    S    
C19   C23   D    
C24   H19   S    
Cr4   O26   S    
C11   H16   S    
C28   O16   A    
C10   H13   S    
C3    O11   A    
C26   C33   S    
C45   C49   A    
C1    O9    A    
C20   H23   S    
C18   H21   S    
C31   O23   A    
C3    O7    A    
C2    O6    A    
Cr5   O20   S    
C61   N5    T    
C32   O24   A    
C4    O8    A    
C4    C17   S    
Cr4   O10   S    
C38   H6    S    
Cr1   O8    S    
C63   N7    T    
C41   H1    S    
C30   O2    A    
Cr4   O15   S    
Cr5   O25   S    
C42   H2    S    
C57   N1    T    
C33   C54   A    
C1    C20   S    
C7    C39   A    
Cr1   O5    S    
C30   O22   A    
C2    C19   S    
C18   C22   D    
Cr3   O16   S    
C7    C35   A    
C51   H11   S    
Cr4   O14   S    
Cr2   O2    S    
C47   C51   A    
C60   N4    T    
C64   N8    T    
C27   C36   S    
C46   C50   A    
C17   H22   S    
C2    O10   A    
C36   C55   A    
C59   N3    T    
Cr1   O25   S    
Cr6   O23   S    
C52   C56   A    
C49   C53   A    
C37   H5    S    
C21   H18   S    
C51   C55   A    
C37   C41   A    
Cr5   O21   S    
Cr2   O3    S    
C29   O1    A    
C45   C57   S    
C40   C44   A    
Cr6   O26   S    
C34   C53   A    
C49   H9    S    
Cr3   O12   S    
C41   C45   A    
C29   O21   A    
C8    C40   A    
C13   C14   S    
C43   C47   A    
C58   N2    T    
C26   O14   A    
