data_mof_unit_59387.cif
_audit_creation_date              2012-12-10T17:33:08-0500
_audit_creation_method            fapswitch 2.2
_symmetry_space_group_name_H-M    P1
_symmetry_Int_Tables_number       1
_space_group_crystal_system       triclinic
_cell_length_a                    12.230396
_cell_length_b                    12.815435
_cell_length_c                    13.65234
_cell_angle_alpha                 93.858439
_cell_angle_beta                  80.259795
_cell_angle_gamma                 94.269309
_cell_volume                      2099.88112202

loop_
_atom_site_label
_atom_site_type_symbol
_atom_type_description
_atom_site_fract_x
_atom_site_fract_y
_atom_site_fract_z
_atom_type_partial_charge
C1    C     C_R   0.522728 0.699992 0.498708 0.931051
C2    C     C_R   0.142801 0.451853 0.461630 0.174039
C3    C     C_R   0.974425 0.541430 0.528846 0.023238
C4    C     C_R   0.028640 0.469390 0.460413 0.022501
C5    C     C_R   0.480995 0.501648 0.686012 0.893705
C6    C     C_R   0.519117 0.498677 0.314121 0.888937
C7    C     C_1   0.533036 0.500112 0.210620 -0.201588
C8    C     C_1   0.467937 0.501771 0.789800 -0.201453
C9    C     C_2   0.550845 0.506399 0.018635 0.090914
C10   C     C_2   0.454169 0.499827 0.982033 0.090122
C11   C     C_1   0.459167 0.501240 0.877580 -0.028630
C12   C     C_R   0.477380 0.300021 0.501280 0.941250
C13   C     C_1   0.543887 0.502360 0.122964 -0.037554
C14   C     C_R   0.462648 0.188399 0.504960 -0.300191
C15   C     C_R   0.538043 0.811678 0.495697 -0.302497
C16   C     C_R   0.638210 0.966400 0.428162 0.590194
C17   C     C_R   0.363450 0.033870 0.573725 0.592742
C18   C     C_R   0.633266 0.859587 0.440221 0.533737
C19   C     C_R   0.368178 0.140592 0.561593 0.528208
C20   C     C_R   0.450562 0.870021 0.542555 -0.264073
C21   C     C_R   0.550574 0.130226 0.458378 -0.260476
C22   C     C_3   0.340682 0.494055 0.049566 -0.416736
C23   C     C_R   0.453545 0.975897 0.529862 -0.123785
C24   C     C_3   0.241775 0.465848 0.994449 -0.319657
C25   C     C_3   0.131850 0.461726 0.066677 -0.898621
C26   C     C_3   0.666704 0.510273 0.955535 -0.422996
C27   C     C_3   0.748784 0.588891 0.000568 -0.313499
C28   C     C_3   0.866639 0.584600 0.942591 -0.904006
C29   C     C_3   0.180998 0.344250 0.421544 -0.348354
C30   C     C_3   0.250122 0.342497 0.316278 -0.343777
C31   C     C_3   0.218373 0.246760 0.251579 -0.902342
C32   C     C_3   0.801104 0.580723 0.649463 -0.399504
C33   C     C_3   0.755451 0.689568 0.650246 -0.275798
C34   C     C_R   0.547871 0.024389 0.471482 -0.124373
C35   C     C_3   0.773850 0.758189 0.742678 -0.921417
C36   C     C_3   0.208688 0.665443 0.654271 -0.386270
C37   C     C_3   0.158743 0.641968 0.762230 -0.393348
C38   C     C_3   0.215800 0.712167 0.835932 -0.846039
C39   C     C_3   0.794727 0.354238 0.329312 -0.378114
C40   C     C_3   0.823698 0.398544 0.225622 -0.362380
C41   C     C_3   0.771116 0.328868 0.148823 -0.854195
C42   C     C_R   0.966016 0.413201 0.395315 -0.324320
C43   C     C_R   0.040058 0.610026 0.582359 -0.312194
C44   C     C_R   0.850645 0.420529 0.404772 0.237190
C45   C     C_R   0.153196 0.596314 0.580190 0.238375
C46   C     C_R   0.855275 0.538535 0.546953 0.203616
F1    F     F_    0.283809 0.197560 0.609417 -0.635594
F2    F     F_    0.718447 0.802685 0.393918 -0.623879
F3    F     F_    0.729626 0.012477 0.372742 -0.644139
F4    F     F_    0.272505 0.987868 0.629876 -0.648946
H1    H     H_    0.622499 0.168287 0.413852 0.222838
H2    H     H_    0.339958 0.433262 0.104071 0.207197
H3    H     H_    0.328972 0.570996 0.091421 0.211462
H4    H     H_    0.895219 0.503989 0.939375 0.262047
H5    H     H_    0.869815 0.609453 0.866131 0.258521
H6    H     H_    0.924113 0.638570 0.979903 0.266395
H7    H     H_    0.721016 0.669570 0.000840 0.232379
H8    H     H_    0.751849 0.571102 0.078520 0.240905
H9    H     H_    0.697767 0.430514 0.950830 0.205529
H10   H     H_    0.665410 0.531758 0.878383 0.205893
H11   H     H_    0.229140 0.173637 0.287266 0.282339
H12   H     H_    0.378864 0.832133 0.587150 0.219801
H13   H     H_    0.130838 0.247737 0.239958 0.263912
H14   H     H_    0.272911 0.247306 0.177763 0.257052
H15   H     H_    0.240148 0.414488 0.278399 0.229743
H16   H     H_    0.338821 0.337575 0.321721 0.240822
H17   H     H_    0.221413 0.308460 0.475196 0.258505
H18   H     H_    0.108058 0.286995 0.422932 0.195878
H19   H     H_    0.731139 0.720422 0.810905 0.267483
H20   H     H_    0.863970 0.771554 0.745857 0.270375
H21   H     H_    0.738888 0.835305 0.740166 0.269397
H22   H     H_    0.795245 0.731049 0.583070 0.259589
H23   H     H_    0.006641 0.363900 0.334724 0.167951
H24   H     H_    0.664676 0.680821 0.651636 0.237590
H25   H     H_    0.741441 0.522361 0.687233 0.211836
H26   H     H_    0.861378 0.583727 0.701635 0.169095
H27   H     H_    0.304950 0.695815 0.827581 0.256953
H28   H     H_    0.209102 0.796028 0.823332 0.290559
H29   H     H_    0.175024 0.696941 0.913129 0.251999
H30   H     H_    0.068667 0.655458 0.777300 0.225540
H31   H     H_    0.168698 0.558585 0.774688 0.242426
H32   H     H_    0.297498 0.656364 0.646099 0.254353
H33   H     H_    0.198080 0.748705 0.641902 0.217613
H34   H     H_    0.003535 0.674975 0.627863 0.174108
H35   H     H_    0.801636 0.248887 0.143850 0.276602
H36   H     H_    0.679158 0.323682 0.169298 0.262736
H37   H     H_    0.794262 0.362351 0.074750 0.251306
H38   H     H_    0.794151 0.478696 0.228006 0.253155
H39   H     H_    0.915172 0.403897 0.201166 0.222635
H40   H     H_    0.823304 0.273398 0.325482 0.203193
H41   H     H_    0.704625 0.344880 0.350615 0.246757
H42   H     H_    0.131224 0.401002 0.121112 0.266474
H43   H     H_    0.118844 0.539017 0.107350 0.268404
H44   H     H_    0.062170 0.441750 0.024695 0.257416
H45   H     H_    0.238516 0.525282 0.939756 0.235710
H46   H     H_    0.251943 0.388110 0.953802 0.242470
N1    N     N_R   0.206090 0.519450 0.517820 -0.118363
N2    N     N_R   0.793910 0.480550 0.482180 -0.115978
O1    O     O_R   0.421240 0.658850 0.504760 -0.644979
O2    O     O_R   0.578760 0.341150 0.495240 -0.644380
O3    O     O_R   0.609960 0.646370 0.493320 -0.573337
O4    O     O_R   0.390040 0.353630 0.506680 -0.591029
O5    O     O_R   0.392060 0.507120 0.646890 -0.613112
O6    O     O_R   0.607940 0.492880 0.353110 -0.613719
O7    O     O_R   0.580780 0.494630 0.635450 -0.638222
O8    O     O_R   0.419220 0.505370 0.364550 -0.625255
Zn1   Zn    Zn3+2 0.373990 0.508340 0.507630 0.950343
Zn2   Zn    Zn3+2 0.626010 0.491660 0.492370 0.954018

loop_
_geom_bond_atom_site_label_1
_geom_bond_atom_site_label_2
_ccdc_geom_bond_type
C15   C18   A    
C5    O5    A    
C25   H43   S    
C31   H11   S    
O6    Zn2   S    
C1    O1    A    
C32   H25   S    
C28   H6    S    
C5    O7    A    
C10   C22   S    
C41   H36   S    
C3    C43   A    
C26   C27   S    
C29   C30   S    
C2    C29   S    
C14   C21   A    
C36   C37   S    
C24   H46   S    
C30   C31   S    
C19   F1    S    
O8    Zn1   S    
C36   H33   S    
N2    Zn2   S    
C9    C13   S    
C33   H22   S    
C16   C34   A    
C29   H17   S    
C44   N2    A    
C6    C7    S    
C35   H20   S    
C36   H32   S    
C25   H42   S    
C1    C15   S    
C6    O6    A    
C40   H39   S    
C26   H9    S    
C39   H40   S    
O3    Zn2   S    
C46   N2    A    
C35   H21   S    
C25   H44   S    
C43   H34   S    
C37   H31   S    
C42   C44   A    
C31   H14   S    
C39   H41   S    
C37   H30   S    
C28   H5    S    
C9    C26   S    
C22   H3    S    
C15   C20   A    
C41   H37   S    
O7    Zn2   S    
O2    Zn2   S    
C31   H13   S    
C36   C45   S    
C24   C25   S    
C2    N1    A    
C27   H7    S    
C24   H45   S    
C39   C40   S    
C28   H4    S    
C17   C19   A    
C21   C34   A    
C38   H28   S    
C2    C4    A    
C12   O4    A    
C37   C38   S    
C29   H18   S    
C20   C23   A    
C23   C34   A    
C6    O8    A    
O4    Zn1   S    
C17   C23   A    
C16   F3    S    
C43   C45   A    
C30   H16   S    
C40   C41   S    
C12   C14   S    
C22   C24   S    
C3    C4    A    
C1    O3    A    
C21   H1    S    
C41   H35   S    
C22   H2    S    
C9    C10   D    
C42   H23   S    
C32   C46   S    
C14   C19   A    
C27   H8    S    
C18   F2    S    
C17   F4    S    
C32   H26   S    
C5    C8    S    
C39   C44   S    
C38   H27   S    
O1    Zn1   S    
C3    C46   A    
C32   C33   S    
C40   H38   S    
C45   N1    A    
C4    C42   A    
C8    C11   T    
C33   C35   S    
C20   H12   S    
C12   O2    A    
C30   H15   S    
C10   C11   S    
N1    Zn1   S    
C33   H24   S    
C7    C13   T    
C35   H19   S    
C16   C18   A    
C38   H29   S    
C27   C28   S    
O5    Zn1   S    
C26   H10   S    
