data_mof_unit_44858.cif
_audit_creation_date              2012-12-10T18:42:29-0500
_audit_creation_method            fapswitch 2.2
_symmetry_space_group_name_H-M    P1
_symmetry_Int_Tables_number       1
_space_group_crystal_system       triclinic
_cell_length_a                    8.636607
_cell_length_b                    10.665982
_cell_length_c                    9.868813
_cell_angle_alpha                 89.523752
_cell_angle_beta                  98.314418
_cell_angle_gamma                 90.56547
_cell_volume                      899.473595204

loop_
_atom_site_label
_atom_site_type_symbol
_atom_type_description
_atom_site_fract_x
_atom_site_fract_y
_atom_site_fract_z
_atom_type_partial_charge
C1    C     C_R   0.502413 0.260317 0.500812 0.861363
C2    C     C_R   0.497577 0.739684 0.499188 0.861361
C3    C     C_R   0.201702 0.499725 0.464641 0.885921
C4    C     C_R   0.798298 0.500275 0.535359 0.885927
C5    C     C_2   0.037775 0.494528 0.445623 0.274568
C6    C     C_2   0.962225 0.505473 0.554377 0.274553
C7    C     C_R   0.403914 0.066976 0.398695 -0.221824
C8    C     C_R   0.596074 0.933024 0.601308 -0.221840
C9    C     C_R   0.399035 0.938186 0.396116 -0.011450
C10   C     C_R   0.600921 0.061815 0.603911 -0.011466
C11   C     C_R   0.496415 0.872148 0.498074 -0.059478
C12   C     C_R   0.503571 0.127854 0.501931 -0.059482
C13   C     C_R   0.594476 0.580979 0.082392 0.058450
C14   C     C_R   0.405524 0.419021 0.917608 0.058464
C15   C     C_R   0.594186 0.580677 0.938677 -0.086719
C16   C     C_R   0.405814 0.419322 0.061323 -0.086718
H1    H     H_    0.328273 0.120134 0.321909 0.157931
H2    H     H_    0.671713 0.879860 0.678087 0.157935
H3    H     H_    0.669221 0.644938 0.892123 0.146679
H4    H     H_    0.330779 0.355062 0.107877 0.146679
N1    N     N_R   0.499960 0.499970 0.857200 -0.104724
N2    N     N_R   0.500040 0.500030 0.142800 -0.104727
O1    O     O_R   0.499990 0.316750 0.614620 -0.629292
O2    O     O_R   0.500010 0.683250 0.385380 -0.629283
O3    O     O_R   0.499990 0.316780 0.385290 -0.622095
O4    O     O_R   0.500010 0.683220 0.614710 -0.622103
O5    O     O_R   0.271750 0.499990 0.587840 -0.581731
O6    O     O_R   0.728250 0.500010 0.412160 -0.581727
O7    O     O_R   0.271750 0.500010 0.358510 -0.583758
O8    O     O_R   0.728250 0.499990 0.641490 -0.583756
Zn1   Zn    Zn3+2 0.500000 0.499980 0.653120 1.009296
Zn2   Zn    Zn3+2 0.500000 0.500020 0.346880 1.009298
F1    F     F_    0.964764 0.474285 0.315426 -0.651050
F2    F     F_    0.035236 0.525717 0.684574 -0.651053
C17   C     C_1   0.289811 0.876650 0.292056 0.185313
N3    N     N_1   0.202438 0.827355 0.208901 -0.155784
C18   C     C_1   0.710034 0.123348 0.708061 0.185376
N4    N     N_1   0.797307 0.172642 0.791297 -0.155800
C19   C     C_1   0.695648 0.667803 0.164352 0.307174
N5    N     N_1   0.777358 0.737917 0.229767 -0.178783
C20   C     C_1   0.304352 0.332196 0.835648 0.307168
N6    N     N_1   0.222643 0.262082 0.770233 -0.178812

loop_
_geom_bond_atom_site_label_1
_geom_bond_atom_site_label_2
_ccdc_geom_bond_type
C1    O3    A    
O2    Zn2   S    
C18   N4    T    
N1    Zn1   S    
C20   N6    T    
N2    Zn2   S    
C15   N1    A    
C17   N3    T    
C13   C15   A    
C8    C11   A    
C16   H4    S    
O3    Zn2   S    
C3    O5    A    
C4    O8    A    
O4    Zn1   S    
C2    O4    A    
C15   H3    S    
C9    C11   A    
C3    O7    A    
C5    C6    D    
C1    C12   S    
C10   C12   A    
C14   C20   S    
C2    C11   S    
C14   N1    A    
C4    C6    S    
C4    O6    A    
C13   N2    A    
C1    O1    A    
O7    Zn2   S    
C10   C18   S    
C2    O2    A    
O8    Zn1   S    
C14   C16   A    
C7    C12   A    
C13   C19   S    
O5    Zn1   S    
C7    C9    A    
O6    Zn2   S    
C8    C10   A    
C19   N5    T    
C9    C17   S    
C16   N2    A    
C3    C5    S    
C8    H2    S    
C6    F2    S    
O1    Zn1   S    
C7    H1    S    
C5    F1    S    
