data_mof_unit_52735.cif
_audit_creation_date              2012-12-10T17:37:19-0500
_audit_creation_method            fapswitch 2.2
_symmetry_space_group_name_H-M    P1
_symmetry_Int_Tables_number       1
_space_group_crystal_system       triclinic
_cell_length_a                    12.326048
_cell_length_b                    13.139615
_cell_length_c                    15.832624
_cell_angle_alpha                 77.591026
_cell_angle_beta                  101.183073
_cell_angle_gamma                 116.627353
_cell_volume                      2224.68768129

loop_
_atom_site_label
_atom_site_type_symbol
_atom_type_description
_atom_site_fract_x
_atom_site_fract_y
_atom_site_fract_z
_atom_type_partial_charge
C1    C     C_R   0.854958 0.286449 0.506826 0.768013
C2    C     C_3   0.994250 0.486263 0.918805 0.174918
C3    C     C_3   0.086812 0.580938 0.027234 -0.165635
C4    C     C_3   0.995546 0.483230 0.085586 0.156344
C5    C     C_3   0.979503 0.577002 0.956586 -0.142504
C6    C     C_3   0.888194 0.479150 0.015893 -0.168784
C7    C     C_1   0.994702 0.490431 0.826387 -0.073263
C8    C     C_1   0.996663 0.489986 0.176132 -0.093634
C9    C     C_R   0.276618 0.022177 0.380975 -0.197977
C10   C     C_R   0.228311 0.835082 0.467653 -0.044780
C11   C     C_R   0.815553 0.083478 0.560332 -0.189317
C12   C     C_R   0.998983 0.498799 0.660098 0.824982
C13   C     C_R   0.736713 0.967822 0.575712 -0.148188
C14   C     C_R   0.613458 0.930613 0.545276 -0.205445
C15   C     C_R   0.567118 0.008644 0.494959 0.072969
C16   C     C_R   0.650833 0.123723 0.470143 0.080808
C17   C     C_R   0.440611 0.975977 0.467708 0.071506
C18   C     C_R   0.401341 0.053788 0.408455 0.171132
C19   C     C_R   0.487073 0.161387 0.376084 -0.244445
C20   C     C_R   0.610062 0.195550 0.405718 -0.214142
C21   C     C_R   0.351531 0.868687 0.498810 -0.255500
C22   C     C_R   0.190364 0.912820 0.409908 -0.203646
C23   C     C_R   0.145136 0.713645 0.486857 0.795575
C24   C     C_R   0.773374 0.163033 0.509841 -0.100107
C25   C     C_R   0.343083 0.323534 0.635195 -0.303558
C26   C     C_R   0.764684 0.652212 0.387805 0.025618
C27   C     C_R   0.673233 0.691957 0.366696 -0.036109
C28   C     C_R   0.567220 0.632976 0.409022 -0.245957
C29   C     C_R   0.553671 0.537516 0.474141 -0.023131
C30   C     C_R   0.652624 0.504615 0.495882 0.281802
C31   C     C_R   0.447530 0.475774 0.520309 -0.026832
C32   C     C_R   0.444508 0.384924 0.588360 0.175288
C33   C     C_R   0.543185 0.356442 0.610058 -0.280270
C34   C     C_R   0.000109 0.499718 0.340088 0.819589
C35   C     C_R   0.645083 0.415386 0.565298 -0.167248
C36   C     C_R   0.343379 0.499688 0.502354 0.020539
C37   C     C_R   0.244404 0.351869 0.614688 0.072539
C38   C     C_3   0.010117 0.392817 0.047114 0.050351
C39   C     C_3   0.902675 0.388063 0.976421 -0.202953
C40   C     C_1   0.996190 0.494632 0.750232 -0.186623
C41   C     C_1   0.998179 0.495377 0.250918 -0.192260
C42   C     C_3   0.101807 0.490174 0.987941 -0.190742
Cu1   Cu    Cu3+1 0.098270 0.475420 0.519690 0.932534
Cu2   Cu    Cu3+1 0.901730 0.524580 0.480310 0.921066
H1    H     H_    0.827024 0.308905 0.954441 0.128699
H2    H     H_    0.375507 0.808607 0.547262 0.149132
H3    H     H_    0.909341 0.111012 0.589812 0.149397
H4    H     H_    0.557702 0.839671 0.560089 0.131121
H5    H     H_    0.770569 0.906997 0.613940 0.142652
H6    H     H_    0.672625 0.277862 0.375511 0.177310
H7    H     H_    0.165629 0.304680 0.650438 0.119850
H8    H     H_    0.542128 0.288070 0.662826 0.150308
H9    H     H_    0.340232 0.254120 0.687402 0.134671
H10   H     H_    0.336636 0.565842 0.450979 0.125680
H11   H     H_    0.847509 0.697181 0.356291 0.127206
H12   H     H_    0.497500 0.664306 0.390624 0.135506
H13   H     H_    0.716978 0.389192 0.588808 0.204690
H14   H     H_    0.800397 0.474564 0.028310 0.133601
H15   H     H_    0.966865 0.652922 0.918060 0.127783
H16   H     H_    0.162557 0.660207 0.048958 0.135111
H17   H     H_    0.189580 0.494852 0.975348 0.134122
H18   H     H_    0.095139 0.887723 0.384681 0.144901
H19   H     H_    0.458912 0.219852 0.328008 0.149670
H20   H     H_    0.246266 0.081111 0.335488 0.134605
N1    N     N_R   0.246280 0.438200 0.549540 -0.179625
N2    N     N_R   0.754330 0.561180 0.450980 -0.211894
O1    O     O_R   0.972510 0.318130 0.524770 -0.582159
O2    O     O_R   0.806530 0.359650 0.491510 -0.602290
O3    O     O_R   0.082970 0.479240 0.637550 -0.574567
O4    O     O_R   0.916990 0.520750 0.604290 -0.589333
O5    O     O_R   0.193470 0.640350 0.508490 -0.587372
O6    O     O_R   0.027490 0.681870 0.475230 -0.586314
O7    O     O_R   0.083010 0.479250 0.395710 -0.575798
O8    O     O_R   0.917030 0.520760 0.362450 -0.586168
C43   C     C_R   0.027786 0.286312 0.090573 0.094620
C44   C     C_R   0.044039 0.220615 0.038974 -0.160747
C45   C     C_R   0.061659 0.121990 0.077031 -0.148908
C46   C     C_R   0.062976 0.087845 0.166920 -0.119137
C47   C     C_R   0.046012 0.151965 0.218775 -0.123285
C48   C     C_R   0.028354 0.250664 0.180961 -0.149108
H21   H     H_    0.043361 0.246034 0.969171 0.125523
H22   H     H_    0.074186 0.071972 0.036780 0.124209
H23   H     H_    0.076187 0.011267 0.196309 0.121056
H24   H     H_    0.045961 0.124864 0.288351 0.132674
H25   H     H_    0.014796 0.297589 0.222842 0.137890
C49   C     C_R   0.690555 0.797695 0.303062 0.107991
C50   C     C_R   0.739123 0.816422 0.224781 -0.177695
C51   C     C_R   0.756344 0.916770 0.165614 -0.116079
C52   C     C_R   0.726657 0.999877 0.184289 -0.098606
C53   C     C_R   0.678962 0.982518 0.261992 -0.142494
C54   C     C_R   0.660548 0.881891 0.321000 -0.135063
H26   H     H_    0.762433 0.752948 0.209000 0.117697
H27   H     H_    0.793205 0.930324 0.105340 0.132890
H28   H     H_    0.741019 0.077867 0.138663 0.128588
H29   H     H_    0.656466 0.047134 0.276668 0.137062
H30   H     H_    0.624630 0.870630 0.381211 0.137902

loop_
_geom_bond_atom_site_label_1
_geom_bond_atom_site_label_2
_ccdc_geom_bond_type
Cu1   O7    S    
C50   C51   A    
C3    C42   S    
C9    H20   S    
C11   C13   A    
C6    H14   S    
Cu2   N2    S    
C19   C20   A    
C4    C8    S    
C26   H11   S    
C28   H12   S    
C53   H29   S    
C45   C46   A    
C10   C22   A    
C33   H8    S    
C26   C27   A    
C48   H25   S    
C30   C35   A    
C28   C29   A    
C25   H9    S    
C38   C42   S    
C49   C54   A    
C31   C36   A    
C38   C39   S    
C37   H7    S    
C9    C22   A    
C15   C16   A    
C11   C24   A    
C1    O2    A    
C18   C19   A    
C52   H28   S    
C43   C44   A    
C25   C37   A    
C54   H30   S    
C11   H3    S    
C46   H23   S    
C2    C7    S    
C19   H19   S    
C37   N1    A    
C20   H6    S    
C7    C40   T    
Cu2   O4    S    
C43   C48   A    
C16   C20   A    
C39   H1    S    
C3    H16   S    
C25   C32   A    
C16   C24   A    
C50   H26   S    
C47   H24   S    
C34   C41   S    
C2    C39   S    
C38   C43   S    
C10   C21   A    
C5    H15   S    
C26   N2    A    
C23   O5    A    
C44   C45   A    
C4    C6    S    
C36   N1    A    
C14   H4    S    
C17   C21   A    
C12   C40   S    
C27   C49   S    
Cu1   Cu2   S    
C29   C30   A    
C22   H18   S    
C31   C32   A    
C14   C15   A    
Cu1   N1    S    
C17   C18   A    
C8    C41   T    
Cu2   O8    S    
C42   H17   S    
C30   N2    A    
C34   O8    A    
C13   H5    S    
C12   O3    A    
C4    C38   S    
Cu2   O2    S    
C2    C5    S    
C3    C4    S    
C21   H2    S    
C15   C17   A    
C12   O4    A    
C51   H27   S    
Cu1   O5    S    
C49   C50   A    
C23   O6    A    
Cu1   O3    S    
C3    C5    S    
C44   H21   S    
C1    O1    A    
C10   C23   S    
C35   H13   S    
C32   C33   A    
C29   C31   A    
C46   C47   A    
C53   C54   A    
C5    C6    S    
C45   H22   S    
C2    C42   S    
C33   C35   A    
Cu2   O6    S    
C36   H10   S    
C34   O7    A    
C47   C48   A    
C9    C18   A    
C51   C52   A    
C1    C24   S    
Cu1   O1    S    
C27   C28   A    
C6    C39   S    
C52   C53   A    
C13   C14   A    
