data_mof_unit_19121.cif
_audit_creation_date              2012-12-11T14:13:08-0500
_audit_creation_method            fapswitch 2.2
_symmetry_space_group_name_H-M    P1
_symmetry_Int_Tables_number       1
_space_group_crystal_system       triclinic
_cell_length_a                    11.583487
_cell_length_b                    18.748055
_cell_length_c                    10.120787
_cell_angle_alpha                 89.999244
_cell_angle_beta                  109.795448
_cell_angle_gamma                 90.0
_cell_volume                      2068.0299865

loop_
_atom_site_label
_atom_site_type_symbol
_atom_type_description
_atom_site_fract_x
_atom_site_fract_y
_atom_site_fract_z
_atom_type_partial_charge
C1    C     C_R   0.075043 0.646073 0.141538 0.534365
C2    C     C_2   0.606686 0.071421 0.068432 -0.122286
C3    C     C_2   0.606053 0.428582 0.067376 -0.120365
C4    C     C_2   0.393327 0.571429 0.931547 -0.122287
C5    C     C_2   0.499588 0.961229 0.993855 -0.193821
C6    C     C_2   0.501025 0.038551 0.009440 -0.199981
C7    C     C_2   0.500434 0.461241 0.006115 -0.193833
C8    C     C_2   0.498997 0.538563 0.990507 -0.199965
C9    C     C_2   0.036520 0.928958 0.126630 -0.030575
C10   C     C_2   0.978438 0.075068 0.879046 -0.054228
C11   C     C_2   0.963411 0.428977 0.873344 -0.030554
C12   C     C_R   0.921790 0.355231 0.857388 0.546688
C13   C     C_2   0.021552 0.575072 0.120964 -0.054186
C14   C     C_2   0.002967 0.962857 0.003367 0.243582
C15   C     C_2   0.010768 0.041688 0.003218 0.234825
C16   C     C_2   0.996963 0.462875 0.996608 0.243602
C17   C     C_2   0.989148 0.541706 0.996774 0.234880
C18   C     C_R   0.436033 0.638006 0.373838 0.527586
C19   C     C_R   0.561986 0.362470 0.621150 0.522198
C20   C     C_R   0.563964 0.138005 0.626160 0.527551
C21   C     C_R   0.438013 0.862471 0.378844 0.522177
C22   C     C_R   0.375555 0.644960 0.964486 0.536550
C23   C     C_R   0.924962 0.146073 0.858466 0.534420
C24   C     C_R   0.624385 0.355046 0.035349 0.538480
C25   C     C_R   0.624449 0.144956 0.035507 0.536592
C26   C     C_R   0.375619 0.855043 0.964643 0.538491
C27   C     C_R   0.539634 0.437201 0.571995 -0.034525
C28   C     C_R   0.455331 0.561309 0.412076 -0.036801
C29   C     C_R   0.460363 0.937206 0.427980 -0.034555
C30   C     C_R   0.544659 0.061310 0.587912 -0.036822
C31   C     C_R   0.364878 0.449335 0.661113 -0.057304
C32   C     C_R   0.630602 0.552701 0.325864 -0.051532
C33   C     C_R   0.635137 0.949334 0.338902 -0.057318
C34   C     C_R   0.078189 0.855223 0.142604 0.546659
C35   C     C_R   0.369342 0.052707 0.674061 -0.051566
C36   C     C_R   0.243411 0.468895 0.632372 0.219244
C37   C     C_R   0.752652 0.535650 0.356197 0.220278
C38   C     C_R   0.756606 0.968889 0.367661 0.219239
C39   C     C_R   0.247283 0.035660 0.643683 0.220253
C40   C     C_R   0.189654 0.516757 0.525310 -0.075609
C41   C     C_R   0.804905 0.483374 0.454064 -0.070049
C42   C     C_R   0.810357 0.016751 0.474723 -0.075608
C43   C     C_R   0.195040 0.983398 0.545780 -0.069991
C44   C     C_R   0.260698 0.545750 0.452468 -0.140934
C45   C     C_R   0.431513 0.471714 0.574380 -0.025682
C46   C     C_R   0.732775 0.449649 0.520423 -0.142565
C47   C     C_R   0.739305 0.045747 0.547551 -0.140907
C48   C     C_R   0.267191 0.949679 0.479443 -0.142469
C49   C     C_R   0.383315 0.527577 0.481105 -0.025373
C50   C     C_R   0.610537 0.469281 0.498001 -0.020021
C51   C     C_R   0.616685 0.027577 0.518900 -0.025358
C52   C     C_R   0.389439 0.969298 0.501929 -0.019945
C53   C     C_3   0.142491 0.122915 0.154488 0.032254
C54   C     C_3   0.260996 0.079632 0.185964 -0.296999
C55   C     C_3   0.373352 0.128195 0.232085 -0.453099
C56   C     C_R   0.563035 0.527020 0.408550 -0.016433
C57   C     C_3   0.844253 0.920806 0.814178 0.000565
C58   C     C_3   0.790657 0.856745 0.867772 -0.262255
C59   C     C_3   0.654494 0.847380 0.783849 -0.463268
C60   C     C_3   0.857453 0.622987 0.845625 0.032297
C61   C     C_3   0.738884 0.579733 0.813693 -0.296913
C62   C     C_3   0.626598 0.628357 0.767946 -0.453124
C63   C     C_3   0.155717 0.420828 0.185772 0.000545
C64   C     C_3   0.209313 0.356767 0.132180 -0.262235
C65   C     C_3   0.345480 0.347408 0.216085 -0.463240
C66   C     C_R   0.568494 0.971714 0.425621 -0.025694
C67   C     C_R   0.436935 0.027028 0.591400 -0.016392
C68   C     C_2   0.393970 0.928571 0.932578 -0.120370
Cl1   Cl    Cl    0.157301 0.426756 0.721172 -0.701975
Cl2   Cl    Cl    0.839957 0.586977 0.282203 -0.689933
Cl3   Cl    Cl    0.842723 0.926735 0.278893 -0.701967
Cl4   Cl    Cl    0.159952 0.086983 0.717647 -0.689930
Cr1   Cr    Cr6+3 0.187610 0.750000 0.979860 1.075968
Cr2   Cr    Cr6+3 0.812390 0.250000 0.020140 1.075969
Cr3   Cr    Cr6+3 0.245810 0.750000 0.341640 1.050577
Cr4   Cr    Cr6+3 0.754190 0.250000 0.658360 1.050578
Cr5   Cr    Cr6+3 0.485760 0.750000 0.219910 1.036894
Cr6   Cr    Cr6+3 0.514240 0.250000 0.780090 1.036898
H1    H     H_    0.093540 0.530366 0.496452 0.183576
H2    H     H_    0.776758 0.414474 0.601034 0.172318
H3    H     H_    0.781200 0.075745 0.637444 0.151136
H4    H     H_    0.223234 0.914524 0.398788 0.172188
H5    H     H_    0.416931 0.069110 0.967379 0.169935
H6    H     H_    0.583456 0.930535 0.037305 0.173279
H7    H     H_    0.583091 0.569122 0.032556 0.169998
H8    H     H_    0.416561 0.430548 0.962704 0.173281
H9    H     H_    0.688962 0.040363 0.118516 0.175904
H10   H     H_    0.311915 0.959775 0.881916 0.159373
H11   H     H_    0.311051 0.540369 0.881486 0.175916
H12   H     H_    0.900986 0.469913 0.481370 0.179267
H13   H     H_    0.688118 0.459785 0.117991 0.159429
H14   H     H_    0.967679 0.044330 0.785064 0.146859
H15   H     H_    0.053561 0.959324 0.222545 0.152198
H16   H     H_    0.032336 0.544328 0.214948 0.146831
H17   H     H_    0.946346 0.459346 0.777425 0.152152
H18   H     H_    0.149811 0.156457 0.247494 0.173359
H19   H     H_    0.133861 0.160541 0.066850 0.146299
H20   H     H_    0.266772 0.040995 0.270150 0.173108
H21   H     H_    0.260116 0.049469 0.091141 0.167185
H22   H     H_    0.370925 0.165697 0.146238 0.153164
H23   H     H_    0.906473 0.030356 0.503594 0.183604
H24   H     H_    0.457916 0.095585 0.257748 0.173243
H25   H     H_    0.376469 0.159071 0.326851 0.188923
H26   H     H_    0.824746 0.913744 0.699744 0.180322
H27   H     H_    0.796493 0.970717 0.826817 0.100930
H28   H     H_    0.840669 0.807428 0.858570 0.176438
H29   H     H_    0.801401 0.864843 0.979998 0.200809
H30   H     H_    0.603132 0.897059 0.786686 0.161665
H31   H     H_    0.616209 0.803329 0.829605 0.155410
H32   H     H_    0.641929 0.834056 0.672937 0.189935
H33   H     H_    0.850295 0.656679 0.752858 0.173261
H34   H     H_    0.098952 0.969946 0.518427 0.179295
H35   H     H_    0.866011 0.660473 0.933458 0.146309
H36   H     H_    0.733096 0.541320 0.729148 0.173383
H37   H     H_    0.739678 0.549325 0.908217 0.167050
H38   H     H_    0.629062 0.665665 0.854098 0.153176
H39   H     H_    0.541986 0.595773 0.741993 0.173299
H40   H     H_    0.623542 0.659447 0.673441 0.188831
H41   H     H_    0.175246 0.413772 0.300211 0.180301
H42   H     H_    0.203462 0.470739 0.173105 0.100923
H43   H     H_    0.159310 0.307449 0.141400 0.176468
H44   H     H_    0.198554 0.364863 0.019950 0.200851
H45   H     H_    0.403504 0.413426 0.746883 0.179781
H46   H     H_    0.396829 0.397095 0.213261 0.161646
H47   H     H_    0.383772 0.303370 0.170306 0.155425
H48   H     H_    0.358058 0.334068 0.326994 0.189938
H49   H     H_    0.593045 0.590894 0.244356 0.183322
H50   H     H_    0.596513 0.913428 0.253129 0.179780
H51   H     H_    0.406885 0.090895 0.755582 0.183310
H52   H     H_    0.218797 0.575748 0.362577 0.151140
O1    O     O_R   0.267710 0.668200 0.902110 -0.480817
O2    O     O_R   0.883280 0.330790 0.732340 -0.521837
O3    O     O_R   0.883280 0.169210 0.732340 -0.508245
O4    O     O_R   0.116720 0.830790 0.267660 -0.521810
O5    O     O_R   0.366710 0.675440 0.427590 -0.486971
O6    O     O_R   0.633290 0.324560 0.572410 -0.495640
O7    O     O_R   0.633290 0.175440 0.572410 -0.486942
O8    O     O_R   0.366710 0.824560 0.427590 -0.495610
O9    O     O_R   0.534870 0.669390 0.371760 -0.505546
O10   O     O_R   0.465130 0.330610 0.628240 -0.506794
O11   O     O_R   0.465130 0.169390 0.628240 -0.505604
O12   O     O_R   0.732290 0.331800 0.097890 -0.483314
O13   O     O_R   0.534870 0.830610 0.371760 -0.506808
O14   O     O_R   0.453080 0.674480 0.075160 -0.527239
O15   O     O_R   0.546920 0.325520 0.924840 -0.523606
O16   O     O_R   0.546920 0.174480 0.924840 -0.527211
O17   O     O_R   0.453080 0.825520 0.075160 -0.523603
O18   O     O_3   0.306390 0.750000 0.180470 -0.317493
O19   O     O_3   0.693610 0.250000 0.819530 -0.317495
O20   O     O_3   0.037673 0.078614 0.129840 -0.558770
O21   O     O_3   0.973505 0.924404 0.878748 -0.559207
O22   O     O_3   0.962214 0.578648 0.870163 -0.558779
O23   O     O_R   0.732290 0.168200 0.097890 -0.480805
O24   O     O_3   0.026460 0.424415 0.121227 -0.559208
O25   O     O_R   0.267710 0.831800 0.902110 -0.483307
O26   O     O_R   0.099480 0.674460 0.038850 -0.471267
O27   O     O_R   0.900520 0.325540 0.961150 -0.455708
O28   O     O_R   0.900520 0.174460 0.961150 -0.471275
O29   O     O_R   0.099480 0.825540 0.038850 -0.455703
O30   O     O_R   0.116720 0.669210 0.267660 -0.508271

loop_
_geom_bond_atom_site_label_1
_geom_bond_atom_site_label_2
_ccdc_geom_bond_type
C44   C49   A    
Cr3   O30   S    
C57   H27   S    
C30   C51   A    
Cr1   O1    S    
C22   O1    A    
C4    C8    D    
Cr4   O6    S    
Cr3   O4    S    
C7    C8    S    
C20   C30   S    
C53   C54   S    
C55   H24   S    
C8    H7    S    
C32   H49   S    
C38   C42   A    
C48   C52   A    
C3    C7    D    
C24   O15   A    
C5    C6    S    
Cr3   O5    S    
C7    H8    S    
C34   O4    A    
C44   H52   S    
C64   H43   S    
C23   O28   A    
C55   H25   S    
C59   H32   S    
C63   H41   S    
Cr1   O26   S    
C3    H13   S    
C58   H29   S    
C60   O22   S    
C65   H46   S    
C62   H39   S    
Cr6   O15   S    
C38   Cl3   S    
C24   O12   A    
C19   O10   A    
C55   H22   S    
C61   H37   S    
C41   C46   A    
Cr2   O19   S    
C25   O16   A    
C45   C49   A    
C12   O27   A    
C19   C27   S    
C43   C48   A    
Cr5   O17   S    
C30   C67   A    
C27   C50   A    
C34   O29   A    
C27   C45   A    
C46   C50   A    
C41   H12   S    
Cr2   O12   S    
C10   H14   S    
C37   Cl2   S    
C53   H18   S    
C60   H35   S    
C18   O9    A    
C21   O8    A    
C5    C68   D    
C26   O25   A    
C33   C66   A    
C28   C56   A    
Cr2   O28   S    
Cr1   O18   S    
C25   O23   A    
C2    H9    S    
C18   C28   S    
C21   O13   A    
Cr6   O11   S    
C5    H6    S    
C23   O3    A    
C16   C17   S    
C47   C51   A    
C53   H19   S    
C58   C59   S    
Cr4   O7    S    
C21   C29   S    
C33   H50   S    
C50   C56   A    
C2    C6    D    
Cr2   O23   S    
C60   C61   S    
C58   H28   S    
C51   C66   A    
C65   H47   S    
C20   O7    A    
C14   O21   S    
C1    O26   A    
C35   C39   A    
C9    C14   D    
Cr5   O13   S    
C62   H38   S    
C4    C22   S    
C11   C16   D    
C48   H4    S    
C35   C67   A    
C39   Cl4   S    
C29   C66   A    
Cr1   O25   S    
C40   H1    S    
C18   O5    A    
C32   C37   A    
Cr5   O18   S    
C52   C67   A    
C16   O24   S    
C9    C34   S    
C68   H10   S    
C54   H21   S    
C17   O22   S    
C1    C13   S    
C43   H34   S    
C42   H23   S    
C9    H15   S    
C36   C40   A    
C36   Cl1   S    
C4    H11   S    
C11   H17   S    
C57   H26   S    
C35   H51   S    
C54   C55   S    
C6    H5    S    
C12   O2    A    
Cr2   O27   S    
C31   C36   A    
C20   O11   A    
C1    O30   A    
Cr5   O9    S    
C63   O24   S    
C3    C24   S    
Cr3   O8    S    
Cr6   O10   S    
C39   C43   A    
Cr4   O3    S    
C10   C23   S    
Cr1   O29   S    
C59   H30   S    
C13   C17   D    
C13   H16   S    
C10   C15   D    
C26   C68   S    
C64   C65   S    
C61   C62   S    
C19   O6    A    
Cr5   O14   S    
C31   H45   S    
C60   H33   S    
C65   H48   S    
C46   H2    S    
C63   H42   S    
Cr4   O2    S    
C57   C58   S    
C53   O20   S    
Cr4   O19   S    
C64   H44   S    
C57   O21   S    
Cr3   O18   S    
C59   H31   S    
C28   C49   A    
C2    C25   S    
C42   C47   A    
C47   H3    S    
C37   C41   A    
C26   O17   A    
C62   H40   S    
Cr6   O16   S    
C63   C64   S    
C40   C44   A    
Cr6   O19   S    
C31   C45   A    
C22   O14   A    
C61   H36   S    
C14   C15   S    
C54   H20   S    
C33   C38   A    
C32   C56   A    
C15   O20   S    
C11   C12   S    
C29   C52   A    
