data_mof_unit_28512.cif
_audit_creation_date              2012-12-10T20:39:59-0500
_audit_creation_method            fapswitch 2.2
_symmetry_space_group_name_H-M    P1
_symmetry_Int_Tables_number       1
_space_group_crystal_system       triclinic
_cell_length_a                    23.437058
_cell_length_b                    10.677974
_cell_length_c                    9.850848
_cell_angle_alpha                 89.637836
_cell_angle_beta                  90.049528
_cell_angle_gamma                 90.095756
_cell_volume                      2465.22254519

loop_
_atom_site_label
_atom_site_type_symbol
_atom_type_description
_atom_site_fract_x
_atom_site_fract_y
_atom_site_fract_z
_atom_type_partial_charge
C1    C     C_R   0.501950 0.259806 0.500262 0.889184
C2    C     C_R   0.971826 0.269628 0.456573 -0.020217
C3    C     C_R   0.031334 0.273423 0.456810 -0.201227
C4    C     C_R   0.060571 0.385904 0.478625 -0.026526
C5    C     C_R   0.029955 0.497016 0.500956 -0.019674
C6    C     C_R   0.059396 0.610448 0.523369 -0.013818
C7    C     C_R   0.028855 0.721167 0.545481 -0.158709
C8    C     C_R   0.969607 0.719676 0.545451 -0.152015
C9    C     C_R   0.120175 0.390160 0.478908 0.511075
C10   C     C_R   0.118976 0.610036 0.522832 0.503810
C11   C     C_R   0.237701 0.499120 0.377282 -0.100013
C12   C     C_R   0.389284 0.500615 0.500011 0.876716
C13   C     C_R   0.296912 0.499272 0.376898 -0.213877
C14   C     C_R   0.327032 0.502287 0.500099 -0.041181
C15   C     C_R   0.297151 0.507163 0.623461 -0.219742
C16   C     C_R   0.237935 0.507376 0.623469 -0.100514
C17   C     C_R   0.208365 0.502793 0.500490 0.323424
C18   C     C_R   0.762129 0.490948 0.377580 -0.097595
C19   C     C_R   0.702915 0.492500 0.377103 -0.213581
C20   C     C_R   0.672931 0.499050 0.500211 -0.039063
C21   C     C_R   0.702897 0.504173 0.623572 -0.212072
C22   C     C_R   0.762106 0.502834 0.623615 -0.098805
C23   C     C_R   0.502112 0.740058 0.499604 0.887948
C24   C     C_R   0.791578 0.496156 0.500732 0.324076
C25   C     C_R   0.514924 0.062716 0.622512 0.146071
C26   C     C_R   0.511802 0.128462 0.500260 -0.107224
C27   C     C_R   0.520407 0.065544 0.377222 -0.213934
C28   C     C_R   0.520553 0.936035 0.376758 -0.213707
C29   C     C_R   0.512103 0.871214 0.499321 -0.107848
C30   C     C_R   0.515056 0.934898 0.621950 0.138176
C31   C     C_3   0.477704 0.925786 0.744451 -0.463125
C32   C     C_3   0.477456 0.067589 0.745035 -0.499451
C33   C     C_R   0.450933 0.476222 0.071453 0.218372
C34   C     C_R   0.610706 0.499966 0.500025 0.873683
C35   C     C_R   0.547125 0.534930 0.071801 -0.137532
C36   C     C_R   0.547141 0.534847 0.927828 -0.133897
C37   C     C_R   0.450829 0.476919 0.928788 0.216602
C38   C     C_3   0.415843 0.360461 0.923753 -0.511182
C39   C     C_3   0.416389 0.359083 0.077764 -0.496632
C40   C     C_R   0.880452 0.605128 0.522694 0.506071
C41   C     C_R   0.880038 0.384883 0.479327 0.500588
C42   C     C_R   0.940183 0.381221 0.478505 -0.060299
C43   C     C_R   0.969915 0.495012 0.500879 -0.029648
C44   C     C_R   0.939849 0.607462 0.523276 -0.010264
H1    H     H_    0.680745 0.488330 0.280724 0.155778
H2    H     H_    0.680721 0.509309 0.719776 0.154661
H3    H     H_    0.785185 0.506835 0.718783 0.138084
H4    H     H_    0.522701 0.115108 0.281070 0.171498
H5    H     H_    0.522893 0.887906 0.280441 0.173404
H6    H     H_    0.435192 0.884229 0.722105 0.210373
H7    H     H_    0.500391 0.884114 0.832972 0.206915
H8    H     H_    0.434754 0.108140 0.722763 0.207387
H9    H     H_    0.500069 0.107454 0.834131 0.205422
H10   H     H_    0.585442 0.561342 0.125741 0.150475
H11   H     H_    0.054870 0.187537 0.439808 0.193572
H12   H     H_    0.585468 0.561150 0.873675 0.149977
H13   H     H_    0.372774 0.377257 0.880274 0.200784
H14   H     H_    0.439370 0.281266 0.878613 0.214313
H15   H     H_    0.373554 0.374594 0.122547 0.200280
H16   H     H_    0.440465 0.278901 0.121922 0.215545
H17   H     H_    0.050583 0.809256 0.562816 0.194497
H18   H     H_    0.947225 0.806762 0.562898 0.200626
H19   H     H_    0.214520 0.496125 0.282205 0.137316
H20   H     H_    0.318944 0.496973 0.280510 0.153163
H21   H     H_    0.319383 0.510935 0.719685 0.154393
H22   H     H_    0.214939 0.510476 0.718692 0.137699
H23   H     H_    0.785231 0.486011 0.282606 0.138372
N1    N     N_R   0.852244 0.495334 0.500965 -0.359588
N2    N     N_R   0.147743 0.500999 0.500741 -0.361375
N3    N     N_R   0.499610 0.499140 0.142800 -0.108974
N4    N     N_R   0.499610 0.499180 0.857150 -0.107904
O1    O     O_R   0.500010 0.316790 0.614690 -0.613804
O2    O     O_2   0.849120 0.279931 0.459447 -0.540489
O3    O     O_2   0.150511 0.284631 0.458199 -0.548129
O4    O     O_2   0.148088 0.717445 0.543502 -0.547717
O5    O     O_R   0.500000 0.316760 0.385350 -0.622482
O6    O     O_R   0.416160 0.499980 0.614700 -0.621660
O7    O     O_R   0.416150 0.499940 0.385360 -0.618248
O8    O     O_R   0.500000 0.683240 0.614650 -0.616605
O9    O     O_R   0.499990 0.683210 0.385310 -0.620263
O10   O     O_R   0.583850 0.500060 0.614640 -0.628259
O11   O     O_R   0.583840 0.500020 0.385300 -0.629074
O12   O     O_2   0.850820 0.711728 0.542946 -0.543706
Zn1   Zn    Zn3+2 0.500000 0.500020 0.653130 0.949100
Zn2   Zn    Zn3+2 0.500000 0.499980 0.346870 0.949365
C45   C     C_1   0.945574 0.148975 0.433422 0.278049
N5    N     N_1   0.924813 0.052142 0.414849 -0.155193

loop_
_geom_bond_atom_site_label_1
_geom_bond_atom_site_label_2
_ccdc_geom_bond_type
C27   H4    S    
C17   N2    S    
C41   C42   A    
C19   C20   A    
C7    C8    A    
C26   C27   A    
C37   C38   S    
C18   C24   A    
C23   C29   S    
C28   C29   A    
C9    N2    A    
C21   H2    S    
C11   H19   S    
O8    Zn1   S    
C15   C16   A    
C15   H21   S    
C18   C19   A    
C28   H5    S    
C32   H8    S    
C38   H14   S    
C3    H11   S    
C7    H17   S    
C35   C36   A    
C35   N3    A    
C16   C17   A    
C12   O7    A    
C34   O10   A    
C23   O9    A    
C29   C30   A    
C36   N4    A    
C20   C34   S    
C25   C32   S    
C22   H3    S    
C5    C43   A    
C13   C14   A    
C35   H10   S    
C40   O12   S    
C41   N1    A    
C38   C39   S    
C1    O1    A    
C45   N5    T    
O6    Zn1   S    
C25   C26   A    
C33   C37   A    
C43   C44   A    
O9    Zn2   S    
C36   H12   S    
C38   H13   S    
C10   O4    S    
C31   C32   S    
C30   C31   S    
C39   H15   S    
C12   O6    A    
C33   C39   S    
O1    Zn1   S    
C33   N3    A    
O7    Zn2   S    
C12   C14   S    
C37   N4    A    
C1    C26   S    
C22   C24   A    
C16   H22   S    
C42   C43   A    
C31   H6    S    
C3    C4    A    
C32   H9    S    
O10   Zn1   S    
N4    Zn1   S    
C25   C30   A    
C11   C17   A    
C1    O5    A    
C8    C44   A    
C31   H7    S    
C4    C5    A    
C6    C10   A    
C19   H1    S    
C6    C7    A    
O11   Zn2   S    
C2    C3    A    
C18   H23   S    
C11   C13   A    
C5    C6    A    
C13   H20   S    
C2    C42   A    
C39   H16   S    
C2    C45   S    
C24   N1    S    
C41   O2    S    
C9    O3    S    
C10   N2    A    
C40   C44   A    
C20   C21   A    
C40   N1    A    
C27   C28   A    
C14   C15   A    
C34   O11   A    
C23   O8    A    
C4    C9    A    
C21   C22   A    
N3    Zn2   S    
O5    Zn2   S    
C8    H18   S    
