data_mof_unit_42444.cif
_audit_creation_date              2012-12-10T20:00:04-0500
_audit_creation_method            fapswitch 2.2
_symmetry_space_group_name_H-M    P1
_symmetry_Int_Tables_number       1
_space_group_crystal_system       triclinic
_cell_length_a                    15.018624
_cell_length_b                    14.180558
_cell_length_c                    8.943041
_cell_angle_alpha                 90.10951
_cell_angle_beta                  90.040015
_cell_angle_gamma                 90.004259
_cell_volume                      1904.61757073

loop_
_atom_site_label
_atom_site_type_symbol
_atom_type_description
_atom_site_fract_x
_atom_site_fract_y
_atom_site_fract_z
_atom_type_partial_charge
C1    C     C_R   0.328185 0.500009 0.500023 0.922893
C2    C     C_R   0.428285 0.894711 0.439973 -0.272301
C3    C     C_R   0.499959 0.499941 0.218493 0.932757
C4    C     C_R   0.500012 0.500053 0.781507 0.932335
C5    C     C_R   0.500068 0.053386 0.499922 0.136979
C6    C     C_R   0.500058 0.946658 0.499923 0.134496
C7    C     C_1   0.499962 0.499907 0.065287 -0.202018
C8    C     C_1   0.499983 0.500068 0.934712 -0.201900
C9    C     C_R   0.095740 0.560091 0.402697 0.495538
C10   C     C_R   0.906576 0.415149 0.478453 0.478909
C11   C     C_R   0.906252 0.585434 0.526744 0.481667
C12   C     C_R   0.672361 0.500016 0.500202 0.928028
C13   C     C_R   0.096257 0.440985 0.601888 0.492489
C14   C     C_R   0.187730 0.561584 0.406523 -0.316442
C15   C     C_R   0.814474 0.415481 0.481136 -0.320785
C16   C     C_R   0.814174 0.584836 0.522284 -0.320278
C17   C     C_R   0.188198 0.438975 0.596095 -0.308113
C18   C     C_R   0.233189 0.500098 0.500741 -0.162891
C19   C     C_R   0.768376 0.500105 0.501129 -0.168826
C20   C     C_R   0.049465 0.500616 0.502709 -0.114831
C21   C     C_R   0.952780 0.500379 0.502899 -0.103054
C22   C     C_3   0.024555 0.576030 0.179219 0.102752
C23   C     C_R   0.457753 0.204346 0.388585 0.027911
C24   C     C_3   0.965475 0.641708 0.089073 -0.809421
C25   C     C_3   0.962916 0.308127 0.313532 0.073801
C26   C     C_3   0.999048 0.208303 0.300309 -0.767235
C27   C     C_3   0.960682 0.693270 0.692319 0.070611
C28   C     C_3   0.995183 0.793741 0.705676 -0.768428
C29   C     C_3   0.026040 0.425188 0.826133 0.104011
C30   C     C_3   0.966785 0.359761 0.916305 -0.810798
C31   C     C_R   0.570303 0.795629 0.559241 0.027231
C32   C     C_R   0.542323 0.204616 0.611333 0.023200
C33   C     C_R   0.429733 0.795498 0.440698 0.029480
C34   C     C_R   0.457204 0.105129 0.386157 -0.274503
C35   C     C_R   0.571809 0.894842 0.559895 -0.272945
C36   C     C_R   0.542928 0.105405 0.613695 -0.273666
H1    H     H_    0.424479 0.242958 0.300587 0.129774
H2    H     H_    0.629589 0.930360 0.605322 0.136624
H3    H     H_    0.575763 0.070045 0.705546 0.136621
H4    H     H_    0.370525 0.930135 0.394521 0.139004
H5    H     H_    0.984555 0.512282 0.204960 0.107799
H6    H     H_    0.083302 0.555922 0.110420 0.118870
H7    H     H_    0.004439 0.703623 0.050759 0.250264
H8    H     H_    0.938415 0.603604 0.990691 0.174653
H9    H     H_    0.908853 0.666313 0.158845 0.274788
H10   H     H_    0.012570 0.356743 0.263272 0.124606
H11   H     H_    0.899049 0.311725 0.250153 0.132027
H12   H     H_    0.625825 0.757069 0.605996 0.123226
H13   H     H_    0.063648 0.202713 0.360214 0.262812
H14   H     H_    0.009446 0.190067 0.180824 0.197010
H15   H     H_    0.951067 0.157529 0.349601 0.254887
H16   H     H_    0.896392 0.688790 0.754210 0.129309
H17   H     H_    0.010639 0.645634 0.744132 0.126822
H18   H     H_    0.004294 0.812514 0.825275 0.197975
H19   H     H_    0.946847 0.843523 0.654743 0.253090
H20   H     H_    0.060181 0.800272 0.647399 0.263268
H21   H     H_    0.986364 0.489233 0.800738 0.107175
H22   H     H_    0.085053 0.444860 0.894745 0.119232
H23   H     H_    0.575622 0.243438 0.699312 0.130044
H24   H     H_    0.909877 0.335596 0.846665 0.273464
H25   H     H_    0.940149 0.397876 0.014915 0.174410
H26   H     H_    0.005481 0.297556 0.954268 0.250895
H27   H     H_    0.374191 0.756830 0.393965 0.130394
H28   H     H_    0.223659 0.609051 0.333253 0.170460
H29   H     H_    0.779415 0.349328 0.466276 0.190463
H30   H     H_    0.778899 0.650904 0.536479 0.181891
H31   H     H_    0.224485 0.391376 0.668713 0.178028
H32   H     H_    0.424405 0.069547 0.294267 0.136791
N1    N     N_R   0.500000 0.252470 0.500000 -0.095404
N2    N     N_R   0.500000 0.747530 0.500000 -0.094510
O1    O     O_R   0.369060 0.579480 0.500010 -0.629948
O2    O     O_3   0.950677 0.329865 0.465912 -0.552074
O3    O     O_3   0.950102 0.670844 0.539811 -0.552399
O4    O     O_3   0.053074 0.378079 0.694940 -0.550093
O5    O     O_R   0.630940 0.420520 0.499990 -0.626543
O6    O     O_R   0.630940 0.579480 0.499990 -0.635046
O7    O     O_R   0.369060 0.420520 0.500010 -0.619788
O8    O     O_R   0.500000 0.579460 0.285340 -0.615077
O9    O     O_R   0.500000 0.420540 0.714660 -0.627508
O10   O     O_R   0.500000 0.579460 0.714660 -0.614070
O11   O     O_R   0.500000 0.420540 0.285340 -0.627135
O12   O     O_3   0.052093 0.623057 0.310259 -0.551082
Zn1   Zn    Zn3+2 0.500000 0.606140 0.500000 0.945668
Zn2   Zn    Zn3+2 0.500000 0.393860 0.500000 0.941681

loop_
_geom_bond_atom_site_label_1
_geom_bond_atom_site_label_2
_ccdc_geom_bond_type
C1    O7    A    
C14   C18   A    
C4    C8    S    
C28   H20   S    
C7    C8    T    
C15   C19   A    
C1    C18   S    
C1    O1    A    
C5    C6    S    
C24   H9    S    
C32   C36   A    
C4    O10   A    
C3    C7    S    
C10   C15   A    
C26   H14   S    
O9    Zn2   S    
O5    Zn2   S    
C22   H5    S    
C15   H29   S    
C5    C36   A    
C6    C35   A    
C23   N1    A    
O8    Zn1   S    
C31   N2    A    
C30   H24   S    
C3    O11   A    
C25   H11   S    
C9    O12   S    
C2    C6    A    
O10   Zn1   S    
O6    Zn1   S    
C28   H19   S    
O1    Zn1   S    
C10   C21   A    
C17   H31   S    
C35   H2    S    
C4    O9    A    
C11   O3    S    
C26   H13   S    
C34   H32   S    
C28   H18   S    
C29   O4    S    
O7    Zn2   S    
C25   C26   S    
C23   H1    S    
C11   C21   A    
C9    C14   A    
C29   C30   S    
C11   C16   A    
C9    C20   A    
C33   H27   S    
C23   C34   A    
C14   H28   S    
C5    C34   A    
C17   C18   A    
C25   O2    S    
C29   H22   S    
N2    Zn1   S    
C33   N2    A    
C2    C33   A    
C29   H21   S    
C31   H12   S    
C30   H26   S    
C24   H8    S    
C22   C24   S    
C12   O5    A    
C16   H30   S    
C22   O12   S    
O11   Zn2   S    
C27   H16   S    
C13   C20   A    
C36   H3    S    
C27   H17   S    
C32   N1    A    
C13   C17   A    
C12   O6    A    
N1    Zn2   S    
C26   H15   S    
C22   H6    S    
C16   C19   A    
C12   C19   S    
C31   C35   A    
C2    H4    S    
C20   C21   S    
C30   H25   S    
C27   C28   S    
C24   H7    S    
C32   H23   S    
C27   O3    S    
C3    O8    A    
C25   H10   S    
C13   O4    S    
C10   O2    S    
