data_mof_unit_35340.cif
_audit_creation_date              2012-12-11T17:22:09-0500
_audit_creation_method            fapswitch 2.2
_symmetry_space_group_name_H-M    P1
_symmetry_Int_Tables_number       1
_space_group_crystal_system       triclinic
_cell_length_a                    20.715923
_cell_length_b                    7.251273
_cell_length_c                    20.336252
_cell_angle_alpha                 90.000089
_cell_angle_beta                  102.058124
_cell_angle_gamma                 90.000194
_cell_volume                      2987.44537374

loop_
_atom_site_label
_atom_site_type_symbol
_atom_type_description
_atom_site_fract_x
_atom_site_fract_y
_atom_site_fract_z
_atom_type_partial_charge
O1    O     O_R   0.807340 0.614490 0.194100 -0.525070
O2    O     O_R   0.192660 0.385510 0.805900 -0.535005
O3    O     O_R   0.692660 0.114490 0.305900 -0.525069
O4    O     O_R   0.307340 0.885510 0.694100 -0.535006
O5    O     O_R   0.672910 0.282300 0.178070 -0.522977
O6    O     O_R   0.327090 0.717700 0.821930 -0.514916
O7    O     O_R   0.827090 0.782300 0.321930 -0.522978
O8    O     O_R   0.172910 0.217700 0.678070 -0.514915
C1    C     C_R   0.648604 0.451952 0.161454 0.752121
C2    C     C_R   0.351134 0.547671 0.838619 0.725698
C3    C     C_R   0.851396 0.951953 0.338546 0.752120
C4    C     C_R   0.148866 0.047671 0.661380 0.725683
O9    O     O_R   0.805620 0.284620 0.186180 -0.539327
O10   O     O_R   0.194380 0.715380 0.813820 -0.539471
O11   O     O_R   0.694380 0.784620 0.313820 -0.539328
O12   O     O_R   0.305620 0.215380 0.686180 -0.539470
O13   O     O_R   0.826310 0.116750 0.314070 -0.545520
O14   O     O_R   0.173690 0.883250 0.685930 -0.535302
O15   O     O_R   0.673690 0.616750 0.185930 -0.545520
O16   O     O_R   0.326310 0.383250 0.814070 -0.535301
C5    C     C_R   0.824517 0.452862 0.171383 0.702478
C6    C     C_R   0.175209 0.547162 0.828400 0.736162
C7    C     C_R   0.675482 0.952862 0.328616 0.702478
C8    C     C_R   0.324790 0.047163 0.671599 0.736163
O17   O     O_3   0.756630 0.448770 0.291950 -0.378774
O18   O     O_3   0.243370 0.551230 0.708050 -0.377075
O19   O     O_3   0.743370 0.948770 0.208050 -0.378775
O20   O     O_3   0.256630 0.051230 0.791950 -0.377074
V1    V     V_3+5 0.748770 0.172970 0.242220 1.403672
V2    V     V_3+5 0.251230 0.827030 0.757780 1.424156
V3    V     V_3+5 0.751230 0.672970 0.257780 1.403670
V4    V     V_3+5 0.248770 0.327030 0.742220 1.424159
C9    C     C_R   0.465268 0.164868 0.502724 -0.233705
C10   C     C_R   0.527814 0.830908 0.489585 -0.223817
C11   C     C_R   0.034731 0.664868 0.997276 -0.233706
C12   C     C_R   0.972187 0.330907 0.010416 -0.223816
H1    H     H_    0.440695 0.292201 0.507652 0.139967
H2    H     H_    0.552981 0.702112 0.485397 0.117496
H3    H     H_    0.059305 0.792201 0.992347 0.139967
H4    H     H_    0.947020 0.202111 0.014604 0.117496
C13   C     C_R   0.451949 0.013381 0.540195 0.094540
C14   C     C_R   0.542121 0.984660 0.453073 0.093533
C15   C     C_R   0.048051 0.513381 0.959805 0.094541
C16   C     C_R   0.957879 0.484660 0.046927 0.093533
C17   C     C_R   0.481183 0.842327 0.531168 0.102804
C18   C     C_R   0.508926 0.152685 0.458231 0.094938
C19   C     C_R   0.018817 0.342326 0.968832 0.102804
C20   C     C_R   0.991074 0.652685 0.041769 0.094936
C21   C     C_1   0.407117 0.032362 0.586744 -0.055467
C22   C     C_1   0.590348 0.968527 0.410311 -0.056056
C23   C     C_1   0.092882 0.532361 0.913256 -0.055471
C24   C     C_1   0.909652 0.468527 0.089690 -0.056057
C25   C     C_1   0.629647 0.960265 0.373611 -0.178155
C26   C     C_1   0.369595 0.039761 0.625430 -0.199290
C27   C     C_1   0.870354 0.460266 0.126389 -0.178158
C28   C     C_1   0.130404 0.539761 0.874570 -0.199295
C29   C     C_R   0.912818 0.951575 0.392445 -0.215976
C30   C     C_R   0.086244 0.044092 0.609556 -0.227922
C31   C     C_R   0.587181 0.451573 0.107555 -0.215980
C32   C     C_R   0.413755 0.544095 0.890446 -0.227921
C33   C     C_R   0.978165 0.176029 0.559273 0.398531
C34   C     C_R   0.016623 0.801538 0.447140 0.420749
C35   C     C_R   0.521833 0.676035 0.940730 0.398519
C36   C     C_R   0.483376 0.301536 0.052860 0.420750
C37   C     C_R   0.034098 0.168280 0.612529 0.385935
C38   C     C_R   0.962145 0.816658 0.392079 0.368457
C39   C     C_R   0.465900 0.668288 0.887475 0.385953
C40   C     C_R   0.537855 0.316654 0.107921 0.368459
C41   C     C_R   0.079844 0.923645 0.554613 -0.252962
C42   C     C_R   0.919134 0.071662 0.447563 -0.291711
C43   C     C_R   0.420154 0.423647 0.945388 -0.252965
C44   C     C_R   0.580866 0.571661 0.052438 -0.291704
C45   C     C_R   0.023177 0.925797 0.501933 -0.054840
C46   C     C_R   0.973180 0.058354 0.502887 -0.074881
C47   C     C_R   0.476821 0.425798 0.998069 -0.054839
C48   C     C_R   0.526818 0.558356 0.997116 -0.074886
H5    H     H_    0.880720 0.172924 0.447704 0.181263
H6    H     H_    0.120899 0.833632 0.551967 0.179828
H7    H     H_    0.619280 0.672921 0.052296 0.181269
H8    H     H_    0.379099 0.333631 0.948033 0.179827
C49   C     C_3   0.520325 0.321532 0.418312 -0.387815
C50   C     C_3   0.487464 0.302954 0.343643 -0.276205
C51   C     C_3   0.502093 0.470929 0.303858 -0.706265
H9    H     H_    0.484130 0.598818 0.324242 0.216740
H10   H     H_    0.556035 0.482910 0.306378 0.230878
H11   H     H_    0.476720 0.456011 0.250352 0.239235
H12   H     H_    0.505414 0.177890 0.321559 0.215893
H13   H     H_    0.433156 0.290087 0.338492 0.193747
H14   H     H_    0.499138 0.444898 0.438186 0.169114
H15   H     H_    0.574236 0.345864 0.424344 0.181859
C52   C     C_3   0.461758 0.672479 0.565135 -0.370866
C53   C     C_3   0.389068 0.620507 0.536061 -0.311282
C54   C     C_3   0.360959 0.504362 0.585877 -0.715561
H16   H     H_    0.397294 0.399132 0.609140 0.226861
H17   H     H_    0.349883 0.593408 0.626515 0.232181
H18   H     H_    0.314715 0.435731 0.559916 0.218059
H19   H     H_    0.356825 0.742937 0.523528 0.208404
H20   H     H_    0.385266 0.546186 0.487765 0.181378
H21   H     H_    0.494198 0.554376 0.559267 0.154937
H22   H     H_    0.469460 0.700112 0.620000 0.173593
C55   C     C_3   0.979675 0.821532 0.081687 -0.387808
C56   C     C_3   0.012536 0.802954 0.156358 -0.276201
C57   C     C_3   0.997909 0.970931 0.196142 -0.706259
H23   H     H_    0.015873 0.098819 0.175759 0.216738
H24   H     H_    0.943967 0.982914 0.193622 0.230877
H25   H     H_    0.023282 0.956012 0.249649 0.239237
H26   H     H_    0.994585 0.677891 0.178442 0.215891
H27   H     H_    0.066845 0.790084 0.161508 0.193745
H28   H     H_    0.000863 0.944899 0.061814 0.169112
H29   H     H_    0.925764 0.845863 0.075655 0.181855
C58   C     C_3   0.038243 0.172478 0.934867 -0.370864
C59   C     C_3   0.110932 0.120509 0.963940 -0.311282
C60   C     C_3   0.139042 0.004366 0.914125 -0.715564
H30   H     H_    0.102708 0.899130 0.890863 0.226861
H31   H     H_    0.150116 0.093410 0.873485 0.232182
H32   H     H_    0.185287 0.935739 0.940085 0.218060
H33   H     H_    0.143175 0.242942 0.976473 0.208404
H34   H     H_    0.114735 0.046190 0.012237 0.181379
H35   H     H_    0.005803 0.054374 0.940735 0.154936
H36   H     H_    0.030541 0.200108 0.880001 0.173590
O21   O     O_3   0.960600 0.715462 0.333845 -0.555398
C61   C     C_3   0.944607 0.529315 0.343366 -0.113499
H37   H     H_    0.912980 0.509573 0.380996 0.108663
H38   H     H_    0.990278 0.445807 0.356864 0.150640
H39   H     H_    0.916670 0.474392 0.294916 0.134216
O22   O     O_3   0.038592 0.293604 0.664742 -0.532200
C62   C     C_3   0.030394 0.201202 0.723668 -0.214598
H40   H     H_    0.993292 0.087802 0.713760 0.096108
H41   H     H_    0.012879 0.302595 0.756871 0.151309
H42   H     H_    0.078208 0.146119 0.751732 0.133428
O23   O     O_3   0.539401 0.215452 0.166154 -0.555397
C63   C     C_3   0.555395 0.029307 0.156630 -0.113499
H43   H     H_    0.587017 0.009569 0.118996 0.108660
H44   H     H_    0.509724 0.945795 0.143135 0.150636
H45   H     H_    0.583336 0.974385 0.205077 0.134224
O24   O     O_3   0.461406 0.793613 0.835263 -0.532197
C64   C     C_3   0.469611 0.701215 0.776337 -0.214727
H46   H     H_    0.506685 0.587764 0.786243 0.096114
H47   H     H_    0.487160 0.802578 0.743156 0.151318
H48   H     H_    0.421798 0.646219 0.748254 0.133484
O25   O     O_3   0.931087 0.310913 0.560188 -0.546114
C65   C     C_3   0.880237 0.236261 0.588550 -0.236918
H49   H     H_    0.897651 0.211058 0.643200 0.146903
H50   H     H_    0.859479 0.107150 0.562878 0.120702
H51   H     H_    0.839489 0.338131 0.582626 0.157106
O26   O     O_3   0.065262 0.672247 0.444438 -0.548948
C66   C     C_3   0.056951 0.519348 0.485133 -0.241928
H52   H     H_    0.085233 0.401123 0.471033 0.159297
H53   H     H_    0.004563 0.475114 0.478091 0.146301
H54   H     H_    0.076488 0.547977 0.539189 0.165953
O27   O     O_3   0.568912 0.810920 0.939818 -0.546118
C67   C     C_3   0.619758 0.736276 0.911448 -0.236909
H55   H     H_    0.602349 0.711218 0.856784 0.146951
H56   H     H_    0.640485 0.607073 0.937083 0.120690
H57   H     H_    0.660531 0.838097 0.917419 0.157086
O28   O     O_3   0.434737 0.172245 0.055562 -0.548947
C68   C     C_3   0.443046 0.019348 0.014866 -0.241923
H58   H     H_    0.414765 0.901122 0.028966 0.159296
H59   H     H_    0.495434 0.975114 0.021906 0.146305
H60   H     H_    0.423508 0.047979 0.960811 0.165951

loop_
_geom_bond_atom_site_label_1
_geom_bond_atom_site_label_2
_ccdc_geom_bond_type
O17   V3    S    
C43   C47   A    
O18   V4    S    
C55   C56   S    
O19   V1    S    
O13   V1    S    
C45   C46   A    
O12   C8    A    
O3    C7    A    
C58   C59   S    
C10   C14   A    
C29   C38   A    
C44   C48   A    
O15   V3    S    
C49   C50   S    
C53   H20   S    
O1    C5    A    
C64   H47   S    
O5    C1    A    
C54   H16   S    
C36   C40   A    
C58   H35   S    
O28   C68   S    
C66   H53   S    
O26   C66   S    
C44   H7    S    
C63   H45   S    
C59   H33   S    
O4    C8    A    
C19   C58   S    
C35   C48   A    
C20   C55   S    
C8    C26   S    
C21   C26   T    
O1    V3    S    
C12   C19   A    
O2    V4    S    
C23   C28   T    
C14   C18   A    
O3    V1    S    
C59   C60   S    
C1    O15   A    
C68   H58   S    
C66   H52   S    
C32   C39   A    
C2    O16   A    
C63   H43   S    
O2    C6    A    
O27   C67   S    
C34   C45   A    
C56   H27   S    
O14   V2    S    
C52   H22   S    
C11   C15   A    
C24   C27   T    
C31   C44   A    
C60   H32   S    
C49   H14   S    
C16   C24   S    
O11   C7    A    
C68   H59   S    
C42   H5    S    
C9    C18   A    
C65   H51   S    
C41   H6    S    
O10   V2    S    
C11   C20   A    
C13   C21   S    
C43   H8    S    
C53   H19   S    
C7    C25   S    
O5    V1    S    
C64   H48   S    
C35   C39   A    
C22   C25   T    
O7    V3    S    
C34   C38   A    
O8    V4    S    
C12   H4    S    
C66   H54   S    
C52   C53   S    
C5    C27   S    
C6    C28   S    
C32   C43   A    
C55   H29   S    
C9    H1    S    
C58   H36   S    
C1    C31   S    
C40   O23   S    
O7    C3    A    
C47   C48   A    
C62   H41   S    
C42   C46   A    
C31   C40   A    
C18   C49   S    
C30   C37   A    
C51   H9    S    
C67   H57   S    
O8    C4    A    
C38   O21   S    
O9    C5    A    
C56   H26   S    
C57   H24   S    
C10   C17   A    
C41   C45   A    
C35   O27   S    
O21   C61   S    
C14   C22   S    
C49   H15   S    
C33   O25   S    
C51   H10   S    
C67   H56   S    
C54   H18   S    
C68   H60   S    
C29   C42   A    
C65   H50   S    
C12   C16   A    
C61   H38   S    
O23   C63   S    
C60   H30   S    
O16   V4    S    
O9    V1    S    
C2    C32   S    
C3    O13   A    
O6    V2    S    
C10   H2    S    
O24   C64   S    
O6    C2    A    
C30   C41   A    
O11   V3    S    
C62   H40   S    
C33   C46   A    
O12   V4    S    
C64   H46   S    
C36   O28   S    
C9    C13   A    
C37   O22   S    
O10   C6    A    
C61   H39   S    
O20   V2    S    
C39   O24   S    
C62   H42   S    
C4    C30   S    
C16   C20   A    
O25   C65   S    
C59   H34   S    
C15   C23   S    
C54   H17   S    
C15   C19   A    
O22   C62   S    
C50   H13   S    
C11   H3    S    
C53   C54   S    
C36   C47   A    
C57   H25   S    
C56   C57   S    
C17   C52   S    
C33   C37   A    
C51   H11   S    
C67   H55   S    
C63   H44   S    
C50   C51   S    
C34   O26   S    
C4    O14   A    
C57   H23   S    
C13   C17   A    
C65   H49   S    
C52   H21   S    
C61   H37   S    
C3    C29   S    
C55   H28   S    
O4    V2    S    
C50   H12   S    
C60   H31   S    
