data_mof_unit_11683.cif
_audit_creation_date              2012-12-10T18:28:09-0500
_audit_creation_method            fapswitch 2.2
_symmetry_space_group_name_H-M    P1
_symmetry_Int_Tables_number       1
_space_group_crystal_system       triclinic
_cell_length_a                    23.538199
_cell_length_b                    20.087248
_cell_length_c                    14.911062
_cell_angle_alpha                 90.45575
_cell_angle_beta                  100.496628
_cell_angle_gamma                 89.360109
_cell_volume                      6931.67432602

loop_
_atom_site_label
_atom_site_type_symbol
_atom_type_description
_atom_site_fract_x
_atom_site_fract_y
_atom_site_fract_z
_atom_type_partial_charge
C1    C     C_R   0.574996 0.088037 0.554836 0.890953
C2    C     C_R   0.423702 0.913943 0.444157 0.874883
C3    C     C_R   0.426235 0.089572 0.446956 0.873699
C4    C     C_R   0.574224 0.910941 0.553680 0.870774
C5    C     C_R   0.074997 0.588035 0.554836 0.890961
C6    C     C_R   0.923705 0.413937 0.444159 0.874874
C7    C     C_R   0.926236 0.589573 0.446957 0.873729
C8    C     C_R   0.074224 0.410941 0.553680 0.870767
C9    C     C_R   0.237546 0.203915 0.660024 -0.224807
C10   C     C_R   0.815173 0.840108 0.425979 -0.226169
C11   C     C_R   0.719551 0.268381 0.324919 -0.235920
C12   C     C_R   0.257062 0.768790 0.670351 -0.231678
C13   C     C_R   0.737544 0.703913 0.660019 -0.224812
C14   C     C_R   0.315166 0.340101 0.425968 -0.226170
C15   C     C_R   0.219525 0.768426 0.324921 -0.235909
C16   C     C_R   0.757030 0.268831 0.670346 -0.231688
C17   C     C_R   0.630356 0.009717 0.208763 0.399295
C18   C     C_R   0.371496 0.011233 0.793988 0.379493
C19   C     C_R   0.130358 0.509708 0.208767 0.399299
C20   C     C_R   0.871499 0.511252 0.793992 0.379499
C21   C     C_R   0.607015 0.002227 0.288586 -0.139432
C22   C     C_R   0.393174 0.003510 0.713328 -0.124903
C23   C     C_R   0.107015 0.502221 0.288588 -0.139424
C24   C     C_R   0.893175 0.503521 0.713331 -0.124901
C25   C     C_R   0.510868 0.006297 0.206595 -0.096723
C26   C     C_R   0.490112 0.005427 0.792564 -0.094659
C27   C     C_R   0.010869 0.506305 0.206595 -0.096772
C28   C     C_R   0.990114 0.505422 0.792564 -0.094660
C29   C     C_R   0.530102 0.015992 0.124559 -0.073470
C30   C     C_R   0.472115 0.015440 0.875829 -0.075398
C31   C     C_R   0.030107 0.515998 0.124560 -0.073464
C32   C     C_R   0.972119 0.515443 0.875830 -0.075408
C33   C     C_R   0.590696 0.015769 0.125916 0.076003
C34   C     C_R   0.411607 0.018692 0.875696 0.070595
C35   C     C_R   0.090700 0.515763 0.125918 0.076001
C36   C     C_R   0.911613 0.518709 0.875698 0.070610
C37   C     C_R   0.490849 0.023112 0.041437 0.119449
C38   C     C_R   0.512102 0.020672 0.958664 0.120698
C39   C     C_R   0.990857 0.523124 0.041438 0.119484
C40   C     C_R   0.012108 0.520672 0.958664 0.120687
C41   C     C_R   0.572450 0.022767 0.961717 -0.275042
C42   C     C_R   0.430995 0.032143 0.038611 -0.266482
C43   C     C_R   0.072456 0.522750 0.961717 -0.275049
C44   C     C_R   0.931006 0.532175 0.038612 -0.266482
C45   C     C_R   0.610814 0.021422 0.043884 -0.162458
C46   C     C_R   0.392108 0.029586 0.957308 -0.162771
C47   C     C_R   0.110819 0.521405 0.043886 -0.162457
C48   C     C_R   0.892117 0.529620 0.957309 -0.162792
C49   C     C_R   0.616294 0.858557 0.588449 -0.175868
C50   C     C_R   0.391382 0.149817 0.421342 -0.149584
C51   C     C_R   0.375887 0.869978 0.405491 -0.170382
C52   C     C_R   0.617167 0.140182 0.589354 -0.149555
C53   C     C_R   0.116295 0.358557 0.588449 -0.175870
C54   C     C_R   0.891389 0.649823 0.421349 -0.149581
C55   C     C_R   0.875902 0.369955 0.405499 -0.170400
C56   C     C_R   0.117175 0.640173 0.589357 -0.149554
C57   C     C_R   0.649366 0.762248 0.683326 0.184765
C58   C     C_R   0.380641 0.263440 0.363483 0.140846
C59   C     C_R   0.297519 0.834705 0.284726 0.183675
C60   C     C_R   0.675626 0.206411 0.709376 0.141961
C61   C     C_R   0.149369 0.262252 0.683334 0.184774
C62   C     C_R   0.880659 0.763452 0.363508 0.140856
C63   C     C_R   0.797564 0.334627 0.284724 0.183676
C64   C     C_R   0.175658 0.706374 0.709387 0.141950
C65   C     C_R   0.607673 0.812255 0.655941 0.175690
C66   C     C_R   0.407880 0.200290 0.365939 0.173534
C67   C     C_R   0.347926 0.871570 0.312873 0.179378
C68   C     C_R   0.629447 0.162054 0.681407 0.173033
C69   C     C_R   0.107675 0.312257 0.655946 0.175682
C70   C     C_R   0.907898 0.700302 0.365965 0.173520
C71   C     C_R   0.847966 0.371498 0.312870 0.179398
C72   C     C_R   0.129471 0.662027 0.681417 0.173025
C73   C     C_R   0.666539 0.855650 0.552084 -0.306623
C74   C     C_R   0.347121 0.161722 0.469289 -0.313586
C75   C     C_R   0.352634 0.832478 0.467529 -0.312756
C76   C     C_R   0.646888 0.167340 0.526368 -0.327684
C77   C     C_R   0.166538 0.355649 0.552082 -0.306626
C78   C     C_R   0.847124 0.661726 0.469287 -0.313579
C79   C     C_R   0.852635 0.332480 0.467545 -0.312773
C80   C     C_R   0.146887 0.667340 0.526366 -0.327678
C81   C     C_R   0.708165 0.805911 0.577050 0.063803
C82   C     C_R   0.325188 0.225676 0.477576 0.060497
C83   C     C_R   0.298161 0.803894 0.443925 0.064308
C84   C     C_R   0.689713 0.214521 0.550870 0.058548
C85   C     C_R   0.208165 0.305912 0.577052 0.063801
C86   C     C_R   0.825192 0.725680 0.477580 0.060496
C87   C     C_R   0.798167 0.303884 0.443933 0.064302
C88   C     C_R   0.189722 0.714511 0.550872 0.058537
C89   C     C_R   0.698811 0.757616 0.641828 0.046230
C90   C     C_R   0.340372 0.276883 0.421681 0.078978
C91   C     C_R   0.271772 0.801732 0.350384 0.051742
C92   C     C_R   0.707566 0.230240 0.644370 0.086785
C93   C     C_R   0.198813 0.257618 0.641833 0.046228
C94   C     C_R   0.840381 0.776891 0.421694 0.078967
C95   C     C_R   0.771798 0.301688 0.350386 0.051768
C96   C     C_R   0.207591 0.730210 0.644376 0.086786
C97   C     C_R   0.756017 0.799535 0.531966 0.106655
C98   C     C_R   0.287301 0.239005 0.539184 0.098134
C99   C     C_R   0.268873 0.778803 0.511554 0.095301
C100  C     C_R   0.716973 0.243603 0.483840 0.102162
C101  C     C_R   0.256016 0.299533 0.531966 0.106658
C102  C     C_R   0.787302 0.739006 0.539183 0.098130
C103  C     C_R   0.768866 0.278811 0.511558 0.095314
C104  C     C_R   0.216974 0.743603 0.483840 0.102158
C105  C     C_R   0.280305 0.194056 0.608572 -0.227737
C106  C     C_R   0.772969 0.850921 0.478619 -0.239849
C107  C     C_R   0.692562 0.240305 0.390017 -0.237080
C108  C     C_R   0.287863 0.791236 0.605769 -0.251233
C109  C     C_R   0.780304 0.694055 0.608568 -0.227732
C110  C     C_R   0.272967 0.350917 0.478614 -0.239860
C111  C     C_R   0.192550 0.740326 0.390020 -0.237066
C112  C     C_R   0.787840 0.291266 0.605770 -0.251238
H1    H     H_    0.233534 0.166685 0.710370 0.167446
H2    H     H_    0.826806 0.881704 0.387713 0.146555
H3    H     H_    0.698256 0.264113 0.254518 0.156249
H4    H     H_    0.273390 0.781164 0.740951 0.151158
H5    H     H_    0.733532 0.666682 0.710364 0.167444
H6    H     H_    0.326798 0.381695 0.387697 0.146553
H7    H     H_    0.198219 0.764176 0.254522 0.156245
H8    H     H_    0.773346 0.281222 0.740944 0.151165
H9    H     H_    0.591771 0.026289 0.901852 0.139493
H10   H     H_    0.412932 0.042555 0.098331 0.134917
H11   H     H_    0.091777 0.526259 0.901852 0.139494
H12   H     H_    0.912948 0.542603 0.098332 0.134871
H13   H     H_    0.331883 0.120062 0.503353 0.163963
H14   H     H_    0.670782 0.890926 0.499630 0.168035
H15   H     H_    0.638326 0.148199 0.457739 0.182563
H16   H     H_    0.377368 0.828170 0.535644 0.167088
H17   H     H_    0.831881 0.620065 0.503342 0.163959
H18   H     H_    0.170779 0.390921 0.499623 0.168039
H19   H     H_    0.138311 0.648215 0.457730 0.182561
H20   H     H_    0.877354 0.328199 0.535671 0.167115
H21   H     H_    0.308226 0.151261 0.625758 0.156173
H22   H     H_    0.755605 0.900825 0.478841 0.139409
H23   H     H_    0.650628 0.219434 0.364661 0.146051
H24   H     H_    0.324687 0.821644 0.631843 0.143988
H25   H     H_    0.808226 0.651261 0.625753 0.156180
H26   H     H_    0.255605 0.400822 0.478838 0.139414
H27   H     H_    0.150614 0.719459 0.364668 0.146045
H28   H     H_    0.824658 0.321683 0.631846 0.143982
H29   H     H_    0.656609 0.022829 0.042241 0.191955
H30   H     H_    0.346483 0.035102 0.959120 0.189372
H31   H     H_    0.156614 0.522801 0.042244 0.191954
H32   H     H_    0.846494 0.535149 0.959120 0.189360
H33   H     H_    0.534583 0.002957 0.784955 0.150557
H34   H     H_    0.466078 0.003532 0.212023 0.143110
H35   H     H_    0.034584 0.502946 0.784953 0.150561
H36   H     H_    0.966078 0.503547 0.212018 0.143158
H37   H     H_    0.364513 0.002174 0.647893 0.148155
H38   H     H_    0.633531 0.999742 0.355548 0.149928
H39   H     H_    0.864511 0.502188 0.647897 0.148150
H40   H     H_    0.133529 0.499731 0.355551 0.149936
N1    N     N_R   0.549130 0.000000 0.284090 -0.112353
N2    N     N_R   0.450870 1.000000 0.715910 -0.116494
N3    N     N_R   0.049130 0.500000 0.284090 -0.112356
N4    N     N_R   0.950870 0.500000 0.715910 -0.116493
O1    O     O_R   0.541320 0.066090 0.608930 -0.580543
O2    O     O_R   0.458680 0.933910 0.391070 -0.615470
O3    O     O_R   0.458680 0.066090 0.391070 -0.582093
O4    O     O_R   0.541320 0.933910 0.608930 -0.610217
O5    O     O_R   0.041320 0.566090 0.608930 -0.580542
O6    O     O_R   0.958680 0.433910 0.391070 -0.615479
O7    O     O_R   0.958680 0.566090 0.391070 -0.582138
O8    O     O_R   0.041320 0.433910 0.608930 -0.610217
O9    O     O_R   0.572880 0.066110 0.470280 -0.618653
O10   O     O_R   0.427120 0.933890 0.529720 -0.616088
O11   O     O_R   0.427120 0.066110 0.529720 -0.613956
O12   O     O_R   0.572880 0.933890 0.470280 -0.608086
O13   O     O_R   0.072880 0.566110 0.470280 -0.618645
O14   O     O_R   0.927120 0.433890 0.529720 -0.616085
O15   O     O_R   0.927120 0.566110 0.529720 -0.613944
O16   O     O_R   0.072880 0.433890 0.470280 -0.608093
Zn1   Zn    Zn3+2 0.478910 1.000000 0.592580 0.929933
Zn2   Zn    Zn3+2 0.521090 0.000000 0.407420 0.934730
Zn3   Zn    Zn3+2 0.978910 0.500000 0.592580 0.929940
Zn4   Zn    Zn3+2 0.021090 0.500000 0.407420 0.934706
N5    N     N_2   0.454961 0.189601 0.319303 -0.279912
H41   H     H_    0.481817 0.229914 0.320149 0.231935
C113  C     C_3   0.439336 0.160294 0.229418 -0.719920
H42   H     H_    0.479159 0.145030 0.204396 0.234266
H43   H     H_    0.412059 0.115776 0.231300 0.233859
H44   H     H_    0.415622 0.196906 0.180920 0.232086
N6    N     N_2   0.555853 0.811943 0.692782 -0.290321
H45   H     H_    0.518311 0.823575 0.648163 0.230267
C114  C     C_3   0.560546 0.842030 0.782297 -0.697619
H46   H     H_    0.517860 0.841313 0.803998 0.223842
H47   H     H_    0.591967 0.813918 0.833030 0.246360
H48   H     H_    0.575052 0.894317 0.781161 0.229713
N7    N     N_2   0.598212 0.136406 0.746787 -0.292366
H49   H     H_    0.622937 0.127364 0.810111 0.231485
C115  C     C_3   0.545047 0.171834 0.752413 -0.701165
H50   H     H_    0.517631 0.177371 0.683830 0.246231
H51   H     H_    0.520459 0.143743 0.796211 0.232674
H52   H     H_    0.554403 0.221784 0.783183 0.224611
N8    N     N_2   0.365696 0.914457 0.248009 -0.282366
H53   H     H_    0.408686 0.912356 0.243098 0.242223
C116  C     C_3   0.340396 0.980535 0.245390 -0.758401
H54   H     H_    0.350656 0.008087 0.186557 0.218018
H55   H     H_    0.292589 0.977686 0.236959 0.245659
H56   H     H_    0.357461 0.008178 0.309106 0.227313
N9    N     N_2   0.954993 0.689620 0.319356 -0.279926
H57   H     H_    0.981852 0.729933 0.320231 0.231925
C117  C     C_3   0.939387 0.660327 0.229459 -0.719907
H58   H     H_    0.979218 0.645054 0.204467 0.234267
H59   H     H_    0.912096 0.615817 0.231308 0.233863
H60   H     H_    0.915695 0.696951 0.180957 0.232091
N10   N     N_2   0.055856 0.311946 0.692791 -0.290317
H61   H     H_    0.018314 0.323578 0.648174 0.230268
C118  C     C_3   0.060552 0.342037 0.782306 -0.697607
H62   H     H_    0.017866 0.341329 0.804007 0.223842
H63   H     H_    0.091969 0.313921 0.833042 0.246362
H64   H     H_    0.075065 0.394321 0.781169 0.229701
N11   N     N_2   0.098246 0.636370 0.746803 -0.292367
H65   H     H_    0.122980 0.627310 0.810116 0.231476
C119  C     C_3   0.045092 0.671808 0.752469 -0.701174
H66   H     H_    0.017665 0.677365 0.683898 0.246229
H67   H     H_    0.020508 0.643714 0.796270 0.232673
H68   H     H_    0.054464 0.721750 0.783260 0.224632
N12   N     N_2   0.865763 0.414335 0.247980 -0.282365
H69   H     H_    0.908759 0.412222 0.243106 0.242265
C120  C     C_3   0.840468 0.480410 0.245257 -0.758465
H70   H     H_    0.850717 0.507889 0.186353 0.218080
H71   H     H_    0.792654 0.477568 0.236867 0.245638
H72   H     H_    0.857558 0.508113 0.308920 0.227386
N13   N     N_2   0.639108 0.715114 0.749446 -0.299401
H73   H     H_    0.674413 0.703607 0.798847 0.216422
C121  C     C_3   0.606083 0.657762 0.712188 -0.765570
H74   H     H_    0.630212 0.628276 0.667838 0.225426
H75   H     H_    0.563753 0.673664 0.671861 0.257150
H76   H     H_    0.597913 0.625689 0.768700 0.236897
N14   N     N_2   0.396251 0.313198 0.305105 -0.317597
H77   H     H_    0.410174 0.357059 0.337795 0.215990
C122  C     C_3   0.355301 0.323134 0.221132 -0.783890
H78   H     H_    0.315284 0.347812 0.234751 0.233995
H79   H     H_    0.343628 0.274919 0.186133 0.248881
H80   H     H_    0.374885 0.355210 0.174913 0.239778
N15   N     N_2   0.270938 0.836729 0.190864 -0.290364
H81   H     H_    0.227101 0.846208 0.178014 0.214225
C123  C     C_3   0.288913 0.783819 0.135663 -0.773429
H82   H     H_    0.275123 0.734819 0.157845 0.230995
H83   H     H_    0.336641 0.783842 0.141207 0.252190
H84   H     H_    0.268876 0.791590 0.063080 0.235977
N16   N     N_2   0.689617 0.225440 0.803051 -0.315915
H85   H     H_    0.731638 0.214785 0.833410 0.217132
C124  C     C_3   0.670841 0.291779 0.823892 -0.796488
H86   H     H_    0.696941 0.330128 0.797392 0.225416
H87   H     H_    0.676056 0.298012 0.898979 0.239990
H88   H     H_    0.624726 0.300060 0.793463 0.248538
N17   N     N_2   0.139115 0.215122 0.749464 -0.299403
H89   H     H_    0.174423 0.203618 0.798864 0.216422
C125  C     C_3   0.106085 0.157768 0.712221 -0.765583
H90   H     H_    0.130211 0.128270 0.667880 0.225422
H91   H     H_    0.063759 0.173668 0.671889 0.257151
H92   H     H_    0.097913 0.125709 0.768742 0.236907
N18   N     N_2   0.896276 0.813214 0.305143 -0.317589
H93   H     H_    0.910191 0.857076 0.337839 0.215990
C126  C     C_3   0.855337 0.823150 0.221157 -0.783905
H94   H     H_    0.815314 0.847821 0.234762 0.233995
H95   H     H_    0.843672 0.774934 0.186152 0.248887
H96   H     H_    0.874926 0.855230 0.174949 0.239776
N19   N     N_2   0.771010 0.336601 0.190854 -0.290376
H97   H     H_    0.727176 0.346088 0.177961 0.214236
C127  C     C_3   0.788992 0.283653 0.135731 -0.773507
H98   H     H_    0.775169 0.234676 0.157928 0.231003
H99   H     H_    0.836723 0.283650 0.141337 0.252208
H100  H     H_    0.768993 0.291398 0.063130 0.236009
N20   N     N_2   0.189661 0.725390 0.803067 -0.315906
H101  H     H_    0.231681 0.714723 0.833416 0.217133
C128  C     C_3   0.170896 0.791729 0.823931 -0.796458
H102  H     H_    0.197019 0.830076 0.797473 0.225402
H103  H     H_    0.176092 0.797941 0.899021 0.239978
H104  H     H_    0.124787 0.800034 0.793475 0.248527
O17   O     O_3   0.689529 0.013220 0.205956 -0.663142
C129  C     C_3   0.727540 0.004226 0.290207 0.072806
H105  H     H_    0.770269 0.989162 0.274627 0.161402
H106  H     H_    0.715036 0.961950 0.329936 0.121942
C130  C     C_3   0.735812 0.069910 0.344310 -0.351821
H107  H     H_    0.759863 0.105261 0.308450 0.231254
H108  H     H_    0.693442 0.093277 0.348390 0.217555
C131  C     C_3   0.769120 0.058994 0.440859 -0.952284
H109  H     H_    0.743824 0.027275 0.479602 0.257230
H110  H     H_    0.776674 0.107682 0.476587 0.278269
H111  H     H_    0.811548 0.034769 0.439002 0.260562
O18   O     O_3   0.312645 0.018785 0.794094 -0.662988
C132  C     C_3   0.279247 0.968884 0.741902 0.072364
H112  H     H_    0.252624 0.944825 0.786592 0.159476
H113  H     H_    0.305023 0.927934 0.717278 0.119116
C133  C     C_3   0.238545 0.001125 0.661887 -0.349643
H114  H     H_    0.208489 0.035789 0.688832 0.224080
H115  H     H_    0.263787 0.030381 0.620173 0.212569
C134  C     C_3   0.203518 0.949034 0.601102 -0.936086
H116  H     H_    0.232562 0.917399 0.567542 0.276336
H117  H     H_    0.171985 0.974277 0.547306 0.262738
H118  H     H_    0.179528 0.917190 0.641761 0.266563
O19   O     O_3   0.189531 0.513209 0.205963 -0.663140
C135  C     C_3   0.227541 0.504218 0.290217 0.072805
H119  H     H_    0.270271 0.489157 0.274642 0.161395
H120  H     H_    0.215037 0.461942 0.329946 0.121942
C136  C     C_3   0.235809 0.569904 0.344320 -0.351811
H121  H     H_    0.259865 0.605252 0.308466 0.231248
H122  H     H_    0.193437 0.593273 0.348389 0.217559
C137  C     C_3   0.269107 0.558987 0.440875 -0.952279
H123  H     H_    0.243806 0.527271 0.479612 0.257231
H124  H     H_    0.276660 0.607675 0.476603 0.278267
H125  H     H_    0.311536 0.534759 0.439031 0.260559
O20   O     O_3   0.812650 0.518817 0.794098 -0.662992
C138  C     C_3   0.779245 0.468915 0.741921 0.072354
H126  H     H_    0.752627 0.444862 0.786621 0.159482
H127  H     H_    0.805016 0.427961 0.717293 0.119107
C139  C     C_3   0.738538 0.501154 0.661909 -0.349655
H128  H     H_    0.708491 0.535827 0.688858 0.224086
H129  H     H_    0.763778 0.530399 0.620180 0.212575
C140  C     C_3   0.703498 0.449064 0.601144 -0.936112
H130  H     H_    0.732533 0.417419 0.567579 0.276344
H131  H     H_    0.671963 0.474307 0.547351 0.262742
H132  H     H_    0.679510 0.417231 0.641818 0.266557

loop_
_geom_bond_atom_site_label_1
_geom_bond_atom_site_label_2
_ccdc_geom_bond_type
N18   C126  S    
C23   N3    A    
C33   C45   A    
C134  H116  S    
C53   C69   A    
C79   C87   A    
C111  H27   S    
C117  H59   S    
O18   C132  S    
C59   N15   S    
C78   H17   S    
C10   C94   A    
C73   H14   S    
C29   C33   A    
C30   C38   A    
C75   H16   S    
C37   C42   A    
C116  H55   S    
C14   C90   A    
O2    Zn2   S    
C40   C43   A    
C56   C72   A    
C122  H79   S    
C11   H3    S    
C72   N11   S    
C35   C47   A    
C6    O6    A    
C124  H86   S    
C82   C98   A    
C73   C81   A    
N11   C119  S    
C25   C29   A    
C139  H129  S    
C27   C31   A    
C115  H50   S    
C84   C100  A    
C133  C134  S    
C127  H98   S    
C57   C65   A    
C12   C108  A    
C101  C110  A    
C7    O7    A    
C17   C21   A    
C4    O12   A    
C103  C112  A    
C5    O5    A    
C19   C23   A    
C119  H66   S    
C37   C38   A    
C24   H39   S    
C121  H74   S    
C54   C70   A    
O20   C138  S    
C59   C91   A    
C87   C103  A    
C135  H119  S    
C63   C71   A    
C128  H103  S    
C49   C73   A    
C105  H21   S    
C127  H99   S    
C60   N16   S    
C140  H132  S    
C64   N20   S    
C17   O17   S    
C50   C66   A    
C83   C91   A    
C4    C49   S    
C115  H52   S    
C132  H113  S    
C19   C35   A    
C68   N7    S    
O13   Zn4   S    
C15   C91   A    
N8    H53   S    
C80   C88   A    
C124  H88   S    
C76   H15   S    
C41   C45   A    
C102  C109  A    
C126  H95   S    
C43   C47   A    
C55   C71   A    
C24   N4    A    
N3    Zn4   S    
N4    Zn3   S    
C47   H31   S    
O4    Zn1   S    
C112  H28   S    
C114  H46   S    
C3    O11   A    
O12   Zn2   S    
C99   C108  A    
C48   H32   S    
N17   H89   S    
C19   O19   S    
C32   C36   A    
C134  H117  S    
C129  H105  S    
C16   H8    S    
N19   H97   S    
C140  H131  S    
C9    C105  A    
O8    Zn3   S    
C126  H94   S    
N7    C115  S    
C13   C109  A    
C59   C67   A    
C85   C93   A    
C135  C136  S    
N5    C113  S    
C87   C95   A    
C34   C46   A    
C122  H78   S    
C57   N13   S    
C77   C85   A    
N15   H81   S    
C3    O3    A    
N9    C117  S    
C88   C104  A    
C3    C50   S    
O17   C129  S    
C60   C92   A    
C62   N18   S    
C66   N5    S    
C137  H124  S    
C30   C34   A    
C131  H109  S    
C64   C96   A    
C38   C41   A    
C8    O8    A    
C119  H68   S    
C39   C40   A    
C125  H92   S    
O9    Zn2   S    
C133  H115  S    
C120  H70   S    
C18   C34   A    
C118  H62   S    
C123  H83   S    
C51   C67   A    
C121  H75   S    
C26   C30   A    
C10   C106  A    
C86   C102  A    
C43   H11   S    
C6    O14   A    
C14   C110  A    
C20   O20   S    
C18   C22   A    
C52   C76   A    
C8    C53   S    
N20   H101  S    
C39   C44   A    
C56   C80   A    
C126  H96   S    
C9    H1    S    
N15   C123  S    
N13   C121  S    
C15   H7    S    
C36   C48   A    
C129  H106  S    
C116  H54   S    
C136  C137  S    
C44   C48   A    
C106  H22   S    
C61   N17   S    
C130  C131  S    
N10   C118  S    
C84   C92   A    
C54   C78   A    
O16   Zn4   S    
N8    C116  S    
C23   H40   S    
C88   C96   A    
C7    O15   A    
C129  C130  S    
C5    C56   S    
C123  H82   S    
C131  H111  S    
C6    C55   S    
C76   C84   A    
C125  H90   S    
C46   H30   S    
N11   H65   S    
C57   C89   A    
C120  H72   S    
C65   N6    S    
C61   C93   A    
C74   H13   S    
C61   C69   A    
N16   H85   S    
C63   C95   A    
C118  H64   S    
C71   N12   S    
C42   C46   A    
C107  H23   S    
C27   H36   S    
O3    Zn2   S    
C25   H34   S    
C2    O10   A    
C97   C102  A    
C10   H2    S    
O11   Zn1   S    
C113  H44   S    
C81   C89   A    
C135  H120  S    
C99   C104  A    
C22   H37   S    
C80   H19   S    
C83   C99   A    
C128  H102  S    
C45   H29   S    
C17   C33   A    
C74   C82   A    
O14   Zn3   S    
C27   N3    A    
C117  H60   S    
C69   N10   S    
C25   N1    A    
N10   H61   S    
O19   C135  S    
N1    Zn2   S    
C44   H12   S    
C100  C103  A    
C138  H126  S    
C116  H56   S    
C53   C77   A    
C136  H121  S    
C115  H51   S    
C132  H112  S    
C55   C79   A    
C28   C32   A    
C2    O2    A    
N14   C122  S    
C58   C90   A    
C97   C106  A    
C16   C92   A    
C62   C94   A    
C31   C35   A    
N12   H69   S    
C16   C112  A    
C139  H128  S    
O10   Zn1   S    
C131  H110  S    
C13   H5    S    
C98   C101  A    
C82   C90   A    
C138  C139  S    
C50   C74   A    
N20   C128  S    
C75   C83   A    
C140  H130  S    
C77   H18   S    
N7    H49   S    
C1    C52   S    
C119  H67   S    
C114  H47   S    
C2    C51   S    
C113  H42   S    
C20   C36   A    
C18   O18   S    
C60   C68   A    
N5    H41   S    
C128  H104  S    
C29   C37   A    
C5    O13   A    
C12   C96   A    
C7    C54   S    
C8    O16   A    
O1    Zn1   S    
C28   H35   S    
C139  C140  S    
C127  H100  S    
C117  H58   S    
N9    H57   S    
N6    H45   S    
C137  H125  S    
C98   C105  A    
C49   C65   A    
C51   C75   A    
C108  H24   S    
C132  C133  S    
N6    C114  S    
O5    Zn3   S    
C125  H91   S    
O6    Zn4   S    
C109  H25   S    
C41   H9    S    
C58   N14   S    
C86   C94   A    
C58   C66   A    
C20   C24   A    
N16   C124  S    
C52   C68   A    
C78   C86   A    
C70   N9    S    
C64   C72   A    
C62   C70   A    
C67   N8    S    
O7    Zn4   S    
C63   N19   S    
C122  H80   S    
N17   C125  S    
C15   C111  A    
C134  H118  S    
N19   C127  S    
C114  H48   S    
C14   H6    S    
O15   Zn3   S    
C138  H127  S    
C26   H33   S    
N12   C120  S    
C1    O9    A    
N13   H73   S    
C21   H38   S    
C136  H122  S    
C110  H26   S    
C130  H108  S    
C11   C107  A    
C26   N2    A    
N18   H93   S    
C9    C93   A    
C85   C101  A    
C42   H10   S    
C22   N2    A    
C11   C95   A    
C137  H123  S    
C100  C107  A    
N2    Zn1   S    
C13   C89   A    
C104  C111  A    
C133  H114  S    
C1    O1    A    
C120  H71   S    
C21   N1    A    
C4    O4    A    
C81   C97   A    
C79   H20   S    
C118  H63   S    
C124  H87   S    
C31   C39   A    
C123  H84   S    
C32   C40   A    
C121  H76   S    
N14   H77   S    
C28   N4    A    
C12   H4    S    
C130  H107  S    
C113  H43   S    
