data_mof_unit_7386.cif
_audit_creation_date              2013-03-05T15:54:38-0500
_audit_creation_method            fapswitch 2.2
_symmetry_space_group_name_H-M    P1
_symmetry_Int_Tables_number       1
_space_group_crystal_system       triclinic
_cell_length_a                    14.045814
_cell_length_b                    14.02705
_cell_length_c                    30.091076
_cell_angle_alpha                 96.876596
_cell_angle_beta                  96.927302
_cell_angle_gamma                 61.311601
_cell_volume                      5149.81419057

loop_
_atom_site_label
_atom_site_type_symbol
_atom_site_description
_atom_site_fract_x
_atom_site_fract_y
_atom_site_fract_z
_atom_type_partial_charge
O1    O     O_R   0.688580 0.499770 0.460490 -0.515194
O2    O     O_R   0.480400 0.672610 0.462660 -0.533672
C1    C     C_R   0.386107 0.710397 0.441917 0.764417
O3    O     O_R   0.315310 0.685650 0.451800 -0.538672
O4    O     O_R   0.346220 0.474990 0.446280 -0.526528
C2    C     C_R   0.398803 0.381116 0.426544 0.811401
O5    O     O_R   0.492270 0.312460 0.441630 -0.533996
O6    O     O_R   0.669740 0.350480 0.455640 -0.542654
C3    C     C_R   0.710824 0.405216 0.442317 0.805750
O7    O     O_R   0.691150 0.501150 0.557860 -0.530407
O8    O     O_R   0.482790 0.673890 0.552920 -0.521626
C4    C     C_R   0.389548 0.711640 0.568198 0.796520
O9    O     O_R   0.317880 0.687030 0.549170 -0.520717
O10   O     O_R   0.348600 0.476260 0.536540 -0.504697
C5    C     C_R   0.402516 0.382777 0.552727 0.872345
O11   O     O_R   0.494840 0.313840 0.539010 -0.506192
O12   O     O_R   0.672120 0.351750 0.545910 -0.506119
C6    C     C_R   0.713419 0.407354 0.568409 0.810245
Cr1   Cr    Cr6+3 0.581000 0.584320 0.508140 1.039441
Cr2   Cr    Cr6+3 0.339110 0.576430 0.496080 1.057667
Cr3   Cr    Cr6+3 0.579910 0.339270 0.495810 1.053855
O13   O     O_3   0.500010 0.500010 0.500010 -0.369111
C7    C     C_1   0.366012 0.364219 0.380891 -0.124480
C8    C     C_R   0.237247 0.420749 0.270107 -0.171831
C9    C     C_R   0.227469 0.416052 0.222793 0.320020
C10   C     C_R   0.411291 0.260891 0.221314 0.315779
C11   C     C_R   0.419999 0.265387 0.268454 -0.160650
C12   C     C_R   0.333073 0.344973 0.292782 -0.067381
C13   C     C_R   0.315031 0.336184 0.198656 -0.135870
C14   C     C_1   0.302574 0.323539 0.150504 0.164145
C15   C     C_1   0.346999 0.354201 0.341131 -0.005710
C16   C     C_1   0.291338 0.304566 0.110809 -0.049096
C17   C     C_R   0.766899 0.368356 0.399703 -0.220427
C18   C     C_R   0.771428 0.275915 0.372878 -0.109311
C19   C     C_R   0.791297 0.262602 0.327754 -0.213821
C20   C     C_R   0.807521 0.338853 0.308786 -0.071841
C21   C     C_R   0.817057 0.423306 0.335672 0.332701
C22   C     C_R   0.801763 0.435149 0.382034 0.193891
C23   C     C_R   0.797103 0.416574 0.152584 0.388657
C24   C     C_R   0.830130 0.401804 0.108658 -0.190370
C25   C     C_R   0.885506 0.207514 0.107361 -0.072060
C26   C     C_R   0.851827 0.223529 0.150469 -0.191661
C27   C     C_R   0.814089 0.325121 0.173775 -0.017666
C28   C     C_1   0.807437 0.330408 0.221098 0.125757
C29   C     C_1   0.807103 0.333516 0.261027 0.121933
C30   C     C_R   0.883677 0.295123 0.087143 -0.179715
H1    H     H_    0.860757 0.154716 0.167036 0.169505
H2    H     H_    0.788546 0.195364 0.306677 0.175570
H3    H     H_    0.179038 0.840775 0.083413 0.209200
H4    H     H_    0.220181 0.775841 0.300113 0.169264
H5    H     H_    0.226698 0.739208 0.377253 0.166672
C31   C     C_R   0.367107 0.763482 0.399723 -0.095277
C32   C     C_R   0.439929 0.796910 0.386719 -0.106727
C33   C     C_R   0.435867 0.817183 0.341513 -0.078452
C34   C     C_R   0.358705 0.805394 0.310205 0.051016
C35   C     C_R   0.280888 0.783058 0.324120 -0.106116
C36   C     C_R   0.284453 0.763010 0.368431 -0.153649
C37   C     C_R   0.268397 0.808908 0.147988 0.382939
C38   C     C_R   0.244778 0.845532 0.104655 -0.203348
C39   C     C_R   0.389677 0.895178 0.116440 -0.121025
C40   C     C_R   0.413095 0.860388 0.159630 -0.114228
C41   C     C_R   0.350104 0.821872 0.176123 -0.020400
C42   C     C_1   0.358443 0.813485 0.223419 0.101232
C43   C     C_1   0.360305 0.810286 0.263114 0.024669
C44   C     C_R   0.301820 0.893086 0.089449 -0.138601
H6    H     H_    0.475939 0.870164 0.181186 0.191473
H7    H     H_    0.435562 0.930769 0.105476 0.192261
H8    H     H_    0.146602 0.484233 0.820263 0.217762
C45   C     C_R   0.365408 0.361095 0.592886 -0.309250
C46   C     C_R   0.441175 0.280170 0.621612 0.333576
C47   C     C_R   0.413776 0.276838 0.664008 -0.147091
C48   C     C_R   0.313520 0.353009 0.679226 -0.063295
C49   C     C_R   0.233655 0.428048 0.650411 -0.160281
C50   C     C_R   0.258363 0.430819 0.606588 0.309135
C51   C     C_R   0.214770 0.417493 0.836759 -0.136992
C52   C     C_R   0.213111 0.404861 0.881945 0.322898
C53   C     C_R   0.395875 0.249257 0.879875 0.307189
C54   C     C_R   0.396843 0.264376 0.834496 -0.168924
C55   C     C_R   0.303273 0.344749 0.812647 -0.066664
C56   C     C_1   0.297880 0.353833 0.765393 0.045365
C57   C     C_1   0.299858 0.356011 0.725846 0.031484
C58   C     C_R   0.298872 0.312376 0.902252 -0.281117
H9    H     H_    0.474465 0.218146 0.686385 0.196139
C59   C     C_1   0.764643 0.374507 0.611978 -0.054061
C60   C     C_R   0.828705 0.416789 0.727539 -0.248548
C61   C     C_R   0.841568 0.406291 0.774149 0.362182
C62   C     C_R   0.848605 0.227583 0.760321 -0.248300
C63   C     C_R   0.835375 0.238185 0.713572 0.369164
C64   C     C_R   0.824927 0.333474 0.697367 -0.100065
C65   C     C_R   0.850851 0.311725 0.790437 -0.095384
C66   C     C_1   0.875886 0.296292 0.837909 0.075131
C67   C     C_1   0.796743 0.352450 0.650228 0.103257
C68   C     C_1   0.904774 0.283845 0.877054 -0.074292
C69   C     C_1   0.375091 0.758885 0.613394 -0.077186
C70   C     C_R   0.272140 0.800953 0.718246 -0.252121
C71   C     C_R   0.260755 0.815194 0.764543 0.391488
C72   C     C_R   0.420220 0.845239 0.776097 -0.242502
C73   C     C_R   0.430419 0.831199 0.729244 0.358760
C74   C     C_R   0.355298 0.808976 0.700514 -0.073037
C75   C     C_R   0.334819 0.838622 0.793727 -0.099046
C76   C     C_1   0.316076 0.868050 0.840877 0.080302
C77   C     C_1   0.365270 0.786677 0.652769 0.109354
C78   C     C_1   0.294988 0.900317 0.879239 -0.078491
H10   H     H_    0.216454 0.781657 0.695718 0.206255
O14   O     O_R   0.167510 0.972920 0.030390 -0.533203
O15   O     O_R   0.990840 0.178580 0.027590 -0.536319
C79   C     C_R   0.948591 0.273587 0.047813 0.773626
O16   O     O_R   0.972840 0.345510 0.038590 -0.531637
O17   O     O_R   0.181550 0.320660 0.045200 -0.520882
C80   C     C_R   0.275392 0.270340 0.065284 0.809004
O18   O     O_R   0.346150 0.177650 0.050510 -0.523344
O19   O     O_R   0.314200 0.996600 0.036060 -0.537626
C81   C     C_R   0.260999 0.953493 0.048709 0.804565
O20   O     O_R   0.168690 0.969990 0.933130 -0.516593
O21   O     O_R   0.991920 0.175870 0.937430 -0.535291
C82   C     C_R   0.952076 0.269400 0.922165 0.802342
O22   O     O_R   0.974010 0.342590 0.941330 -0.505071
O23   O     O_R   0.182630 0.317940 0.955040 -0.510348
C83   C     C_R   0.277742 0.268823 0.940597 0.863691
O24   O     O_R   0.347320 0.174720 0.953250 -0.504166
O25   O     O_R   0.315290 0.993890 0.945900 -0.533129
C84   C     C_R   0.261602 0.950822 0.922902 0.801849
Cr4   Cr    Cr6+3 0.082090 0.079210 0.982490 1.023696
Cr5   Cr    Cr6+3 0.082460 0.324610 0.994920 1.087494
Cr6   Cr    Cr6+3 0.323630 0.087860 0.996130 1.044290
O26   O     O_3   0.162730 0.163890 0.991180 -0.370523
C85   C     C_1   0.150577 0.505982 0.295436 0.497953
N1    N     N_1   0.081514 0.574051 0.315731 -0.221827
C86   C     C_1   0.924911 0.098568 0.086125 0.411583
N2    N     N_1   0.955867 0.011232 0.069293 -0.250411
N3    N     N_R   0.205828 0.764176 0.163441 0.118707
O27   O     O_R   0.110330 0.785725 0.144087 -0.312390
O28   O     O_R   0.247514 0.694001 0.194051 -0.347853
C87   C     C_1   0.519862 0.808519 0.418944 0.374251
N4    N     N_1   0.583773 0.817806 0.444596 -0.246576
N5    N     N_R   0.128717 0.491393 0.199311 0.129593
O29   O     O_R   0.132566 0.541616 0.166450 -0.293516
O30   O     O_R   0.034560 0.508561 0.210154 -0.297676
C88   C     C_1   0.512572 0.846472 0.326926 0.372935
N6    N     N_1   0.573686 0.869906 0.315256 -0.215715
N7    N     N_R   0.124686 0.486632 0.906759 0.148462
O31   O     O_R   0.144454 0.522475 0.946865 -0.331452
O32   O     O_R   0.027424 0.537023 0.887140 -0.283020
C89   C     C_1   0.126952 0.501829 0.665800 0.460064
N8    N     N_1   0.041742 0.560829 0.678187 -0.216959
N9    N     N_R   0.175223 0.503940 0.576238 0.117614
O33   O     O_R   0.154096 0.466941 0.536613 -0.352203
O34   O     O_R   0.120165 0.607298 0.588080 -0.331713
N10   N     N_R   0.549923 0.206080 0.610240 0.155315
O35   O     O_R   0.622898 0.239184 0.615501 -0.332378
O36   O     O_R   0.581285 0.102053 0.605663 -0.290608
C90   C     C_1   0.493694 0.198184 0.810426 0.452703
N11   N     N_1   0.570929 0.145463 0.791129 -0.226132
N12   N     N_R   0.493080 0.172073 0.903418 0.128568
O37   O     O_R   0.548776 0.073032 0.886228 -0.331625
O38   O     O_R   0.526600 0.201353 0.942249 -0.336616
C91   C     C_1   0.815161 0.515478 0.710693 0.465050
N13   N     N_1   0.804549 0.594132 0.697206 -0.163500
N14   N     N_R   0.499647 0.178808 0.196451 0.107330
O39   O     O_R   0.483839 0.111414 0.166745 -0.371022
O40   O     O_R   0.597059 0.168666 0.204665 -0.352999
N15   N     N_R   0.845858 0.491324 0.804934 0.123866
O41   O     O_R   0.908538 0.532272 0.798613 -0.325489
O42   O     O_R   0.786260 0.528901 0.839156 -0.327993
C92   C     C_1   0.864591 0.128248 0.777437 0.475280
N16   N     N_1   0.877358 0.049025 0.791201 -0.170734
N17   N     N_R   0.832801 0.152514 0.682657 0.150239
O43   O     O_R   0.775504 0.106206 0.689838 -0.290959
O44   O     O_R   0.888148 0.120116 0.647208 -0.325438
N18   N     N_R   0.173757 0.805613 0.781100 0.116836
O45   O     O_R   0.086092 0.824122 0.755366 -0.317523
O46   O     O_R   0.186109 0.766928 0.819808 -0.338974
C93   C     C_1   0.500139 0.862081 0.806255 0.477955
N19   N     N_1   0.564345 0.874978 0.830343 -0.165226
N20   N     N_R   0.515911 0.840192 0.711076 0.119369
O47   O     O_R   0.572010 0.769887 0.679751 -0.343013
O48   O     O_R   0.536067 0.920672 0.724921 -0.327189
C94   C     C_1   0.517555 0.185887 0.291765 0.444771
N21   N     N_1   0.595383 0.122265 0.310332 -0.275723
C95   C     C_1   0.805192 0.496833 0.085534 0.493483
N22   N     N_1   0.785033 0.572860 0.067076 -0.237435
N23   N     N_R   0.749700 0.522967 0.176124 0.121626
O49   O     O_R   0.666972 0.553786 0.199916 -0.349189
O50   O     O_R   0.791182 0.588013 0.175196 -0.284478
N24   N     N_R   0.832370 0.502112 0.315287 0.141715
O51   O     O_R   0.909446 0.470593 0.288305 -0.325964
O52   O     O_R   0.764506 0.605411 0.321250 -0.314441
N25   N     N_R   0.819719 0.514528 0.411621 -0.162257
O53   O     O_R   0.894366 0.540371 0.405453 -0.000001
O54   O     O_R   0.894366 0.540371 0.405453 -0.000001
C96   C     C_1   0.753581 0.194129 0.389904 0.410867
N26   N     N_1   0.739544 0.128398 0.403474 -0.262157

loop_
_geom_bond_atom_site_label_1
_geom_bond_atom_site_label_2
_geom_bond_distance
_ccdc_geom_bond_type
C37   C41   1.412807 A    
C25   C86   1.445504 S    
C62   C63   1.412811 A    
C92   N16   1.157415 T    
C49   C50   1.412969 A    
C70   C71   1.400980 A    
C11   C94   1.449693 S    
C34   C35   1.392381 A    
C72   C73   1.414985 A    
C65   C66   1.446001 S    
C54   C90   1.449556 S    
N17   O44   1.301317 A    
O4    Cr2   1.915544 S    
C93   N19   1.157121 T    
C82   O22   1.265109 A    
H8    C51   1.084264 S    
C24   C30   1.424424 A    
C4    O9    1.267901 A    
O8    Cr1   1.917318 S    
C10   C11   1.405398 A    
C13   C14   1.438254 S    
C16   C80   1.424435 S    
C39   C40   1.389259 A    
C10   N14   1.439247 S    
O14   C81   1.272892 A    
C18   C96   1.445407 S    
O22   Cr5   2.029874 S    
N15   O41   1.301256 A    
N10   O36   1.300623 A    
N14   O39   1.301265 A    
O4    C2    1.271576 A    
C70   C74   1.397336 A    
N24   O52   1.301266 A    
O15   C79   1.277542 A    
O21   C82   1.273897 A    
C35   C36   1.385504 A    
O14   Cr4   2.029765 S    
N25   O54   1.301193 A    
C18   C19   1.391798 A    
C25   C26   1.390366 A    
C9    N5    1.440522 S    
C80   O18   1.266251 A    
O23   C83   1.277852 A    
C40   H6    1.084215 S    
C47   H9    1.085496 S    
C21   N24   1.437699 S    
C19   C20   1.390422 A    
C39   H7    1.083104 S    
O6    C3    1.279891 A    
O15   Cr4   1.917997 S    
O18   Cr6   2.031782 S    
C8    C85   1.449315 S    
C6    C59   1.430962 S    
C25   C30   1.423352 A    
N14   O40   1.301283 A    
C85   N1    1.157413 T    
C46   C47   1.388445 A    
H5    C36   1.083162 S    
C44   C81   1.470466 S    
C37   N3    1.442274 S    
N9    O34   1.301257 A    
C48   C57   1.431633 S    
C53   C54   1.409388 A    
C52   N7    1.437565 S    
C76   C78   1.205730 T    
C71   N18   1.442225 S    
Cr3   O13   1.973763 S    
C30   C79   1.494452 S    
C3    C17   1.491929 S    
C4    C69   1.432339 S    
C40   C41   1.396431 A    
C46   N10   1.430785 S    
C60   C91   1.449626 S    
C58   C83   1.489353 S    
O16   Cr5   2.036139 S    
C19   H2    1.085881 S    
O19   C81   1.275313 A    
C94   N21   1.157149 T    
N15   O42   1.301285 A    
C9    C13   1.411738 A    
C5    C45   1.488821 S    
C88   N6    1.157362 T    
O1    Cr1   2.034843 S    
C28   C29   1.197576 T    
O21   Cr4   1.912637 S    
C5    O11   1.271472 A    
C24   C95   1.448704 S    
C96   N26   1.157514 T    
O10   Cr2   1.914415 S    
C45   C50   1.424198 A    
Cr1   O13   1.976795 S    
C72   C93   1.448091 S    
C8    C9    1.410398 A    
N5    O30   1.301156 A    
C61   C65   1.411019 A    
C52   C58   1.421014 A    
C23   C24   1.412559 A    
C60   C64   1.409522 A    
C54   C55   1.406088 A    
C48   C49   1.403000 A    
Cr4   O26   1.976876 S    
C23   C27   1.405144 A    
C37   C38   1.402381 A    
C60   C61   1.408631 A    
H4    C35   1.084398 S    
C55   C56   1.432465 S    
C91   N13   1.157123 T    
N25   O53   1.301196 A    
C68   C82   1.429725 S    
O3    Cr2   2.030747 S    
C21   C22   1.415107 A    
C51   C52   1.396433 A    
O25   Cr6   1.914201 S    
C41   C42   1.428160 S    
C53   N12   1.438511 S    
C66   C68   1.203561 T    
C33   C88   1.450670 S    
O7    Cr1   2.029723 S    
C79   O16   1.276955 A    
C63   N17   1.441092 S    
C34   C43   1.430228 S    
C17   C18   1.421103 A    
O25   C84   1.274326 A    
O1    C3    1.274927 A    
C20   C29   1.429523 S    
O17   Cr5   1.915039 S    
O23   Cr5   1.918958 S    
C90   N11   1.157488 T    
C64   C67   1.446840 S    
N12   O37   1.300647 A    
C87   N4    1.157456 T    
C61   N15   1.440617 S    
O20   Cr4   2.033356 S    
Cr2   O13   1.977505 S    
C39   C44   1.403795 A    
C73   C74   1.410345 A    
N20   O48   1.301498 A    
C27   C28   1.429050 S    
Cr6   O26   1.977334 S    
C26   C27   1.388761 A    
C1    O3    1.274838 A    
N17   O43   1.301459 A    
C72   C75   1.414613 A    
C31   C32   1.421316 A    
Cr5   O26   1.973775 S    
N9    O33   1.301320 A    
C33   C34   1.406419 A    
C20   C21   1.404461 A    
O9    Cr2   2.031041 S    
O2    Cr1   1.913777 S    
O24   Cr6   2.032075 S    
N12   O38   1.301405 A    
C50   N9    1.437652 S    
C12   C15   1.443020 S    
C32   C87   1.449968 S    
C8    C12   1.409089 A    
C56   C57   1.198046 T    
N3    O28   1.301459 A    
N3    O27   1.301626 A    
O6    Cr3   1.918774 S    
C1    C31   1.480414 S    
O11   Cr3   2.034632 S    
C32   C33   1.411677 A    
C2    O5    1.266530 A    
C17   C22   1.422269 A    
H3    C38   1.082683 S    
O12   C6    1.271366 A    
C89   N8    1.157172 T    
N7    O32   1.301054 A    
O2    C1    1.276905 A    
C86   N2    1.157372 T    
C47   C48   1.388576 A    
N20   O47   1.300937 A    
O5    Cr3   2.031808 S    
N10   O35   1.300585 A    
C38   C44   1.403867 A    
C70   H10   1.084410 S    
C14   C16   1.200500 T    
C73   N20   1.441167 S    
N24   O51   1.301229 A    
C62   C92   1.449391 S    
N18   O46   1.301341 A    
C53   C58   1.419168 A    
O7    C6    1.269082 A    
C22   N25   1.440163 S    
C2    C7    1.424684 S    
C71   C75   1.414264 A    
C75   C76   1.448507 S    
C26   H1    1.086198 S    
C45   C46   1.421799 A    
N23   O50   1.301224 A    
C23   N23   1.441836 S    
C31   C36   1.405933 A    
C42   C43   1.197357 T    
O20   C84   1.268972 A    
C74   C77   1.442378 S    
C63   C64   1.412937 A    
C69   C77   1.205007 T    
C10   C13   1.409765 A    
C83   O24   1.278469 A    
N18   O45   1.301696 A    
C62   C65   1.409941 A    
O17   C80   1.271839 A    
C11   C12   1.408600 A    
O10   C5    1.280932 A    
N5    O29   1.301248 A    
C59   C67   1.204140 T    
O19   Cr6   1.915568 S    
N7    O31   1.301616 A    
C78   C84   1.433457 S    
C51   C55   1.391180 A    
C95   N22   1.157553 T    
N23   O49   1.301504 A    
O8    C4    1.275960 A    
C7    C15   1.200470 T    
C49   C89   1.447470 S    
O12   Cr3   1.914244 S    
