data_mof_unit_8687.cif
_audit_creation_date              2012-12-11T15:48:42-0500
_audit_creation_method            fapswitch 2.2
_symmetry_space_group_name_H-M    P1
_symmetry_Int_Tables_number       1
_space_group_crystal_system       triclinic
_cell_length_a                    11.021227
_cell_length_b                    10.980306
_cell_length_c                    18.771579
_cell_angle_alpha                 90.357622
_cell_angle_beta                  90.274938
_cell_angle_gamma                 60.463042
_cell_volume                      1976.39637655

loop_
_atom_site_label
_atom_site_type_symbol
_atom_type_description
_atom_site_fract_x
_atom_site_fract_y
_atom_site_fract_z
_atom_type_partial_charge
C1    C     C_R   0.241660 0.644876 0.610833 0.582470
C2    C     C_3   0.654013 0.598968 0.803188 0.107934
C3    C     C_3   0.725437 0.691640 0.807749 -0.054477
C4    C     C_3   0.679450 0.651517 0.674805 0.063285
C5    C     C_3   0.842100 0.572032 0.692283 0.405879
C6    C     C_3   0.608951 0.594063 0.726013 -0.254331
C7    C     C_R   0.680354 0.161181 0.824558 0.016238
C8    C     C_R   0.784200 0.169663 0.785733 0.025700
C9    C     C_R   0.776693 0.178801 0.711021 0.063838
C10   C     C_R   0.568094 0.161301 0.713717 -0.135326
C11   C     C_R   0.568103 0.165757 0.786440 -0.188338
C12   C     C_R   0.654025 0.621041 0.601064 0.643755
C13   C     C_3   0.934290 0.064080 0.784948 -0.262286
C14   C     C_3   0.926703 0.069433 0.704714 -0.244712
C15   C     C_R   0.667430 0.174992 0.674671 0.055525
C16   C     C_R   0.180827 0.671061 0.835776 0.044584
C17   C     C_R   0.164426 0.573167 0.795984 -0.019469
C18   C     C_R   0.175065 0.569058 0.722356 0.070122
C19   C     C_R   0.208080 0.768711 0.725436 -0.180010
C20   C     C_R   0.205013 0.768352 0.799436 -0.111157
C21   C     C_3   0.248917 0.418839 0.801371 -0.279320
C22   C     C_3   0.259671 0.415310 0.720891 -0.233279
C23   C     C_R   0.628213 0.228912 0.602763 0.578304
C24   C     C_R   0.197617 0.665522 0.685417 0.032460
C25   C     C_R   0.699391 0.701542 0.179724 0.002317
C26   C     C_R   0.791058 0.579336 0.214570 -0.001358
C27   C     C_R   0.780799 0.562880 0.285579 0.023128
C28   C     C_R   0.583839 0.795959 0.293470 -0.167771
C29   C     C_R   0.598845 0.813338 0.220411 -0.151865
C30   C     C_3   0.835704 0.430545 0.196956 -0.263917
C31   C     C_3   0.823168 0.411692 0.275633 -0.265643
C32   C     C_R   0.671948 0.666117 0.325530 0.019076
C33   C     C_R   0.655993 0.170872 0.172604 -0.002407
C34   C     C_R   0.218712 0.651534 0.402525 0.555873
C35   C     C_R   0.525928 0.239546 0.204039 0.044899
C36   C     C_R   0.514138 0.254286 0.276511 -0.014140
C37   C     C_R   0.763829 0.144772 0.288831 -0.178296
C38   C     C_R   0.774562 0.136887 0.215067 -0.178364
C39   C     C_3   0.400093 0.224273 0.196031 0.101178
C40   C     C_3   0.385751 0.239974 0.276557 -0.229225
C41   C     C_R   0.633013 0.195776 0.320279 0.015270
C42   C     C_R   0.053351 0.729879 0.195294 0.019165
C43   C     C_R   0.079498 0.825826 0.231546 -0.003374
C44   C     C_R   0.114734 0.809678 0.302127 -0.029967
C45   C     C_R   0.643853 0.624390 0.393731 0.551898
C46   C     C_R   0.085710 0.606199 0.307323 -0.149511
C47   C     C_R   0.048108 0.624542 0.234961 -0.134899
C48   C     C_3   0.175530 0.883734 0.215650 0.161103
C49   C     C_3   0.211317 0.869205 0.294208 -0.236611
C50   C     C_R   0.132432 0.691589 0.339101 0.019556
C51   C     C_R   0.701431 0.102030 0.896140 0.543676
C52   C     C_R   0.754256 0.710273 0.883164 0.568503
C53   C     C_R   0.118999 0.706289 0.906372 0.562875
C54   C     C_R   0.676318 0.107482 0.103366 0.545161
C55   C     C_R   0.727711 0.714404 0.105612 0.529925
C56   C     C_R   0.614354 0.232212 0.394383 0.558404
C57   C     C_R   0.029083 0.746320 0.118937 0.552692
C58   C     C_3   0.635395 0.834465 0.770274 -0.195887
C59   C     C_3   0.612719 0.813229 0.690242 0.377954
C60   C     C_3   0.864335 0.619967 0.766043 -0.236749
Cr1   Cr    Cr6+3 0.392960 0.397920 0.502240 1.074913
Cr2   Cr    Cr6+3 0.398340 0.708480 0.501250 1.082953
Cr3   Cr    Cr6+3 0.708670 0.393570 0.496460 1.078309
Cr4   Cr    Cr6+3 0.937650 0.938540 0.007610 1.030565
Cr5   Cr    Cr6+3 0.625330 0.937370 0.994520 1.066320
Cr6   Cr    Cr6+3 0.937940 0.625230 0.001190 1.063283
H1    H     H_    0.689646 0.896305 0.775240 0.125551
H2    H     H_    0.636760 0.484749 0.712100 0.136698
H3    H     H_    0.945233 0.529797 0.796357 0.173265
H4    H     H_    0.483987 0.153609 0.687903 0.217150
H5    H     H_    0.486216 0.154399 0.811763 0.161459
H6    H     H_    0.951121 0.963364 0.806720 0.146606
H7    H     H_    0.000147 0.105168 0.808024 0.175579
H8    H     H_    0.992370 0.108500 0.680334 0.218994
H9    H     H_    0.939921 0.971227 0.680026 0.169857
H10   H     H_    0.224085 0.847467 0.699993 0.206783
H11   H     H_    0.534063 0.893983 0.798498 0.203064
H12   H     H_    0.212961 0.850286 0.827886 0.190797
H13   H     H_    0.187876 0.370772 0.821876 0.164299
H14   H     H_    0.347436 0.389202 0.830324 0.165252
H15   H     H_    0.362814 0.389358 0.700240 0.143763
H16   H     H_    0.206094 0.364573 0.693911 0.229675
H17   H     H_    0.499179 0.879130 0.323060 0.129178
H18   H     H_    0.527712 0.909015 0.194858 0.137448
H19   H     H_    0.945004 0.372245 0.177457 0.173611
H20   H     H_    0.758036 0.418694 0.164030 0.150045
H21   H     H_    0.735707 0.392913 0.288380 0.159247
H22   H     H_    0.924555 0.340409 0.301619 0.144732
H23   H     H_    0.856677 0.112287 0.320934 0.134133
H24   H     H_    0.877229 0.092448 0.192045 0.139255
H25   H     H_    0.419200 0.122384 0.175897 0.152363
H26   H     H_    0.292870 0.336919 0.294432 0.168049
H27   H     H_    0.402464 0.143249 0.303775 0.109500
H28   H     H_    0.090266 0.518855 0.336006 0.134914
H29   H     H_    0.028689 0.548712 0.208678 0.187067
H30   H     H_    0.116770 0.995274 0.199402 0.126783
H31   H     H_    0.321559 0.794296 0.307194 0.154184
H32   H     H_    0.169924 0.971982 0.321749 0.106067
H33   H     H_    0.902041 0.696260 0.759723 0.134895
H34   H     H_    0.731369 0.490489 0.819407 0.194524
H35   H     H_    0.493957 0.655664 0.720743 0.191227
O1    O     O_R   0.507380 0.255700 0.581440 -0.503750
O2    O     O_R   0.524480 0.695810 0.424040 -0.509358
O3    O     O_R   0.736390 0.504290 0.414790 -0.510595
O4    O     O_R   0.691300 0.277290 0.422170 -0.514109
O5    O     O_3   0.499990 0.499990 0.499980 -0.303308
O6    O     O_R   0.089400 0.825690 0.930570 -0.513424
O7    O     O_R   0.818460 0.054440 0.929850 -0.501644
O8    O     O_R   0.606060 0.077150 0.915510 -0.531296
O9    O     O_R   0.646550 0.806680 0.917570 -0.439043
O10   O     O_R   0.837170 0.593410 0.915250 -0.497797
O11   O     O_R   0.065200 0.635530 0.931570 -0.508749
O12   O     O_R   0.280320 0.527350 0.578930 -0.479367
O13   O     O_R   0.068260 0.828890 0.091840 -0.468844
O14   O     O_R   0.798870 0.057410 0.079340 -0.533362
O15   O     O_R   0.584930 0.080350 0.076780 -0.499960
O16   O     O_R   0.626960 0.809650 0.067060 -0.477346
O17   O     O_R   0.816040 0.596610 0.076510 -0.502852
O18   O     O_R   0.045610 0.638500 0.081060 -0.455376
O19   O     O_3   0.833640 0.833710 0.001100 -0.337956
O20   O     O_R   0.260510 0.739590 0.584590 -0.502472
O21   O     O_R   0.532300 0.695080 0.573820 -0.451493
O22   O     O_R   0.744840 0.503500 0.576370 -0.433224
O23   O     O_R   0.699120 0.276560 0.571960 -0.490636
O24   O     O_R   0.498940 0.256500 0.419860 -0.506938
O25   O     O_R   0.272500 0.528080 0.429150 -0.500350
O26   O     O_R   0.252060 0.740380 0.423010 -0.520943
Cl1   Cl    Cl    0.917524 0.384828 0.696236 -0.649750
Cl2   Cl    Cl    0.428178 0.913643 0.673296 -0.612211
Cl3   Cl    Cl    0.271277 0.364124 0.145477 -0.656740
Cl4   Cl    Cl    0.687484 0.886945 0.632168 -0.555220
O27   O     O_3   0.287724 0.804998 0.167295 -0.517774
C61   C     C_3   0.377417 0.662432 0.184995 0.007751
H36   H     H_    0.324625 0.611925 0.211983 0.163006
H37   H     H_    0.462773 0.652969 0.220039 0.126218
C62   C     C_3   0.442722 0.580921 0.116896 -0.292353
H38   H     H_    0.500298 0.625958 0.089230 0.190288
H39   H     H_    0.516649 0.469950 0.129632 0.106684
H40   H     H_    0.360315 0.585512 0.080899 0.221327
Cl5   Cl    Cl    0.942549 0.597394 0.624713 -0.511469
Cl6   Cl    Cl    0.509916 0.652299 0.862749 -0.617977

loop_
_geom_bond_atom_site_label_1
_geom_bond_atom_site_label_2
_ccdc_geom_bond_type
C44   C49   S    
C8    C13   S    
C32   C45   S    
C34   O26   A    
C35   C36   A    
C40   H27   S    
C9    C14   S    
C60   H33   S    
Cr3   O23   S    
C7    C8    A    
C7    C11   A    
C59   Cl4   S    
C26   C27   A    
Cr4   O6    S    
C18   C24   A    
C14   H8    S    
C28   C29   A    
C10   C15   A    
C30   C31   S    
C11   H5    S    
C23   O1    A    
C16   C17   A    
C4    C59   S    
C6    H35   S    
C16   C53   S    
C36   C40   S    
C45   O2    A    
C58   H11   S    
C49   H32   S    
C59   Cl2   S    
C19   C20   A    
C8    C9    A    
C54   O15   A    
C61   C62   S    
Cr1   O25   S    
Cr6   O10   S    
C30   H20   S    
C43   C48   S    
C34   O25   A    
C57   O18   A    
C3    C60   S    
C15   C23   S    
C2    H34   S    
C51   O8    A    
Cr4   O14   S    
Cr6   O19   S    
C21   C22   S    
C28   H17   S    
C37   C41   A    
C36   C41   A    
C2    C6    S    
C1    O12   A    
C62   H40   S    
C42   C57   S    
C39   H25   S    
Cr4   O7    S    
C25   C29   A    
Cr5   O9    S    
C34   C50   S    
C31   H21   S    
C27   C31   S    
C22   H15   S    
C28   C32   A    
Cr4   O13   S    
C29   H18   S    
C4    C6    S    
C10   C11   A    
C39   C40   S    
O27   C61   S    
C52   O10   A    
C25   C26   A    
C5    Cl1   S    
C17   C21   S    
Cr3   O5    S    
C35   C39   S    
C43   C44   A    
C41   C56   S    
C37   C38   A    
C45   O3    A    
C53   O6    A    
C46   H28   S    
C52   O9    A    
C16   C20   A    
C54   O14   A    
C21   H13   S    
C17   C18   A    
C56   O24   A    
C40   H26   S    
C30   H19   S    
Cr1   O5    S    
Cr5   O8    S    
C23   O23   A    
C10   H4    S    
C53   O11   A    
C62   H39   S    
C48   C49   S    
C39   Cl3   S    
C13   H7    S    
C51   O7    A    
Cr6   O18   S    
Cr1   O12   S    
C61   H36   S    
Cr5   O15   S    
C4    C12   S    
C42   C43   A    
C22   H16   S    
Cr2   O21   S    
C5    Cl5   S    
Cr2   O2    S    
C55   O16   A    
C44   C50   A    
C33   C54   S    
C46   C50   A    
C46   C47   A    
C19   H10   S    
C47   H29   S    
C31   H22   S    
C48   H30   S    
C5    C60   S    
C27   C32   A    
C18   C22   S    
C25   C55   S    
Cr3   O3    S    
Cr3   O22   S    
C3    C52   S    
C26   C30   S    
C57   O13   A    
Cr2   O5    S    
C13   H6    S    
C20   H12   S    
C38   H24   S    
C33   C38   A    
Cr4   O19   S    
C37   H23   S    
C14   H9    S    
C19   C24   A    
C58   C59   S    
C7    C51   S    
Cr2   O26   S    
C12   O22   A    
C60   H3    S    
C21   H14   S    
C6    H2    S    
C33   C35   A    
Cr5   O19   S    
C2    C3    S    
C42   C47   A    
C9    C15   A    
C1    O20   A    
C56   O4    A    
Cr3   O4    S    
C49   H31   S    
C3    C58   S    
C58   H1    S    
C4    C5    S    
C12   O21   A    
C1    C24   S    
Cr6   O17   S    
C61   H37   S    
C2    Cl6   S    
Cr5   O16   S    
C48   O27   S    
Cr1   O24   S    
Cr6   O11   S    
C13   C14   S    
Cr1   O1    S    
Cr2   O20   S    
C62   H38   S    
C55   O17   A    
