data_mof_unit_44348.cif
_audit_creation_date              2012-12-10T21:00:37-0500
_audit_creation_method            fapswitch 2.2
_symmetry_space_group_name_H-M    P1
_symmetry_Int_Tables_number       1
_space_group_crystal_system       triclinic
_cell_length_a                    18.108152
_cell_length_b                    18.181857
_cell_length_c                    18.32572
_cell_angle_alpha                 120.007021
_cell_angle_beta                  89.965034
_cell_angle_gamma                 119.898484
_cell_volume                      4273.74603762

loop_
_atom_site_label
_atom_site_type_symbol
_atom_type_description
_atom_site_fract_x
_atom_site_fract_y
_atom_site_fract_z
_atom_type_partial_charge
C1    C     C_R   0.112063 0.220062 0.609702 0.785305
C2    C     C_3   0.450772 0.897222 0.947902 -0.069339
C3    C     C_3   0.307972 0.953079 0.768725 -0.828159
C4    C     C_3   0.628614 0.000823 0.143285 0.084401
C5    C     C_3   0.692028 0.046921 0.231275 -0.828158
C6    C     C_3   0.445305 0.031914 0.026411 -0.320688
C7    C     C_3   0.554695 0.968086 0.973589 -0.320688
C8    C     C_3   0.413123 0.436531 0.448217 -0.137860
C9    C     C_3   0.586876 0.563469 0.551783 -0.137859
C10   C     C_3   0.477568 0.403102 0.443269 -0.178368
C11   C     C_3   0.522432 0.596898 0.556731 -0.178368
C12   C     C_3   0.550892 0.500087 0.449483 0.065209
C13   C     C_3   0.449108 0.499913 0.550517 0.065209
C14   C     C_3   0.487412 0.533586 0.453645 -0.182965
C15   C     C_R   0.887937 0.779938 0.390298 0.785306
C16   C     C_3   0.512588 0.466414 0.546355 -0.182964
C17   C     C_R   0.226585 0.193968 0.805188 -0.116120
C18   C     C_R   0.773415 0.806032 0.194812 -0.116120
C19   C     C_R   0.392930 0.781110 0.888395 0.836323
C20   C     C_R   0.607070 0.218890 0.111605 0.836323
C21   C     C_R   0.182930 0.144994 0.715496 -0.125341
C22   C     C_R   0.817070 0.855006 0.284504 -0.125342
C23   C     C_R   0.090118 0.099343 0.684949 0.156699
C24   C     C_R   0.909882 0.900657 0.315051 0.156699
C25   C     C_R   0.041336 0.101849 0.744757 -0.138030
C26   C     C_3   0.976965 0.424178 0.414296 -0.135449
C27   C     C_R   0.958663 0.898151 0.255242 -0.138030
C28   C     C_R   0.085298 0.151021 0.834422 -0.148043
C29   C     C_R   0.914702 0.848979 0.165578 -0.148043
C30   C     C_R   0.177869 0.197221 0.864649 -0.103956
C31   C     C_R   0.822131 0.802779 0.135351 -0.103955
C32   C     C_R   0.986879 0.943707 0.535461 -0.262915
C33   C     C_R   0.013121 0.056293 0.464539 -0.262915
C34   C     C_R   0.943183 0.892324 0.445191 -0.049365
C35   C     C_R   0.056817 0.107676 0.554809 -0.049365
C36   C     C_R   0.955821 0.949201 0.409170 -0.012875
C37   C     C_3   0.023035 0.575822 0.585704 -0.135449
C38   C     C_R   0.044179 0.050798 0.590830 -0.012875
C39   C     C_R   0.639373 0.555311 0.773906 -0.148526
C40   C     C_R   0.360627 0.444689 0.226094 -0.148526
C41   C     C_R   0.595796 0.518629 0.822949 -0.224745
C42   C     C_R   0.404204 0.481371 0.177051 -0.224745
C43   C     C_R   0.110480 0.500465 0.889321 0.803289
C44   C     C_R   0.889519 0.499535 0.110678 0.803289
C45   C     C_R   0.587786 0.583598 0.901916 0.137791
C46   C     C_R   0.412213 0.416402 0.098084 0.137790
C47   C     C_R   0.625319 0.687597 0.932277 0.291521
C48   C     C_3   0.441361 0.966026 0.929405 0.569477
C49   C     C_R   0.374681 0.312403 0.067723 0.291521
C50   C     C_R   0.668231 0.722847 0.881649 -0.136373
C51   C     C_R   0.331769 0.277152 0.118351 -0.136373
C52   C     C_R   0.675162 0.657054 0.802975 -0.148839
C53   C     C_R   0.324838 0.342946 0.197025 -0.148840
C54   C     C_R   0.590168 0.538687 0.006871 -0.276942
C55   C     C_R   0.409831 0.461313 0.993129 -0.276942
C56   C     C_R   0.550158 0.498863 0.055247 -0.045629
C57   C     C_R   0.449842 0.501137 0.944753 -0.045629
C58   C     C_R   0.458794 0.458918 0.048165 -0.009632
C59   C     C_3   0.558639 0.033973 0.070595 0.569477
C60   C     C_R   0.541206 0.541082 0.951835 -0.009631
C61   C     C_R   0.109153 0.769099 0.926484 0.175835
C62   C     C_R   0.890847 0.230901 0.073516 0.175835
C63   C     C_R   0.095490 0.717947 0.968407 0.521776
C64   C     C_R   0.904510 0.282053 0.031593 0.521776
C65   C     C_R   0.022281 0.612723 0.923845 -0.008838
C66   C     C_R   0.977718 0.387277 0.076155 -0.008839
C67   C     C_R   0.392354 0.500062 0.607705 0.775042
C68   C     C_R   0.607646 0.499938 0.392295 0.775041
C69   C     C_R   0.959936 0.562163 0.841836 -0.228835
C70   C     C_3   0.544637 0.037375 0.954311 -0.314380
C71   C     C_R   0.040064 0.437837 0.158164 -0.228835
C72   C     C_R   0.971191 0.614629 0.802934 -0.181931
C73   C     C_R   0.028808 0.385371 0.197066 -0.181930
C74   C     C_R   0.045609 0.717216 0.844655 -0.186180
C75   C     C_R   0.954390 0.282784 0.155345 -0.186179
C76   C     C_R   0.957700 0.550326 0.014706 -0.276010
C77   C     C_R   0.042300 0.449674 0.985294 -0.276009
C78   C     C_R   0.945755 0.497854 0.053928 -0.033717
C79   C     C_R   0.054245 0.502146 0.946072 -0.033717
C80   C     C_R   0.987992 0.445923 0.038347 0.071294
C81   C     C_3   0.455363 0.962625 0.045689 -0.314379
C82   C     C_R   0.012008 0.554077 0.961653 0.071294
C83   C     C_R   0.393994 0.499582 0.888142 0.803428
C84   C     C_R   0.606006 0.500417 0.111858 0.803428
C85   C     C_R   0.109065 0.500399 0.607789 0.779268
C86   C     C_R   0.890935 0.499600 0.392211 0.779267
C87   C     C_3   0.074726 0.517133 0.477579 -0.178418
C88   C     C_3   0.925274 0.482867 0.522421 -0.178418
C89   C     C_3   0.045482 0.592081 0.511313 -0.181546
C90   C     C_3   0.954517 0.407919 0.488687 -0.181546
C91   C     C_3   0.948574 0.499170 0.448856 0.061167
C92   C     C_3   0.549228 0.102778 0.052098 -0.069339
C93   C     C_3   0.051426 0.500830 0.551144 0.061167
C94   C     C_3   0.618964 0.761838 0.015874 -0.988366
C95   C     C_3   0.381036 0.238162 0.984126 -0.988366
C96   C     C_3   0.191338 0.877113 0.965832 -0.926778
C97   C     C_3   0.808662 0.122887 0.034167 -0.926778
C98   C     C_3   0.131860 0.822595 0.118629 0.058628
C99   C     C_3   0.194547 0.871182 0.208077 -0.813737
C100  C     C_3   0.868140 0.177405 0.881371 0.058629
C101  C     C_3   0.805454 0.128818 0.791923 -0.813737
C102  C     C_3   0.371386 0.999177 0.856715 0.084401
H1    H     H_    0.082014 0.667721 0.519799 0.130282
H2    H     H_    0.030239 0.932854 0.277801 0.116143
H3    H     H_    0.047684 0.153733 0.880547 0.112913
H4    H     H_    0.952316 0.846267 0.119453 0.112913
H5    H     H_    0.978198 0.900373 0.563080 0.172312
H6    H     H_    0.021802 0.099627 0.436919 0.172312
H7    H     H_    0.708508 0.685098 0.764574 0.127652
H8    H     H_    0.291492 0.314902 0.235426 0.127652
H9    H     H_    0.645367 0.504719 0.713208 0.128309
H10   H     H_    0.354633 0.495281 0.286792 0.128309
H11   H     H_    0.568040 0.439292 0.799323 0.133300
H12   H     H_    0.917985 0.332279 0.480201 0.130281
H13   H     H_    0.431960 0.560708 0.200677 0.133300
H14   H     H_    0.136874 0.531179 0.459906 0.127769
H15   H     H_    0.863126 0.468821 0.540094 0.127769
H16   H     H_    0.696387 0.801651 0.903266 0.126490
H17   H     H_    0.303613 0.198349 0.096734 0.126490
H18   H     H_    0.660054 0.567775 0.011346 0.175257
H19   H     H_    0.339946 0.432225 0.988654 0.175257
H20   H     H_    0.054462 0.756123 0.812615 0.144904
H21   H     H_    0.945537 0.243876 0.187385 0.144904
H22   H     H_    0.903210 0.481719 0.807636 0.148556
H23   H     H_    0.211798 0.235677 0.934155 0.131112
H24   H     H_    0.096790 0.518281 0.192364 0.148556
H25   H     H_    0.922969 0.575087 0.739444 0.144911
H26   H     H_    0.077030 0.424913 0.260556 0.144911
H27   H     H_    0.924561 0.589012 0.025274 0.161425
H28   H     H_    0.075439 0.410988 0.974726 0.161424
H29   H     H_    0.956807 0.361364 0.343319 0.142185
H30   H     H_    0.043193 0.638636 0.656681 0.142185
H31   H     H_    0.580356 0.068912 0.917117 0.164079
H32   H     H_    0.419644 0.931088 0.082883 0.164079
H33   H     H_    0.401538 0.059339 0.048428 0.159657
H34   H     H_    0.788202 0.764323 0.065845 0.131112
H35   H     H_    0.598462 0.940661 0.951572 0.159657
H36   H     H_    0.460212 0.323696 0.395673 0.133399
H37   H     H_    0.539788 0.676304 0.604327 0.133399
H38   H     H_    0.340944 0.384480 0.406554 0.136771
H39   H     H_    0.659056 0.615520 0.593446 0.136771
H40   H     H_    0.478637 0.561600 0.414920 0.129722
H41   H     H_    0.521363 0.438400 0.585080 0.129722
H42   H     H_    0.586337 0.728307 0.052680 0.244380
H43   H     H_    0.687662 0.832762 0.061441 0.228864
H44   H     H_    0.578638 0.783936 0.997721 0.252629
H45   H     H_    0.298273 0.230000 0.828643 0.130947
H46   H     H_    0.413663 0.271692 0.947320 0.244380
H47   H     H_    0.421362 0.216064 0.002279 0.252629
H48   H     H_    0.312338 0.167238 0.938559 0.228864
H49   H     H_    0.227275 0.876154 0.916637 0.275106
H50   H     H_    0.170646 0.930089 0.981664 0.216336
H51   H     H_    0.239528 0.908255 0.027575 0.270107
H52   H     H_    0.829354 0.069911 0.018336 0.216336
H53   H     H_    0.772725 0.123846 0.083362 0.275105
H54   H     H_    0.760472 0.091745 0.972424 0.270107
H55   H     H_    0.061464 0.770423 0.113538 0.140180
H56   H     H_    0.701727 0.770000 0.171356 0.130947
H57   H     H_    0.137733 0.885855 0.117345 0.139960
H58   H     H_    0.265460 0.925279 0.216149 0.252282
H59   H     H_    0.175752 0.915001 0.263090 0.199368
H60   H     H_    0.188940 0.809586 0.211873 0.256917
H61   H     H_    0.862268 0.114144 0.882655 0.139960
H62   H     H_    0.938537 0.229577 0.886463 0.140180
H63   H     H_    0.811061 0.190414 0.788126 0.256917
H64   H     H_    0.824249 0.084999 0.736910 0.199368
H65   H     H_    0.734541 0.074720 0.783851 0.252282
H66   H     H_    0.438610 0.066030 0.870489 0.139631
H67   H     H_    0.221400 0.143697 0.670130 0.101937
H68   H     H_    0.342914 0.026777 0.909898 0.142862
H69   H     H_    0.239900 0.886907 0.753804 0.254224
H70   H     H_    0.302164 0.013067 0.773106 0.207852
H71   H     H_    0.334491 0.925236 0.713752 0.254052
H72   H     H_    0.657086 0.973223 0.090102 0.142862
H73   H     H_    0.561391 0.933970 0.129511 0.139631
H74   H     H_    0.665509 0.074764 0.286248 0.254052
H75   H     H_    0.697836 0.986933 0.226894 0.207852
H76   H     H_    0.760100 0.113093 0.246196 0.254224
H77   H     H_    0.778600 0.856303 0.329870 0.101937
H78   H     H_    0.969760 0.067146 0.722199 0.116143
O1    O     O_3   0.251620 0.500000 0.748430 -0.485198
O2    O     O_R   0.570330 0.268390 0.136490 -0.661078
O3    O     O_R   0.134680 0.268390 0.572240 -0.651164
O4    O     O_R   0.865320 0.731610 0.427760 -0.651163
O5    O     O_R   0.306670 0.731630 0.863510 -0.605822
O6    O     O_R   0.693330 0.268370 0.136490 -0.605823
O7    O     O_R   0.135450 0.439270 0.865360 -0.651995
O8    O     O_R   0.864550 0.560730 0.134640 -0.651994
O9    O     O_R   0.429670 0.560710 0.692610 -0.633386
O10   O     O_R   0.570330 0.439290 0.307390 -0.633385
O11   O     O_R   0.308540 0.439240 0.865360 -0.647526
O12   O     O_3   0.748380 0.500000 0.251570 -0.485198
O13   O     O_R   0.691460 0.560760 0.134640 -0.647526
O14   O     O_R   0.133580 0.439310 0.571150 -0.646572
O15   O     O_R   0.866420 0.560690 0.428850 -0.646572
O16   O     O_R   0.430770 0.560690 0.864590 -0.636421
O17   O     O_R   0.569230 0.439310 0.135410 -0.636421
O18   O     O_R   0.133580 0.560760 0.692610 -0.633880
O19   O     O_R   0.866420 0.439240 0.307390 -0.633880
O20   O     O_3   0.156695 0.767362 0.049355 -0.615995
O21   O     O_3   0.843306 0.232637 0.950644 -0.615995
O22   O     O_3   0.377438 0.922061 0.850549 -0.613680
O23   O     O_R   0.134680 0.560740 0.864590 -0.631910
O24   O     O_3   0.622562 0.077939 0.149451 -0.613680
O25   O     O_R   0.865320 0.439260 0.135410 -0.631911
O26   O     O_R   0.306670 0.439270 0.571150 -0.651504
O27   O     O_R   0.693330 0.560730 0.428850 -0.651504
O28   O     O_R   0.135450 0.268370 0.694460 -0.632581
O29   O     O_R   0.864550 0.731630 0.305540 -0.632581
O30   O     O_R   0.429670 0.731610 0.863510 -0.661078
Zn1   Zn    Zn3+2 0.207400 0.586780 0.791530 1.003637
Zn2   Zn    Zn3+2 0.792600 0.413220 0.208470 1.003637
Zn3   Zn    Zn3+2 0.208510 0.413230 0.792630 0.964134
Zn4   Zn    Zn3+2 0.791490 0.586770 0.207370 0.964134
Zn5   Zn    Zn3+2 0.383150 0.586740 0.791530 0.965382
Zn6   Zn    Zn3+2 0.616850 0.413260 0.208470 0.965382
Zn7   Zn    Zn3+2 0.207400 0.413250 0.618010 0.953218
Zn8   Zn    Zn3+2 0.792600 0.586750 0.381990 0.953218

loop_
_geom_bond_atom_site_label_1
_geom_bond_atom_site_label_2
_ccdc_geom_bond_type
C53   H8    S    
C102  H68   S    
C64   O21   S    
C63   C65   A    
C45   C60   S    
C94   H44   S    
C8    C13   S    
C46   C58   S    
O6    Zn2   S    
C90   H12   S    
C27   C29   A    
C19   O30   A    
C37   C88   S    
C2    C7    S    
C24   C27   A    
O12   Zn8   S    
C102  H66   S    
C7    C70   S    
C14   H40   S    
C1    O3    A    
C25   H78   S    
C81   H32   S    
C40   H10   S    
C54   C60   A    
C25   C28   A    
C20   C92   S    
C46   C49   A    
C24   C36   S    
C6    C48   S    
C75   H21   S    
C83   O11   A    
C17   H45   S    
C9    C16   S    
C76   C78   A    
C54   H18   S    
C86   C91   S    
C11   C14   S    
C65   C69   A    
C85   O14   A    
C4    O24   S    
C43   C79   S    
O30   Zn5   S    
C96   H50   S    
C48   O22   S    
C27   H2    S    
C100  O21   S    
C33   C36   A    
C63   O20   S    
C48   C70   S    
C101  H65   S    
O19   Zn2   S    
C42   C46   A    
C97   H54   S    
O12   Zn4   S    
C83   O16   A    
C61   C63   A    
C1    O28   A    
C11   H37   S    
O12   Zn2   S    
C62   C64   A    
C55   H19   S    
O9    Zn5   S    
C99   H59   S    
C85   C93   S    
C59   O24   S    
C3    H71   S    
C96   H51   S    
C26   C87   S    
C49   C51   A    
C32   H5    S    
C70   H31   S    
C50   C52   A    
O5    Zn1   S    
C71   H24   S    
C95   H47   S    
C68   O10   A    
C89   C91   S    
C18   C22   A    
C84   O13   A    
C15   C34   S    
C34   C36   A    
C6    C92   S    
C86   O19   A    
C9    C11   S    
O14   Zn7   S    
C94   H43   S    
O4    Zn8   S    
C39   C52   A    
C30   H23   S    
O3    Zn7   S    
C6    C81   S    
C4    H72   S    
C99   H58   S    
C89   H1    S    
O2    Zn6   S    
C17   C30   A    
C73   C75   A    
O23   Zn1   S    
C33   H6    S    
C7    C59   S    
C56   C84   S    
C47   C50   A    
C77   C79   A    
O26   Zn7   S    
C54   C56   A    
C61   C96   S    
C72   H25   S    
C31   H34   S    
O13   Zn4   S    
C35   C38   A    
C72   C74   A    
C76   C82   A    
C7    H35   S    
O16   Zn5   S    
O8    Zn4   S    
C4    C5    S    
C57   C60   A    
C77   H28   S    
C69   H22   S    
C2    C48   S    
C26   C91   S    
C96   H49   S    
C4    H73   S    
C17   C21   A    
C51   C53   A    
C64   C66   A    
C69   C72   A    
C44   C78   S    
C6    H33   S    
C18   H56   S    
C86   O15   A    
C62   C97   S    
C12   C68   S    
C76   H27   S    
C85   O18   A    
C51   H17   S    
C66   C71   A    
C88   C91   S    
C43   O7    A    
C28   H3    S    
C15   O4    A    
C16   H41   S    
C68   O27   A    
C57   C83   S    
C37   C93   S    
C100  H62   S    
C95   H48   S    
C97   H52   S    
C49   C95   S    
C101  H63   S    
O18   Zn1   S    
O17   Zn6   S    
C5    H75   S    
C87   H14   S    
C67   O26   A    
C10   C12   S    
C44   O8    A    
C3    C102  S    
C8    C10   S    
C74   H20   S    
C88   C90   S    
C98   C99   S    
C32   C38   A    
C21   C23   A    
O1    Zn7   S    
C61   C74   A    
C5    H74   S    
C22   C24   A    
C62   C75   A    
C13   C16   S    
C23   C38   S    
C98   H55   S    
C1    C35   S    
C90   C93   S    
C20   O2    A    
C13   C67   S    
C77   C80   A    
O27   Zn8   S    
C8    C14   S    
C2    C19   S    
C50   H16   S    
C70   C92   S    
C95   H46   S    
C59   C81   S    
C12   C14   S    
C22   H77   S    
C79   C82   A    
O1    Zn3   S    
O1    Zn5   S    
O28   Zn3   S    
C37   C89   S    
C84   O17   A    
C26   C90   S    
C73   H26   S    
C66   C80   S    
O29   Zn4   S    
O25   Zn2   S    
C37   H30   S    
C98   O20   S    
O1    Zn1   S    
C94   H42   S    
C55   C57   A    
C102  O22   S    
C41   H11   S    
C28   C30   A    
C29   C31   A    
C10   C16   S    
C98   H57   S    
C19   O5    A    
C43   O23   A    
C39   H9    S    
C11   C13   S    
C3    H69   S    
C65   C82   S    
C52   H7    S    
C21   H67   S    
C87   C93   S    
C40   C42   A    
C44   O25   A    
C33   C35   A    
C47   C94   S    
C56   C58   A    
C100  H61   S    
C78   C80   A    
C59   C92   S    
C97   H53   S    
C101  H64   S    
C29   H4    S    
C9    C12   S    
C5    H76   S    
C9    H39   S    
C3    H70   S    
C8    H38   S    
C20   O6    A    
C42   H13   S    
C23   C25   A    
C45   C47   A    
O7    Zn3   S    
C39   C41   A    
C15   O29   A    
C40   C53   A    
C55   C58   A    
C71   C73   A    
C67   O9    A    
C87   C89   S    
C41   C45   A    
C2    C81   S    
C100  C101  S    
C18   C31   A    
C10   H36   S    
C88   H15   S    
C99   H60   S    
O10   Zn6   S    
O12   Zn6   S    
O15   Zn8   S    
O11   Zn3   S    
C26   H29   S    
C32   C34   A    
