data_mof_unit_58227.cif
_audit_creation_date              2012-12-10T18:33:45-0500
_audit_creation_method            fapswitch 2.2
_symmetry_space_group_name_H-M    P1
_symmetry_Int_Tables_number       1
_space_group_crystal_system       triclinic
_cell_length_a                    10.503358
_cell_length_b                    15.158591
_cell_length_c                    15.420402
_cell_angle_alpha                 80.394878
_cell_angle_beta                  94.518768
_cell_angle_gamma                 103.649398
_cell_volume                      2350.39947173

loop_
_atom_site_label
_atom_site_type_symbol
_atom_type_description
_atom_site_fract_x
_atom_site_fract_y
_atom_site_fract_z
_atom_type_partial_charge
C1    C     C_R   0.477583 0.441216 0.661714 0.858122
C2    C     C_R   0.454885 0.472732 0.046904 0.022304
C3    C     C_R   0.476096 0.384363 0.081119 -0.228010
C4    C     C_R   0.367883 0.570918 0.927455 -0.240074
C5    C     C_R   0.473537 0.317638 0.027691 0.085465
C6    C     C_R   0.380563 0.641180 0.978401 0.071643
C7    C     C_R   0.735624 0.849840 0.617202 0.049448
C8    C     C_R   0.264983 0.150821 0.382390 0.028634
C9    C     C_R   0.675246 0.755784 0.613949 0.186701
C10   C     C_R   0.330436 0.244360 0.382539 0.146944
C11   C     C_R   0.510741 0.796474 0.510552 0.197842
C12   C     C_R   0.519223 0.558274 0.337751 0.854783
C13   C     C_R   0.485075 0.202820 0.492901 0.199868
C14   C     C_R   0.549849 0.888293 0.528085 -0.082835
C15   C     C_R   0.445241 0.110894 0.475976 -0.087062
C16   C     C_R   0.742156 0.500685 0.501373 0.860006
C17   C     C_R   0.257780 0.499188 0.499116 0.849605
C18   C     C_R   0.677579 0.918310 0.565693 0.001462
C19   C     C_R   0.318853 0.081690 0.436512 0.007846
C20   C     C_R   0.469176 0.952437 0.505744 0.080779
C21   C     C_R   0.525315 0.046686 0.498523 0.073980
C22   C     C_R   0.661518 0.074797 0.506466 -0.187842
C23   C     C_R   0.419200 0.454253 0.809457 -0.284121
C24   C     C_R   0.332802 0.924770 0.496252 -0.188101
C25   C     C_R   0.738491 0.014616 0.547660 0.132639
C26   C     C_R   0.257167 0.985565 0.453539 0.129325
C27   C     C_3   0.941000 0.430667 0.560619 -0.156330
C28   C     C_3   0.058880 0.569390 0.440546 -0.157656
C29   C     C_3   0.057024 0.509384 0.580524 -0.175733
C30   C     C_3   0.942960 0.490632 0.420635 -0.178518
C31   C     C_3   0.121598 0.497852 0.498934 0.028190
C32   C     C_3   0.878325 0.502105 0.502157 0.027804
C33   C     C_3   0.008110 0.419177 0.479033 -0.149894
C34   C     C_R   0.523972 0.532525 0.185967 -0.248500
C35   C     C_3   0.991693 0.580879 0.522191 -0.150432
C36   C     C_R   0.454118 0.401735 0.753973 -0.064335
C37   C     C_R   0.516967 0.592737 0.243073 -0.064397
C38   C     C_R   0.464505 0.282134 0.877252 -0.211078
C39   C     C_R   0.446991 0.694753 0.121076 -0.206687
C40   C     C_R   0.467058 0.312695 0.787286 -0.156291
C41   C     C_R   0.486318 0.676730 0.209299 -0.162345
C42   C     C_3   0.312257 0.312356 0.300691 -0.336710
C43   C     C_3   0.203094 0.363511 0.304455 -0.276906
C44   C     C_3   0.144822 0.391661 0.212962 -0.882042
C45   C     C_R   0.423104 0.427912 0.901203 0.097285
C46   C     C_3   0.721546 0.682405 0.679939 -0.337114
C47   C     C_3   0.638725 0.654405 0.762339 -0.340404
C48   C     C_3   0.680848 0.716934 0.832207 -0.803537
C49   C     C_3   0.501888 0.223724 0.065901 -0.415729
C50   C     C_3   0.527374 0.204353 0.166220 -0.372099
C51   C     C_3   0.554225 0.108863 0.195092 -0.804142
C52   C     C_3   0.341177 0.731450 0.940534 -0.416172
C53   C     C_3   0.293773 0.742360 0.843046 -0.380031
C54   C     C_3   0.266129 0.837307 0.811937 -0.802295
C55   C     C_3   0.882394 0.054329 0.570014 -0.366089
C56   C     C_R   0.470989 0.543406 0.099526 0.078641
C57   C     C_3   0.947211 0.149809 0.521814 -0.429684
C58   C     C_3   0.091310 0.176800 0.552210 -0.804307
C59   C     C_3   0.114346 0.946879 0.427742 -0.364590
C60   C     C_3   0.047913 0.850923 0.474133 -0.427061
C61   C     C_3   0.904551 0.824642 0.442102 -0.808678
C62   C     C_R   0.452323 0.341395 0.936034 0.115087
C63   C     C_R   0.433171 0.627320 0.065607 0.108230
C64   C     C_R   0.413550 0.490275 0.958028 0.028833
H1    H     H_    0.107963 0.516726 0.645704 0.132600
H2    H     H_    0.399132 0.518784 0.779105 0.138770
H3    H     H_    0.488134 0.727188 0.251167 0.191640
H4    H     H_    0.483697 0.267465 0.744633 0.192563
H5    H     H_    0.479688 0.213788 0.899677 0.142656
H6    H     H_    0.421491 0.760077 0.098678 0.142650
H7    H     H_    0.492984 0.365530 0.150051 0.130517
H8    H     H_    0.318477 0.578500 0.864061 0.143391
H9    H     H_    0.222465 0.436103 0.170144 0.270824
H10   H     H_    0.097753 0.330093 0.182236 0.289868
H11   H     H_    0.069344 0.430663 0.218424 0.245802
H12   H     H_    0.892311 0.483191 0.355391 0.135101
H13   H     H_    0.123279 0.319536 0.345761 0.225333
H14   H     H_    0.243068 0.427489 0.332014 0.245576
H15   H     H_    0.405946 0.358036 0.282068 0.193010
H16   H     H_    0.292335 0.276538 0.242570 0.200746
H17   H     H_    0.786436 0.723216 0.851039 0.281534
H18   H     H_    0.659931 0.785472 0.808207 0.284336
H19   H     H_    0.624477 0.686852 0.892071 0.246767
H20   H     H_    0.534526 0.653473 0.742930 0.225983
H21   H     H_    0.647382 0.584333 0.793191 0.222255
H22   H     H_    0.718089 0.621646 0.650015 0.220023
H23   H     H_    0.705884 0.145328 0.482317 0.160712
H24   H     H_    0.827059 0.700696 0.698627 0.196598
H25   H     H_    0.468906 0.055318 0.176857 0.266764
H26   H     H_    0.642826 0.102883 0.163711 0.264612
H27   H     H_    0.571099 0.096986 0.267722 0.254949
H28   H     H_    0.613760 0.255841 0.186789 0.223608
H29   H     H_    0.440122 0.207564 0.200353 0.231752
H30   H     H_    0.416978 0.169693 0.047769 0.211967
H31   H     H_    0.590079 0.216878 0.034477 0.206198
H32   H     H_    0.188817 0.848422 0.851364 0.277608
H33   H     H_    0.356713 0.891587 0.818183 0.259648
H34   H     H_    0.287514 0.854208 0.519656 0.159696
H35   H     H_    0.231676 0.842777 0.741675 0.259566
H36   H     H_    0.370218 0.733446 0.801413 0.226234
H37   H     H_    0.201768 0.690083 0.833921 0.226909
H38   H     H_    0.262147 0.739355 0.980544 0.207158
H39   H     H_    0.428123 0.788578 0.947327 0.206844
H40   H     H_    0.099146 0.187440 0.622154 0.267176
H41   H     H_    0.142919 0.122396 0.545923 0.268498
H42   H     H_    0.140569 0.241614 0.511792 0.258027
H43   H     H_    0.940161 0.149450 0.449609 0.252392
H44   H     H_    0.898973 0.202680 0.537443 0.241505
H45   H     H_    0.890195 0.374599 0.610432 0.164540
H46   H     H_    0.890911 0.060238 0.641081 0.253784
H47   H     H_    0.939848 0.006583 0.555115 0.229757
H48   H     H_    0.851859 0.877698 0.450925 0.266741
H49   H     H_    0.898334 0.817557 0.371260 0.267264
H50   H     H_    0.855522 0.758027 0.479828 0.258566
H51   H     H_    0.096723 0.798381 0.458393 0.242239
H52   H     H_    0.052997 0.850015 0.546499 0.249104
H53   H     H_    0.056018 0.994576 0.441556 0.230298
H54   H     H_    0.109189 0.942365 0.356436 0.250281
H55   H     H_    0.109491 0.625325 0.390556 0.165029
H56   H     H_    0.016468 0.353407 0.460632 0.141499
H57   H     H_    0.981630 0.646083 0.541439 0.146145
H58   H     H_    0.567808 0.475821 0.212444 0.137248
I1    I     I_    0.617368 0.235377 0.601586 -0.438544
I2    I     I_    0.378944 0.764529 0.401697 -0.445200
I3    I     I_    0.901558 0.881497 0.709696 -0.543174
I4    I     I_    0.101238 0.122906 0.287922 -0.514069
N1    N     N_R   0.574200 0.731700 0.552740 -0.139866
N2    N     N_R   0.425800 0.268300 0.447260 -0.129880
O1    O     O_R   0.462600 0.383110 0.605620 -0.576525
O2    O     O_R   0.537400 0.616890 0.394380 -0.575538
O3    O     O_R   0.510210 0.531900 0.639510 -0.639517
O4    O     O_R   0.489790 0.468100 0.360490 -0.634206
O5    O     O_R   0.662240 0.425610 0.483080 -0.582678
O6    O     O_R   0.337760 0.574390 0.516920 -0.581060
O7    O     O_R   0.709860 0.574400 0.516970 -0.654190
O8    O     O_R   0.290140 0.425600 0.483030 -0.641617
Zn1   Zn    Zn3+2 0.468210 0.400660 0.477370 0.949351
Zn2   Zn    Zn3+2 0.531790 0.599340 0.522630 0.940214

loop_
_geom_bond_atom_site_label_1
_geom_bond_atom_site_label_2
_ccdc_geom_bond_type
O7    Zn2   S    
C38   C40   A    
C58   H40   S    
C52   H39   S    
C34   C56   A    
C23   C45   A    
C27   C29   S    
C34   C37   A    
C14   C18   A    
C3    H7    S    
C11   I2    S    
C9    C46   S    
N2    Zn1   S    
C39   C41   A    
C53   C54   S    
C27   C33   S    
C43   H14   S    
O5    Zn1   S    
C52   H38   S    
C9    N1    A    
C12   O2    A    
C24   H34   S    
C47   H21   S    
C23   H2    S    
C24   C26   A    
C1    O1    A    
C51   H26   S    
C42   H16   S    
C13   I1    S    
C11   C14   A    
C10   C42   S    
C45   C62   A    
C48   H17   S    
C12   C37   S    
C19   C26   A    
C51   H27   S    
C15   C19   A    
C13   N2    A    
C20   C24   A    
C28   C35   S    
C53   H37   S    
C22   C25   A    
C31   C33   S    
C54   H33   S    
N1    Zn2   S    
C49   H30   S    
C26   C59   S    
C54   H32   S    
C38   H5    S    
C59   C60   S    
C59   H53   S    
C21   C22   A    
C46   H22   S    
C17   O6    A    
C5    C49   S    
C18   C25   A    
C10   N2    A    
C16   O5    A    
C2    C64   A    
C46   H24   S    
C53   H36   S    
C8    C19   A    
C42   H15   S    
C32   C35   S    
C14   C20   A    
C36   C40   A    
C41   H3    S    
C3    C5    A    
O4    Zn1   S    
C22   H23   S    
C7    I3    S    
C60   C61   S    
C58   H42   S    
C6    C63   A    
C44   H11   S    
C11   N1    A    
C43   C44   S    
C30   H12   S    
C47   C48   S    
C35   H57   S    
C7    C18   A    
C17   O8    A    
C50   C51   S    
C56   C63   A    
C47   H20   S    
C49   H31   S    
C44   H10   S    
C29   H1    S    
C8    I4    S    
C57   H43   S    
C49   C50   S    
C59   H54   S    
C13   C15   A    
C55   H46   S    
C61   H49   S    
C17   C31   S    
C54   H35   S    
C60   H52   S    
C4    C6    A    
C16   C32   S    
C42   C43   S    
O2    Zn2   S    
C4    H8    S    
C52   C53   S    
C50   H28   S    
C7    C9    A    
C4    C64   A    
C46   C47   S    
C12   O4    A    
C30   C33   S    
C55   H47   S    
C27   C32   S    
C28   C31   S    
C25   C55   S    
O8    Zn1   S    
C1    O3    A    
C28   H55   S    
O6    Zn2   S    
C50   H29   S    
C43   H13   S    
C39   C63   A    
C29   C35   S    
C45   C64   A    
C48   H19   S    
C58   H41   S    
C55   C57   S    
C2    C3    A    
C29   C31   S    
O3    Zn2   S    
C2    C56   A    
C51   H25   S    
C30   C32   S    
C16   O7    A    
C57   C58   S    
C28   C30   S    
C39   H6    S    
C48   H18   S    
C5    C62   A    
C37   C41   A    
C44   H9    S    
C8    C10   A    
C15   C21   A    
C57   H44   S    
O1    Zn1   S    
C20   C21   A    
C27   H45   S    
C33   H56   S    
C34   H58   S    
C23   C36   A    
C40   H4    S    
C61   H50   S    
C60   H51   S    
C6    C52   S    
C61   H48   S    
C1    C36   S    
C38   C62   A    
