data_mof_unit_9625.cif
_audit_creation_date              2012-12-11T16:30:24-0500
_audit_creation_method            fapswitch 2.2
_symmetry_space_group_name_H-M    P1
_symmetry_Int_Tables_number       1
_space_group_crystal_system       triclinic
_cell_length_a                    6.974144
_cell_length_b                    14.454401
_cell_length_c                    16.006113
_cell_angle_alpha                 89.999972
_cell_angle_beta                  90.285632
_cell_angle_gamma                 90.000249
_cell_volume                      1613.50936775

loop_
_atom_site_label
_atom_site_type_symbol
_atom_type_description
_atom_site_fract_x
_atom_site_fract_y
_atom_site_fract_z
_atom_type_partial_charge
O1    O     O_R   0.611670 0.415650 0.164070 -0.544699
O2    O     O_R   0.388330 0.915650 0.835930 -0.544699
O3    O     O_R   0.940950 0.405490 0.337780 -0.553876
O4    O     O_R   0.059050 0.905490 0.662220 -0.553871
O5    O     O_R   0.111350 0.584350 0.338470 -0.525022
O6    O     O_R   0.888650 0.084350 0.661530 -0.525021
C1    C     C_R   0.772101 0.382292 0.366070 0.710942
C2    C     C_R   0.227898 0.882291 0.633930 0.710929
O7    O     O_R   0.941380 0.404630 0.164680 -0.546171
O8    O     O_R   0.058620 0.904630 0.835320 -0.546172
O9    O     O_R   0.111780 0.583470 0.164130 -0.530492
O10   O     O_R   0.888220 0.083470 0.835870 -0.530494
C3    C     C_R   0.772334 0.382850 0.135992 0.676781
C4    C     C_R   0.227665 0.882850 0.864008 0.676779
O11   O     O_R   0.611240 0.416530 0.338400 -0.535115
O12   O     O_R   0.388760 0.916530 0.661600 -0.535111
O13   O     O_3   0.778020 0.558680 0.251290 -0.335904
O14   O     O_3   0.221980 0.058680 0.748710 -0.335908
V1    V     V_3+5 0.052840 0.489110 0.251260 1.458689
V2    V     V_3+5 0.947160 0.989110 0.748740 1.458704
O15   O     O_R   0.441500 0.594510 0.164760 -0.543770
O16   O     O_R   0.558500 0.094510 0.835240 -0.543772
C5    C     C_R   0.272519 0.616348 0.136165 0.696194
C6    C     C_R   0.727481 0.116348 0.863835 0.696184
O17   O     O_R   0.441080 0.595370 0.337860 -0.507525
O18   O     O_R   0.558920 0.095370 0.662140 -0.507533
C7    C     C_R   0.273394 0.618121 0.366713 0.771937
C8    C     C_R   0.726607 0.118123 0.633289 0.772030
V3    V     V_3+5 0.552850 0.510890 0.251270 1.508018
V4    V     V_3+5 0.447150 0.010890 0.748730 1.508022
O19   O     O_3   0.277800 0.441320 0.251250 -0.386383
O20   O     O_3   0.722200 0.941320 0.748750 -0.386381
C9    C     C_3   0.115856 0.657793 0.505538 0.181059
C10   C     C_3   0.884149 0.157801 0.494468 0.181058
H1    H     H_    0.970737 0.659384 0.476672 0.200728
H2    H     H_    0.029267 0.159404 0.523335 0.200708
C11   C     C_3   0.113369 0.725491 0.581070 -0.337513
C12   C     C_3   0.886628 0.225494 0.418934 -0.337565
H3    H     H_    0.166270 0.690055 0.638391 0.156464
H4    H     H_    0.833727 0.190055 0.361615 0.156467
H5    H     H_    0.962902 0.747024 0.593415 0.153061
H6    H     H_    0.037092 0.247027 0.406585 0.153065
H7    H     H_    0.016695 0.871105 0.483635 0.202021
H8    H     H_    0.983289 0.371120 0.516365 0.202009
C13   C     C_3   0.206677 0.786823 0.404924 0.120704
C14   C     C_3   0.793324 0.286829 0.595079 0.120629
C15   C     C_3   0.467311 0.702428 0.482806 0.521655
C16   C     C_3   0.532691 0.202431 0.517197 0.521649
C17   C     C_3   0.266646 0.688797 0.438216 -0.039460
C18   C     C_3   0.733356 0.188802 0.561787 -0.039397
C19   C     C_3   0.239992 0.811268 0.563546 -0.062633
C20   C     C_3   0.760005 0.311270 0.436456 -0.062624
C21   C     C_3   0.171953 0.854363 0.479414 -0.372975
C22   C     C_3   0.828037 0.354369 0.520587 -0.372960
C23   C     C_3   0.449932 0.776245 0.553783 -0.394644
C24   C     C_3   0.550068 0.276246 0.446219 -0.394655
H9    H     H_    0.502227 0.747853 0.614385 0.135390
H10   H     H_    0.497778 0.247850 0.385618 0.135394
H11   H     H_    0.543691 0.836718 0.540533 0.189410
H12   H     H_    0.456307 0.336716 0.459465 0.189401
H13   H     H_    0.323360 0.816286 0.366298 0.124662
H14   H     H_    0.676647 0.316291 0.633708 0.124682
H15   H     H_    0.249522 0.920396 0.467852 0.157887
H16   H     H_    0.750453 0.420397 0.532147 0.157917
H17   H     H_    0.073959 0.572530 0.760115 0.148665
H18   H     H_    0.926037 0.072531 0.239885 0.148658
C25   C     C_R   0.334063 0.938246 0.031662 -0.148240
C26   C     C_R   0.665934 0.438246 0.968339 -0.148240
C27   C     C_R   0.385160 0.967243 0.111757 -0.085026
C28   C     C_R   0.614836 0.467242 0.888243 -0.085033
C29   C     C_R   0.396342 0.903664 0.176713 -0.057763
C30   C     C_R   0.603655 0.403663 0.823288 -0.057753
C31   C     C_R   0.356206 0.810597 0.162095 -0.091201
C32   C     C_R   0.643793 0.310597 0.837905 -0.091183
C33   C     C_R   0.304713 0.778926 0.081353 0.063177
C34   C     C_R   0.695286 0.278925 0.918647 0.063172
C35   C     C_R   0.293278 0.844079 0.014753 0.048498
C36   C     C_R   0.706720 0.344079 0.985247 0.048498
C37   C     C_R   0.262246 0.684328 0.066615 -0.159217
C38   C     C_R   0.737755 0.184328 0.933385 -0.159213
C39   C     C_R   0.209745 0.654713 0.985096 0.025001
C40   C     C_R   0.790256 0.154713 0.014904 0.025002
C41   C     C_R   0.196983 0.719972 0.918710 0.075454
C42   C     C_R   0.803017 0.219972 0.081290 0.075453
C43   C     C_R   0.238491 0.814694 0.933480 -0.166071
C44   C     C_R   0.761508 0.314694 0.066520 -0.166070
C45   C     C_R   0.173587 0.560158 0.967814 -0.254918
C46   C     C_R   0.826415 0.060158 0.032186 -0.254917
C47   C     C_R   0.125335 0.530273 0.886841 0.409221
C48   C     C_R   0.874665 0.030273 0.113160 0.409221
C49   C     C_R   0.111140 0.594936 0.822704 -0.134333
C50   C     C_R   0.888859 0.094936 0.177296 -0.134334
C51   C     C_R   0.146543 0.688295 0.837986 -0.243626
C52   C     C_R   0.853455 0.188295 0.162015 -0.243625
H19   H     H_    0.325307 0.990670 0.983559 0.109915
H20   H     H_    0.674688 0.490669 0.016441 0.109917
H21   H     H_    0.415415 0.039562 0.123529 0.117653
H22   H     H_    0.584579 0.539561 0.876472 0.117654
H23   H     H_    0.435567 0.926619 0.238872 0.124154
H24   H     H_    0.564429 0.426618 0.761128 0.124157
H25   H     H_    0.365210 0.764023 0.214841 0.114897
H26   H     H_    0.634790 0.264023 0.785159 0.114895
H27   H     H_    0.185233 0.508516 0.016501 0.105739
H28   H     H_    0.814770 0.008516 0.983499 0.105739
H29   H     H_    0.135708 0.735162 0.785544 0.114093
H30   H     H_    0.864288 0.235162 0.214457 0.114094
O21   O     O_3   0.093583 0.438305 0.868302 -0.638180
H31   H     H_    0.111010 0.401089 0.919834 0.291513
O22   O     O_3   0.906417 0.938305 0.131698 -0.638183
H32   H     H_    0.888990 0.901089 0.080167 0.291512
O23   O     O_3   0.151739 0.567468 0.534357 -0.652079
H33   H     H_    0.093594 0.524167 0.493420 0.283427
O24   O     O_3   0.848274 0.067472 0.465658 -0.652083
H34   H     H_    0.906610 0.024181 0.506551 0.283436
O25   O     O_3   0.045657 0.781228 0.352662 -0.604870
H35   H     H_    0.031886 0.842269 0.324704 0.332552
O26   O     O_3   0.954348 0.281235 0.647339 -0.604879
H36   H     H_    0.968150 0.342284 0.675276 0.332574
Br1   Br    Br    0.659124 0.748772 0.404981 -0.563632
Br2   Br    Br    0.340882 0.248778 0.595022 -0.563663
O27   O     O_3   0.539620 0.617577 0.513125 -0.629910
H37   H     H_    0.481952 0.604074 0.568246 0.315660
O28   O     O_3   0.460380 0.117580 0.486881 -0.629909
H38   H     H_    0.518057 0.104072 0.431763 0.315665

loop_
_geom_bond_atom_site_label_1
_geom_bond_atom_site_label_2
_ccdc_geom_bond_type
V4    O20   S    
C23   H11   S    
O13   V3    S    
O23   H33   S    
C25   C35   A    
O4    C2    A    
V1    O19   S    
C16   O28   S    
O28   H38   S    
C16   Br2   S    
C10   O24   S    
O9    V1    S    
C26   H20   S    
C33   C37   A    
C32   C34   A    
C14   H14   S    
O16   C6    A    
C42   C44   A    
C1    C20   S    
C12   H6    S    
O3    C1    A    
C30   H24   S    
C11   C19   S    
C15   O27   S    
C12   C20   S    
C9    C17   S    
O25   H35   S    
C41   C51   A    
O17   V3    S    
C16   C24   S    
O9    C5    A    
C27   C29   A    
O7    C3    A    
C46   H28   S    
O5    C7    A    
C8    C18   S    
C6    C38   S    
O6    C8    A    
O8    V2    S    
C3    C44   S    
O21   H31   S    
O3    V1    S    
O14   V4    S    
C47   C49   A    
C19   C23   S    
C32   H26   S    
C51   H29   S    
C36   C44   A    
C16   C18   S    
C13   C21   S    
C2    O12   A    
C25   H19   S    
C31   C33   A    
C14   C22   S    
C50   C52   A    
C39   C41   A    
O7    V1    S    
O11   V3    S    
O15   C5    A    
C26   C36   A    
C10   C18   S    
C7    C17   S    
C30   C32   A    
O8    C4    A    
C37   C39   A    
O13   V1    S    
H18   C50   S    
C29   H23   S    
C9    C11   S    
C24   H12   S    
C14   O26   S    
C25   C27   A    
H8    C22   S    
C49   C51   A    
C13   O25   S    
C48   C50   A    
C13   C17   S    
O10   V2    S    
O1    V3    S    
C20   C22   S    
C42   C52   A    
C33   C35   A    
C2    C19   S    
O27   H37   S    
C39   C45   A    
C10   H2    S    
C9    O23   S    
C38   C40   A    
C41   C43   A    
C46   C48   A    
O18   V4    S    
C40   C42   A    
C23   H9    S    
O17   C7    A    
C45   H27   S    
O1    C3    A    
C15   Br1   S    
C15   C23   S    
O24   H34   S    
V2    O20   S    
H17   C49   S    
C14   C18   S    
C52   H30   S    
C31   H25   S    
O16   V4    S    
C10   C12   S    
C34   C38   A    
C4    C43   S    
C34   C36   A    
O5    V1    S    
C15   C17   S    
O6    V2    S    
O10   C6    A    
O18   C8    A    
O2    V4    S    
C5    C37   S    
C45   C47   A    
C13   H13   S    
C11   H3    S    
O22   H32   S    
C12   H4    S    
C21   H15   S    
O15   V3    S    
C40   C46   A    
C1    O11   A    
C9    H1    S    
H7    C21   S    
C24   H10   S    
O14   V2    S    
C11   H5    S    
O2    C4    A    
C35   C43   A    
C47   O21   S    
O4    V2    S    
C28   H22   S    
C22   H16   S    
V3    O19   S    
C29   C31   A    
C26   C28   A    
C28   C30   A    
C48   O22   S    
C19   C21   S    
O26   H36   S    
O12   V4    S    
C20   C24   S    
C27   H21   S    
