data_mof_unit_44125.cif
_audit_creation_date              2012-12-11T17:00:25-0500
_audit_creation_method            fapswitch 2.2
_symmetry_space_group_name_H-M    P1
_symmetry_Int_Tables_number       1
_space_group_crystal_system       triclinic
_cell_length_a                    6.960626
_cell_length_b                    13.569661
_cell_length_c                    20.252861
_cell_angle_alpha                 102.990064
_cell_angle_beta                  90.638432
_cell_angle_gamma                 89.977587
_cell_volume                      1863.87597198

loop_
_atom_site_label
_atom_site_type_symbol
_atom_type_description
_atom_site_fract_x
_atom_site_fract_y
_atom_site_fract_z
_atom_type_partial_charge
O1    O     O_R   0.506770 0.599700 0.449550 -0.539116
O2    O     O_R   0.179980 0.595740 0.587960 -0.545825
O3    O     O_R   0.004580 0.400300 0.550450 -0.531136
C1    C     C_R   0.348659 0.617755 0.615061 0.693803
O4    O     O_R   0.177380 0.611700 0.452380 -0.541397
O5    O     O_R   0.001970 0.416370 0.413900 -0.538619
C2    C     C_R   0.344660 0.638406 0.435664 0.693983
O6    O     O_R   0.509390 0.583630 0.586100 -0.537493
O7    O     O_3   0.337530 0.435890 0.487530 -0.370897
V1    V     V_3+5 0.064660 0.511890 0.502310 1.417084
O8    O     O_R   0.671950 0.404260 0.412040 -0.546452
C3    C     C_R   0.840072 0.383305 0.384558 0.682956
O9    O     O_R   0.674540 0.388300 0.547620 -0.546526
C4    C     C_R   0.844334 0.360927 0.563740 0.725789
V2    V     V_3+5 0.564030 0.488110 0.497690 1.402331
O10   O     O_3   0.841030 0.564110 0.512470 -0.372271
C5    C     C_R   0.919403 0.109313 0.610701 -0.223689
H1    H     H_    0.954578 0.986455 0.694782 0.117558
H2    H     H_    0.952725 0.031645 0.586348 0.130082
C6    C     C_R   0.855777 0.281230 0.601839 -0.134240
C7    C     C_R   0.818484 0.315022 0.928995 -0.168821
C8    C     C_R   0.796819 0.390027 0.892783 -0.120481
C9    C     C_R   0.810456 0.366718 0.822372 -0.159627
C10   C     C_R   0.847192 0.266517 0.786023 0.094477
C11   C     C_R   0.871365 0.190141 0.823701 0.068126
C12   C     C_R   0.860676 0.239470 0.713727 0.076704
C13   C     C_R   0.901194 0.137654 0.681277 0.074894
C14   C     C_R   0.924358 0.064408 0.719334 -0.183329
C15   C     C_R   0.908757 0.089958 0.789305 -0.195096
C16   C     C_R   0.837141 0.309966 0.672389 -0.283749
C17   C     C_R   0.894833 0.179303 0.570307 0.411717
C18   C     C_R   0.856083 0.215408 0.895265 -0.077604
H3    H     H_    0.807355 0.388632 0.693422 0.114735
H4    H     H_    0.805066 0.334623 0.983652 0.100013
H5    H     H_    0.791448 0.429070 0.798156 0.106291
H6    H     H_    0.768021 0.467030 0.919496 0.116499
H7    H     H_    0.927016 0.030232 0.816331 0.107411
C19   C     C_R   0.713040 0.178944 0.227985 0.116583
C20   C     C_R   0.868024 0.181902 0.184908 -0.114516
C21   C     C_R   0.022257 0.246597 0.211123 -0.187553
H8    H     H_    0.144440 0.251944 0.179730 0.136772
C22   C     C_R   0.014157 0.310623 0.276303 -0.171740
H9    H     H_    0.131086 0.362906 0.293263 0.129361
C23   C     C_R   0.851041 0.312427 0.317177 -0.109790
C24   C     C_R   0.704232 0.242960 0.292354 0.090098
C25   C     C_3   0.495504 0.262142 0.284326 -0.416977
C26   C     C_3   0.504873 0.191703 0.214737 -0.400086
H10   H     H_    0.466597 0.342075 0.282510 0.165397
H11   H     H_    0.405944 0.231957 0.320276 0.178447
H12   H     H_    0.479796 0.230443 0.172532 0.167828
H13   H     H_    0.422940 0.120399 0.210962 0.169357
C27   C     C_R   0.501696 0.679644 0.730244 0.100302
C28   C     C_R   0.352415 0.683846 0.684190 -0.108482
C29   C     C_R   0.195540 0.747544 0.707920 -0.176899
H14   H     H_    0.075886 0.752741 0.674418 0.128143
C30   C     C_R   0.196518 0.810027 0.773679 -0.174369
H15   H     H_    0.078679 0.861669 0.788682 0.123922
C31   C     C_R   0.354756 0.811152 0.817621 -0.108479
C32   C     C_R   0.503389 0.742230 0.795107 0.100563
C33   C     C_3   0.714004 0.760696 0.792784 -0.398640
C34   C     C_3   0.711974 0.692347 0.722220 -0.408252
H16   H     H_    0.795624 0.728560 0.830479 0.171626
H17   H     H_    0.746765 0.840966 0.793104 0.167842
H18   H     H_    0.791941 0.620540 0.719130 0.166977
H19   H     H_    0.743735 0.732815 0.681579 0.169190
C35   C     C_R   0.229383 0.879962 0.384898 -0.162153
H20   H     H_    0.226524 0.830372 0.477989 0.107148
H21   H     H_    0.175357 0.999884 0.299750 0.129078
H22   H     H_    0.164457 0.951688 0.407859 0.136715
C36   C     C_R   0.343728 0.716601 0.396452 -0.038083
C37   C     C_R   0.428438 0.686516 0.071660 -0.162462
C38   C     C_R   0.455255 0.612388 0.108236 -0.120653
C39   C     C_R   0.426994 0.634364 0.177970 -0.159761
C40   C     C_R   0.367743 0.731849 0.212989 0.078666
C41   C     C_R   0.331653 0.806263 0.174538 0.070598
C42   C     C_R   0.342336 0.757823 0.284731 0.073915
C43   C     C_R   0.268559 0.854873 0.315421 0.143788
C44   C     C_R   0.230991 0.925678 0.276531 -0.216242
C45   C     C_R   0.264882 0.902486 0.207441 -0.207302
C46   C     C_R   0.384023 0.690387 0.327172 -0.219925
C47   C     C_R   0.265125 0.811079 0.424950 -0.168956
C48   C     C_R   0.366640 0.783241 0.103938 -0.081239
H23   H     H_    0.440261 0.615598 0.307779 0.095796
H24   H     H_    0.458352 0.668781 0.017878 0.102259
H25   H     H_    0.451456 0.573030 0.202746 0.103780
H26   H     H_    0.501803 0.537586 0.082510 0.115702
H27   H     H_    0.234773 0.960463 0.179875 0.126797
O11   O     O_R   0.203450 0.916320 0.913910 -0.541851
O12   O     O_R   0.535520 0.888300 0.047620 -0.538330
O13   O     O_R   0.710860 0.083650 0.086100 -0.537511
C49   C     C_R   0.368075 0.861946 0.064693 0.688778
O14   O     O_R   0.532860 0.904250 0.912040 -0.542051
O15   O     O_R   0.708190 0.099710 0.949550 -0.537241
C50   C     C_R   0.363987 0.882528 0.884824 0.697541
O16   O     O_R   0.206120 0.900260 0.050460 -0.540078
O17   O     O_3   0.375280 0.064080 0.012470 -0.371349
V3    V     V_3+5 0.648180 0.988110 0.997690 1.416053
O18   O     O_R   0.038220 0.111740 0.952370 -0.540193
C51   C     C_R   0.868566 0.138189 0.935534 0.688324
O19   O     O_R   0.040880 0.095790 0.087940 -0.547370
C52   C     C_R   0.873039 0.117058 0.115306 0.692401
V4    V     V_3+5 0.148800 0.011950 0.002300 1.405289
O20   O     O_3   0.871820 0.935920 0.987530 -0.370233
O21   O     O_3   0.925166 0.145204 0.501248 -0.593267
C53   C     C_3   0.762371 0.156562 0.460841 0.050739
H28   H     H_    0.791731 0.112876 0.408613 0.143912
H29   H     H_    0.747415 0.235509 0.456029 0.124767
C54   C     C_3   0.572518 0.116471 0.483367 -0.339919
H30   H     H_    0.584903 0.034005 0.480700 0.200115
H31   H     H_    0.538006 0.155364 0.536211 0.196064
C55   C     C_3   0.406720 0.135733 0.438205 -0.799443
H32   H     H_    0.394980 0.217766 0.439481 0.241564
H33   H     H_    0.270642 0.111141 0.457236 0.261543
H34   H     H_    0.428481 0.093086 0.385244 0.219568

loop_
_geom_bond_atom_site_label_1
_geom_bond_atom_site_label_2
_ccdc_geom_bond_type
O17   V4    S    
C1    C28   S    
C39   C40   A    
C55   H32   S    
C1    O6    A    
C2    C36   S    
C45   H27   S    
C6    C16   A    
C43   C44   A    
C30   H15   S    
C53   H29   S    
C25   H11   S    
C12   C13   A    
C40   C42   A    
C33   H17   S    
C14   C15   A    
C10   C12   A    
C27   C34   S    
O5    C3    A    
C19   C20   A    
C35   H22   S    
V2    O10   S    
C54   H30   S    
C33   H16   S    
C36   C47   A    
C19   C24   A    
C29   H14   S    
O8    V2    S    
C54   H31   S    
C9    C10   A    
O1    V2    S    
O12   C49   A    
O7    V1    S    
O15   C51   A    
O13   V3    S    
O16   V4    S    
C37   C48   A    
C11   C18   A    
C21   C22   A    
C32   C33   S    
O9    C4    A    
C11   C15   A    
C22   C23   A    
C46   H23   S    
O19   V4    S    
O21   C53   S    
C7    C18   A    
O14   V3    S    
C20   C52   S    
C26   H12   S    
C29   C30   A    
H21   C44   S    
C53   C54   S    
O11   C50   A    
C40   C41   A    
C36   C46   A    
C5    C13   A    
C4    C6    S    
H1    C14   S    
C10   C11   A    
C20   C21   A    
O4    C2    A    
C44   C45   A    
C26   H13   S    
C7    H4    S    
C31   C32   A    
C28   C29   A    
C48   C49   S    
O12   V3    S    
C33   C34   S    
C34   H18   S    
O2    C1    A    
O13   C52   A    
C27   C32   A    
C34   H19   S    
O11   V4    S    
O17   V3    S    
O14   C50   A    
C55   H33   S    
C42   C43   A    
C39   H25   S    
C19   C26   S    
V3    O20   S    
O3    C4    A    
C21   H8    S    
H20   C47   S    
O6    V2    S    
C9    H5    S    
O9    V2    S    
C5    C17   A    
C22   H9    S    
O2    V1    S    
O15   V3    S    
C27   C28   A    
C37   H24   S    
C35   C43   A    
C25   C26   S    
C16   H3    S    
O1    C2    A    
C23   C24   A    
C42   C46   A    
C38   C39   A    
O5    V1    S    
C38   H26   S    
O8    C3    A    
C18   C51   S    
C41   C48   A    
C12   C16   A    
C8    H6    S    
C53   H28   S    
C54   C55   S    
C17   O21   S    
O7    V2    S    
O4    V1    S    
C3    C23   S    
O3    V1    S    
O18   V4    S    
C35   C47   A    
O19   C52   A    
C5    H2    S    
C30   C31   A    
C55   H34   S    
C31   C50   S    
V4    O20   S    
C49   O16   A    
C25   H10   S    
C24   C25   S    
C37   C38   A    
O18   C51   A    
C15   H7    S    
C13   C14   A    
C8    C9    A    
V1    O10   S    
C7    C8    A    
C41   C45   A    
C6    C17   A    
