data_mof_unit_43463.cif
_audit_creation_date              2012-10-26T18:50:27-0400
_audit_creation_method            fapswitch 2.2
_symmetry_space_group_name_H-M    P1
_symmetry_Int_Tables_number       1
_space_group_crystal_system       triclinic
_cell_length_a                    9.677377
_cell_length_b                    10.953904
_cell_length_c                    15.552267
_cell_angle_alpha                 86.565227
_cell_angle_beta                  73.105755
_cell_angle_gamma                 91.383636
_cell_volume                      1573.14427776

loop_
_atom_site_label
_atom_site_type_symbol
_atom_type_description
_atom_site_fract_x
_atom_site_fract_y
_atom_site_fract_z
_atom_type_partial_charge
C1    C     C_R   0.000122 0.262255 0.496363 0.582315
C2    C     C_R   0.243608 0.357110 0.070010 -0.001416
C3    C     C_R   0.327304 0.443679 0.100321 0.043712
C4    C     C_R   0.917483 0.496771 0.673107 0.572385
C5    C     C_R   0.098748 0.326001 0.122790 0.093555
C6    C     C_R   0.043405 0.379315 0.204836 -0.080500
C7    C     C_R   0.255470 0.514763 0.171916 0.098241
C8    C     C_R   0.267274 0.119978 0.419878 -0.017689
C9    C     C_R   0.396636 0.068308 0.427289 0.052567
C10   C     C_R   0.386750 0.959670 0.482292 0.267916
C11   C     C_R   0.253045 0.899247 0.522618 0.284412
C12   C     C_R   0.679322 0.458995 0.917579 0.004202
C13   C     C_R   0.128949 0.942154 0.503814 -0.007027
C14   C     C_R   0.132059 0.065059 0.471656 -0.095783
C15   C     C_R   0.999718 0.126813 0.492586 0.000381
C16   C     C_R   0.999052 0.736486 0.507254 0.571693
C17   C     C_R   0.868882 0.055015 0.523114 0.261274
C18   C     C_R   0.871148 0.928374 0.531369 -0.053682
C19   C     C_R   0.000303 0.869793 0.517945 -0.009283
C20   C     C_R   0.705476 0.659192 0.376467 -0.065244
C21   C     C_R   0.667022 0.740236 0.315598 0.050987
C22   C     C_R   0.520173 0.750009 0.320886 0.053250
C23   C     C_R   0.775956 0.499593 0.963781 0.007547
C24   C     C_R   0.418121 0.668680 0.381730 -0.036492
C25   C     C_R   0.455752 0.581442 0.440967 0.143812
C26   C     C_R   0.604868 0.578941 0.439531 0.114900
C27   C     C_R   0.542925 0.427421 0.559392 0.401602
C28   C     C_R   0.082181 0.496390 0.328099 0.572302
C29   C     C_R   0.397537 0.422565 0.556219 0.398907
C30   C     C_R   0.873670 0.491026 0.774253 -0.051466
C31   C     C_R   0.124627 0.468113 0.232336 0.014286
C32   C     C_R   0.923569 0.520247 0.917748 0.230088
C33   C     C_R   0.974227 0.506397 0.824687 0.073279
C34   C     C_R   0.534978 0.420408 0.967909 0.011927
C35   C     C_R   0.727150 0.466369 0.822577 -0.076287
C36   C     C_2   0.004565 0.231725 0.100236 0.608531
C37   C     C_2   0.271267 0.208896 0.343180 0.596483
C38   C     C_2   0.540570 0.127160 0.379767 0.688251
C39   C     C_2   0.784838 0.814423 0.249348 0.655543
C40   C     C_2   0.290940 0.648683 0.168183 0.618927
C41   C     C_2   0.467203 0.849019 0.269834 0.609532
C42   C     C_2   0.132324 0.499709 0.786278 0.687271
C43   C     C_R   0.478699 0.458301 0.056603 0.050718
C44   C     C_R   0.578572 0.496226 0.101792 0.272020
C45   C     C_R   0.724179 0.514392 0.056002 0.006169
C46   C     C_R   0.450023 0.335109 0.937775 0.218228
C47   C     C_R   0.307328 0.304831 0.988278 -0.017870
Cl1   Cl    Cl    0.697394 0.115049 0.551579 -0.376709
Cl2   Cl    Cl    0.540338 0.891306 0.497559 -0.524462
Cl3   Cl    Cl    0.235643 0.797576 0.617454 -0.403548
Cl4   Cl    Cl    0.582314 0.343064 0.647299 -0.399151
Cl5   Cl    Cl    0.275693 0.310497 0.625994 -0.426026
Cl6   Cl    Cl    0.048005 0.565742 0.975702 -0.555561
Cl7   Cl    Cl    0.536428 0.497673 0.219089 -0.575767
Cl8   Cl    Cl    0.526591 0.235867 0.853251 -0.442671
Cu1   Cu    Cu3+1 0.140660 0.499990 0.500010 1.147162
Cu2   Cu    Cu3+1 0.859340 0.500010 0.499990 1.080415
H1    H     H_    0.796214 0.539894 0.094293 0.218766
H2    H     H_    0.672842 0.278336 0.357971 0.356293
H3    H     H_    0.891107 0.859197 0.118717 0.385703
H4    H     H_    0.408693 0.796777 0.098760 0.386386
H5    H     H_    0.300081 0.950221 0.260720 0.363660
H6    H     H_    0.311439 0.413076 0.791386 0.379913
H7    H     H_    0.770952 0.874489 0.551970 0.228242
H8    H     H_    0.816569 0.663771 0.372635 0.197945
H9    H     H_    0.310043 0.674800 0.379358 0.214841
H10   H     H_    0.939562 0.346146 0.249974 0.162903
H11   H     H_    0.248025 0.238830 0.962317 0.226545
H12   H     H_    0.649001 0.455354 0.786051 0.217662
H13   H     H_    0.803121 0.180874 0.099317 0.380855
H14   H     H_    0.123015 0.110943 0.303169 0.322653
N1    N     N_R   0.648320 0.501210 0.499140 -0.268508
N2    N     N_R   0.352470 0.501290 0.499110 -0.243688
O1    O     O_R   0.118810 0.319640 0.500010 -0.461116
O2    O     O_R   0.857587 0.252127 0.115271 -0.664175
O3    O     O_2   0.352631 0.299043 0.327332 -0.364199
O4    O     O_R   0.183379 0.190385 0.287567 -0.701654
O5    O     O_2   0.633913 0.068493 0.330956 -0.434190
O6    O     O_R   0.570781 0.248827 0.393061 -0.618442
O7    O     O_2   0.868481 0.877619 0.275422 -0.449019
O8    O     O_R   0.805480 0.806219 0.157136 -0.612467
O9    O     O_2   0.212762 0.712451 0.222222 -0.487460
O10   O     O_R   0.403448 0.704427 0.097585 -0.643205
O11   O     O_2   0.547686 0.903269 0.202241 -0.430421
O12   O     O_R   0.881240 0.319660 0.500000 -0.433350
O13   O     O_R   0.323778 0.882760 0.300978 -0.711952
O14   O     O_2   0.202558 0.581798 0.734607 -0.399332
O15   O     O_R   0.202453 0.403971 0.817057 -0.623342
O16   O     O_R   0.055570 0.499980 0.629840 -0.440991
O17   O     O_R   0.818000 0.500010 0.629830 -0.462633
O18   O     O_R   0.118760 0.680340 0.500000 -0.497002
O19   O     O_R   0.881190 0.680360 0.499990 -0.528801
O20   O     O_R   0.182000 0.499990 0.370170 -0.470901
O21   O     O_R   0.944430 0.500020 0.370160 -0.555447
O22   O     O_2   0.052516 0.134268 0.073339 -0.468230

loop_
_geom_bond_atom_site_label_1
_geom_bond_atom_site_label_2
_ccdc_geom_bond_type
C23   C45   A    
Cu2   O19   S    
H6    O15   S    
C27   C29   A    
C26   N1    A    
C32   Cl6   S    
C17   Cl1   S    
C41   O13   S    
H5    O13   S    
C12   C23   A    
C3    C43   A    
C30   C35   A    
C1    O1    A    
C3    C7    A    
C5    C6    A    
C22   C41   S    
C29   N2    A    
C38   O6    S    
C5    C36   S    
Cu1   Cu2   S    
C28   O21   A    
C18   C19   A    
Cu1   O18   S    
C8    C9    A    
C46   Cl8   S    
C7    C40   S    
C1    C15   S    
C9    C10   A    
C24   H9    S    
C6    C31   A    
C13   C14   A    
C40   O10   S    
C27   Cl4   S    
C4    O17   A    
C1    O12   A    
Cu1   O20   S    
C45   H1    S    
C7    C31   A    
Cu2   O17   S    
C13   C19   A    
C40   O9    D    
C20   H8    S    
C39   O7    D    
Cu1   O1    S    
C24   C25   A    
C39   O8    S    
H4    O10   S    
H2    O6    S    
C38   O5    D    
C25   C26   A    
C41   O11   D    
C37   O4    S    
C28   O20   A    
C43   C44   A    
C36   O2    S    
H3    O8    S    
C21   C39   S    
C17   C18   A    
C12   C35   A    
C34   C46   A    
C6    H10   S    
C37   O3    D    
C16   O19   A    
Cu2   O21   S    
C22   C24   A    
C2    C5    A    
C42   O15   S    
C8    C37   S    
C33   C42   S    
C12   C34   A    
C47   H11   S    
H14   O4    S    
C44   C45   A    
C4    O16   A    
C15   C17   A    
C46   C47   A    
Cu1   O16   S    
C8    C14   A    
Cu1   N2    S    
C30   C33   A    
C28   C31   S    
C34   C43   A    
C2    C47   A    
C32   C33   A    
C2    C3    A    
C11   Cl3   S    
C23   C32   A    
C11   C13   A    
C36   O22   D    
C18   H7    S    
C20   C26   A    
C16   C19   S    
C9    C38   S    
Cu2   O12   S    
C25   N2    A    
Cu2   N1    S    
C10   C11   A    
C44   Cl7   S    
C20   C21   A    
C35   H12   S    
C16   O18   A    
H13   O2    S    
C14   C15   A    
C42   O14   D    
C21   C22   A    
C10   Cl2   S    
C4    C30   S    
C27   N1    A    
C29   Cl5   S    
