data_mof_unit_28714.cif
_audit_creation_date              2012-12-11T15:39:37-0500
_audit_creation_method            fapswitch 2.2
_symmetry_space_group_name_H-M    P1
_symmetry_Int_Tables_number       1
_space_group_crystal_system       triclinic
_cell_length_a                    17.464453
_cell_length_b                    24.529445
_cell_length_c                    15.110232
_cell_angle_alpha                 89.724404
_cell_angle_beta                  126.194288
_cell_angle_gamma                 90.194531
_cell_volume                      5223.87259148

loop_
_atom_site_label
_atom_site_type_symbol
_atom_type_description
_atom_site_fract_x
_atom_site_fract_y
_atom_site_fract_z
_atom_type_partial_charge
C1    C     C_R   0.347886 0.349718 0.907888 -0.083638
C2    C     C_R   0.688849 0.374196 0.094717 -0.118891
C3    C     C_R   0.847885 0.849718 0.907888 -0.083641
C4    C     C_R   0.188849 0.874196 0.094717 -0.118892
C5    C     C_R   0.366417 0.676242 0.997689 0.102037
C6    C     C_R   0.686645 0.636748 0.001596 0.086894
C7    C     C_R   0.866422 0.176244 0.997688 0.102036
C8    C     C_R   0.186645 0.136748 0.001596 0.086897
C9    C     C_R   0.465552 0.499281 0.289242 -0.012509
C10   C     C_R   0.440803 0.499676 0.638385 0.015947
C11   C     C_R   0.965553 0.999283 0.289244 -0.012514
C12   C     C_R   0.940799 0.999677 0.638383 0.015952
C13   C     C_R   0.174891 0.499935 0.725291 0.146091
C14   C     C_R   0.801981 0.500146 0.368134 0.151175
C15   C     C_R   0.674891 0.999935 0.725291 0.146089
C16   C     C_R   0.301981 0.000146 0.368134 0.151188
C17   C     C_R   0.027956 0.550412 0.612625 0.040147
C18   C     C_R   0.934772 0.550445 0.520507 0.068901
C19   C     C_R   0.527957 0.050412 0.612625 0.040137
C20   C     C_R   0.434772 0.050445 0.520507 0.068898
C21   C     C_R   0.072057 0.501894 0.667526 -0.071124
C22   C     C_R   0.883380 0.501975 0.483372 -0.068111
C23   C     C_R   0.572057 0.001894 0.667526 -0.071125
C24   C     C_R   0.383380 0.001975 0.483371 -0.068103
C25   C     C_R   0.016754 0.454484 0.642853 0.339589
C26   C     C_R   0.919529 0.455283 0.551324 0.336711
C27   C     C_R   0.516754 0.954484 0.642853 0.339588
C28   C     C_R   0.419529 0.955283 0.551325 0.336702
C29   C     C_3   0.911343 0.598895 0.560242 -0.440017
C30   C     C_3   0.012628 0.598562 0.660552 -0.386823
C31   C     C_3   0.411342 0.098895 0.560241 -0.440023
C32   C     C_3   0.512627 0.098562 0.660551 -0.386802
C33   C     C_R   0.239043 0.714956 0.997697 -0.204886
C34   C     C_R   0.835580 0.674986 0.040350 -0.224144
C35   C     C_R   0.739037 0.214957 0.997679 -0.204876
C36   C     C_R   0.335579 0.174985 0.040348 -0.224142
C37   C     C_R   0.699255 0.261272 0.008405 0.478912
C38   C     C_R   0.380613 0.221122 0.034160 0.469536
C39   C     C_R   0.199263 0.761271 0.008424 0.478912
C40   C     C_R   0.880613 0.721123 0.034163 0.469536
C41   C     C_R   0.735127 0.312605 0.008578 -0.135297
C42   C     C_R   0.330019 0.270382 0.995258 -0.137689
C43   C     C_R   0.235126 0.812604 0.008579 -0.135297
C44   C     C_R   0.830018 0.770383 0.995258 -0.137689
C45   C     C_R   0.434484 0.648608 0.090005 -0.151021
C46   C     C_R   0.598801 0.622461 0.909511 -0.153176
C47   C     C_R   0.934487 0.148609 0.090005 -0.151002
C48   C     C_R   0.098800 0.122461 0.909511 -0.153173
C49   C     C_R   0.812863 0.319619 0.005750 0.495432
C50   C     C_R   0.234876 0.274707 0.954703 0.480210
C51   C     C_R   0.312852 0.819617 0.005732 0.495425
C52   C     C_R   0.734874 0.774707 0.954701 0.480212
C53   C     C_R   0.356259 0.773369 0.002376 -0.338235
C54   C     C_R   0.689801 0.728911 0.955230 -0.317201
C55   C     C_R   0.856271 0.273371 0.002394 -0.338243
C56   C     C_R   0.189802 0.228911 0.955232 -0.317202
C57   C     C_R   0.318886 0.722351 0.997725 -0.036728
C58   C     C_R   0.739453 0.680035 0.998179 -0.032288
C59   C     C_R   0.818890 0.222353 0.997724 -0.036726
C60   C     C_R   0.239453 0.180035 0.998179 -0.032292
C61   C     C_R   0.527779 0.477389 0.565851 0.356224
C62   C     C_R   0.532595 0.474968 0.477186 0.357752
C63   C     C_R   0.027815 0.977439 0.565879 0.356137
C64   C     C_R   0.032639 0.975017 0.477219 0.357895
C65   C     C_R   0.457643 0.497520 0.377055 0.052544
C66   C     C_R   0.445154 0.498421 0.548094 0.007857
C67   C     C_R   0.957648 0.997525 0.377060 0.052558
C68   C     C_R   0.945156 0.998426 0.548096 0.007929
C69   C     C_R   0.377933 0.520535 0.362040 -0.208574
C70   C     C_R   0.371037 0.520371 0.448125 -0.172611
C71   C     C_R   0.877902 0.020500 0.362017 -0.208651
C72   C     C_R   0.871005 0.020336 0.448102 -0.172634
C73   C     C_R   0.486185 0.453871 0.253715 -0.104731
C74   C     C_R   0.452742 0.454568 0.698362 -0.078127
C75   C     C_R   0.986193 0.953872 0.253726 -0.104761
C76   C     C_R   0.952746 0.954568 0.698362 -0.078203
C77   C     C_R   0.231737 0.545517 0.751136 -0.151008
C78   C     C_R   0.754696 0.545384 0.303816 -0.170599
C79   C     C_R   0.731738 0.045517 0.751137 -0.151009
C80   C     C_R   0.254696 0.045384 0.303816 -0.170594
C81   C     C_R   0.493681 0.545063 0.262406 0.502403
C82   C     C_R   0.452590 0.545011 0.697320 0.492277
C83   C     C_R   0.993680 0.045063 0.262405 0.502460
C84   C     C_R   0.952588 0.045012 0.697319 0.492325
C85   C     C_R   0.231250 0.454207 0.749951 -0.078662
C86   C     C_R   0.755335 0.454656 0.304253 -0.063105
C87   C     C_R   0.731250 0.954207 0.749951 -0.078660
C88   C     C_R   0.255335 0.954656 0.304253 -0.063113
C89   C     C_R   0.342738 0.648433 0.906850 -0.162119
C90   C     C_R   0.689768 0.624685 0.093101 -0.122476
C91   C     C_R   0.842740 0.148433 0.906850 -0.162133
C92   C     C_R   0.189768 0.124685 0.093101 -0.122479
C93   C     C_R   0.440061 0.349203 0.090411 0.514308
C94   C     C_R   0.596704 0.372746 0.911083 0.588606
C95   C     C_R   0.940059 0.849203 0.090411 0.514327
C96   C     C_R   0.096703 0.872745 0.911084 0.588600
C97   C     C_R   0.375500 0.319318 0.998493 0.065315
C98   C     C_R   0.685009 0.358765 0.004709 0.030271
C99   C     C_R   0.875498 0.819319 0.998493 0.065308
C100  C     C_R   0.185008 0.858764 0.004709 0.030281
H1    H     H_    0.304976 0.336053 0.823657 0.126661
H2    H     H_    0.743848 0.364834 0.179778 0.130419
H3    H     H_    0.804975 0.836053 0.823658 0.126664
H4    H     H_    0.243848 0.864834 0.179779 0.130417
H5    H     H_    0.893622 0.635314 0.507328 0.190419
H6    H     H_    0.020289 0.588562 0.737310 0.225143
H7    H     H_    0.393622 0.135314 0.507327 0.190419
H8    H     H_    0.520288 0.088562 0.737309 0.225150
H9    H     H_    0.859371 0.589440 0.578117 0.208355
H10   H     H_    0.053503 0.634831 0.665905 0.190541
H11   H     H_    0.359370 0.089440 0.578116 0.208353
H12   H     H_    0.553502 0.134831 0.665905 0.190543
H13   H     H_    0.418100 0.776845 0.002191 0.146710
H14   H     H_    0.616187 0.731757 0.925552 0.144443
H15   H     H_    0.918120 0.276847 0.002224 0.146710
H16   H     H_    0.116189 0.231758 0.925556 0.144444
H17   H     H_    0.321501 0.538139 0.283925 0.164135
H18   H     H_    0.309023 0.537543 0.437596 0.182775
H19   H     H_    0.821442 0.038071 0.283880 0.164133
H20   H     H_    0.808965 0.037476 0.437552 0.182729
H21   H     H_    0.474230 0.663936 0.172526 0.144777
H22   H     H_    0.572627 0.629902 0.825660 0.150401
H23   H     H_    0.974234 0.163938 0.172525 0.144778
H24   H     H_    0.072627 0.129902 0.825660 0.150395
H25   H     H_    0.480725 0.411987 0.271122 0.190770
H26   H     H_    0.435671 0.413261 0.668256 0.180328
H27   H     H_    0.980743 0.911988 0.271145 0.190762
H28   H     H_    0.935678 0.913261 0.668256 0.180322
H29   H     H_    0.209912 0.587512 0.739592 0.114502
H30   H     H_    0.764550 0.587043 0.331660 0.108847
H31   H     H_    0.709912 0.087513 0.739593 0.114502
H32   H     H_    0.264550 0.087043 0.331660 0.108846
H33   H     H_    0.210105 0.412034 0.736433 0.162267
H34   H     H_    0.766752 0.412681 0.330810 0.171368
H35   H     H_    0.710105 0.912034 0.736433 0.162267
H36   H     H_    0.266752 0.912681 0.330810 0.171367
H37   H     H_    0.298797 0.662619 0.822817 0.112364
H38   H     H_    0.746120 0.633912 0.177650 0.108144
H39   H     H_    0.798800 0.162619 0.822817 0.112366
H40   H     H_    0.246119 0.133912 0.177650 0.108143
N1    N     N_R   0.394180 0.396910 0.943210 -0.089616
N2    N     N_R   0.605820 0.396910 0.056790 -0.073638
N3    N     N_R   0.894180 0.896910 0.943210 -0.089617
N4    N     N_R   0.105820 0.896910 0.056790 -0.073636
N5    N     N_R   0.450950 0.603070 0.056740 -0.055137
N6    N     N_R   0.549050 0.603070 0.943260 -0.052562
N7    N     N_R   0.950950 0.103070 0.056740 -0.055141
N8    N     N_R   0.049050 0.103070 0.943260 -0.052563
N9    N     N_R   0.525650 0.471570 0.206150 -0.060692
N10   N     N_R   0.474350 0.471570 0.793850 -0.078193
N11   N     N_R   0.025650 0.971570 0.206150 -0.060692
N12   N     N_R   0.974350 0.971570 0.793850 -0.078180
N13   N     N_R   0.319480 0.528420 0.793810 -0.055238
N14   N     N_R   0.680520 0.528420 0.206190 -0.051702
N15   N     N_R   0.819480 0.028420 0.793810 -0.055240
N16   N     N_R   0.180520 0.028420 0.206190 -0.051702
N17   N     N_R   0.525640 0.528390 0.206120 -0.114376
N18   N     N_R   0.474360 0.528390 0.793880 -0.114820
N19   N     N_R   0.025640 0.028390 0.206120 -0.114376
N20   N     N_R   0.974360 0.028390 0.793880 -0.114819
N21   N     N_R   0.319490 0.471590 0.793840 -0.067049
N22   N     N_R   0.680510 0.471590 0.206160 -0.058312
N23   N     N_R   0.819490 0.971590 0.793840 -0.067048
N24   N     N_R   0.180510 0.971590 0.206160 -0.058312
N25   N     N_R   0.394130 0.603080 0.943110 -0.043683
N26   N     N_R   0.605870 0.603080 0.056890 -0.042040
N27   N     N_R   0.894130 0.103080 0.943110 -0.043684
N28   N     N_R   0.105870 0.103080 0.056890 -0.042041
N29   N     N_R   0.450990 0.396900 0.056840 -0.086741
N30   N     N_R   0.549010 0.396900 0.943160 -0.085419
N31   N     N_R   0.950990 0.896900 0.056840 -0.086741
N32   N     N_R   0.049010 0.896900 0.943160 -0.085417
Ni1   Ni    Ni4+2 0.434860 0.434850 0.869700 0.236820
Ni2   Ni    Ni4+2 0.565140 0.434850 0.130300 0.287017
Ni3   Ni    Ni4+2 0.934860 0.934850 0.869700 0.236824
Ni4   Ni    Ni4+2 0.065140 0.934850 0.130300 0.287015
Ni5   Ni    Ni4+2 0.565130 0.565140 0.130240 0.196851
Ni6   Ni    Ni4+2 0.434870 0.565140 0.869760 0.199902
Ni7   Ni    Ni4+2 0.065130 0.065140 0.130240 0.196852
Ni8   Ni    Ni4+2 0.934870 0.065140 0.869760 0.199904
C101  C     C_2   0.196568 0.659724 0.982222 0.514132
H41   H     H_    0.240171 0.623435 0.007253 0.030874
O1    O     O_2   0.111626 0.653970 0.937229 -0.568866
C102  C     C_2   0.886749 0.622985 0.092799 0.532886
H42   H     H_    0.847685 0.584922 0.070360 0.032300
O2    O     O_2   0.972096 0.622227 0.164826 -0.557530
C103  C     C_2   0.696556 0.159726 0.982187 0.514123
H43   H     H_    0.740157 0.123436 0.007220 0.030880
O3    O     O_2   0.611611 0.153974 0.937179 -0.568880
C104  C     C_2   0.386748 0.122984 0.092795 0.532874
H44   H     H_    0.347683 0.084921 0.070356 0.032299
O4    O     O_2   0.472094 0.122225 0.164821 -0.557529
O5    O     O_3   0.625374 0.258375 0.018089 -0.690890
H45   H     H_    0.633691 0.225109 0.060317 0.361818
O6    O     O_3   0.472065 0.219942 0.063786 -0.696814
H46   H     H_    0.484967 0.182991 0.049528 0.360661
O7    O     O_3   0.125390 0.758375 0.018122 -0.690889
H47   H     H_    0.133715 0.725112 0.060359 0.361816
O8    O     O_3   0.972065 0.719944 0.063790 -0.696805
H48   H     H_    0.984969 0.682993 0.049533 0.360669
O9    O     O_3   0.844346 0.371483 0.006418 -0.737877
H49   H     H_    0.899594 0.368672 0.003745 0.322201
O10   O     O_3   0.188596 0.324394 0.917676 -0.729152
H50   H     H_    0.121881 0.319943 0.891798 0.330303
O11   O     O_3   0.344326 0.871482 0.006381 -0.737871
H51   H     H_    0.399565 0.868669 0.003692 0.322201
O12   O     O_3   0.688593 0.824394 0.917672 -0.729150
H52   H     H_    0.621877 0.819942 0.891793 0.330301
O13   O     O_3   0.602793 0.461967 0.670740 -0.743540
H53   H     H_    0.663014 0.467023 0.679061 0.335705
O14   O     O_3   0.609320 0.452442 0.485932 -0.737196
H54   H     H_    0.636186 0.422874 0.541428 0.332448
O15   O     O_3   0.102850 0.962058 0.670784 -0.743547
H55   H     H_    0.163067 0.967198 0.679129 0.335636
O16   O     O_3   0.109398 0.952528 0.485986 -0.737201
H56   H     H_    0.136392 0.923018 0.541609 0.332505
O17   O     O_3   0.515054 0.594255 0.315152 -0.752904
H57   H     H_    0.566525 0.610672 0.314221 0.301319
O18   O     O_3   0.419395 0.595965 0.652494 -0.756770
H58   H     H_    0.413422 0.616806 0.704176 0.305165
O19   O     O_3   0.015050 0.094256 0.315147 -0.752904
H59   H     H_    0.066525 0.110673 0.314221 0.301317
O20   O     O_3   0.919391 0.095965 0.652493 -0.756752
H60   H     H_    0.913421 0.116806 0.704178 0.305159
O21   O     O_3   0.499546 0.330726 0.196839 -0.752360
H61   H     H_    0.477261 0.294258 0.200712 0.337090
O22   O     O_3   0.555845 0.354527 0.806222 -0.763659
H62   H     H_    0.606365 0.338105 0.803868 0.323482
O23   O     O_3   0.999542 0.830727 0.196840 -0.752360
H63   H     H_    0.977256 0.794260 0.200714 0.337090
O24   O     O_3   0.055843 0.854524 0.806223 -0.763684
H64   H     H_    0.106363 0.838102 0.803869 0.323478
O25   O     O_3   0.059275 0.408380 0.706338 -0.743280
H65   H     H_    0.026028 0.375771 0.660838 0.326057
O26   O     O_3   0.859293 0.412162 0.527477 -0.751721
H66   H     H_    0.881743 0.392777 0.596468 0.336053
O27   O     O_3   0.559275 0.908380 0.706338 -0.743281
H67   H     H_    0.526028 0.875771 0.660839 0.326058
O28   O     O_3   0.359293 0.912162 0.527477 -0.751733
H68   H     H_    0.381743 0.892777 0.596468 0.336046

loop_
_geom_bond_atom_site_label_1
_geom_bond_atom_site_label_2
_ccdc_geom_bond_type
C26   O26   S    
C87   N23   A    
O10   H50   S    
N12   N20   A    
C104  H44   S    
C80   H32   S    
C55   C59   A    
C52   O12   S    
C85   N21   A    
O9    H49   S    
C6    C58   S    
C64   O16   S    
C19   C20   A    
C32   H12   S    
N3    Ni3   S    
N23   Ni3   S    
C84   N20   A    
N2    Ni2   S    
N5    N25   A    
C50   O10   S    
C38   O6    S    
C2    C98   A    
C12   C68   S    
C93   N29   A    
C33   C39   A    
C96   C100  A    
C30   H10   S    
C37   C41   A    
C34   C40   A    
C91   H39   S    
C29   H9    S    
C35   C37   A    
C38   C42   A    
C28   O28   S    
C95   N31   A    
C82   N18   A    
N16   Ni7   S    
C65   C69   A    
C94   C98   A    
C95   C99   A    
C3    H3    S    
C48   N8    A    
C102  H42   S    
N6    Ni6   S    
C35   C59   A    
N9    Ni2   S    
C77   H29   S    
C96   O24   S    
C41   C49   A    
C20   C24   A    
N20   Ni8   S    
C21   C25   A    
C77   N13   A    
N4    N32   A    
N13   Ni6   S    
N12   Ni3   S    
C61   C66   A    
C86   H34   S    
C15   C79   A    
C82   O18   S    
O28   H68   S    
C75   N11   A    
C79   N15   A    
C69   H17   S    
C17   C18   A    
C104  O4    D    
O26   H66   S    
C93   O21   S    
C34   C102  S    
C8    C92   A    
C23   C27   A    
C17   C21   A    
N10   N18   A    
O25   H65   S    
C40   C44   A    
C75   H27   S    
C61   C62   A    
N32   Ni3   S    
C68   C72   A    
C94   N30   A    
N2    N30   A    
C25   C26   A    
C44   C52   A    
C15   C23   S    
N27   Ni8   S    
C39   O7    S    
C25   O25   S    
O8    H48   S    
N8    Ni8   S    
O27   H67   S    
C90   N26   A    
N1    Ni1   S    
C17   C30   S    
C37   O5    S    
C69   C70   A    
C9    C73   A    
C19   C32   S    
N15   N23   A    
C7    C59   S    
C90   H38   S    
O23   H63   S    
C53   H13   S    
O13   H53   S    
C49   O9    S    
C10   C66   S    
C13   C77   A    
C81   N17   A    
O12   H52   S    
C64   C67   A    
C87   H35   S    
N6    N26   A    
C3    N3    A    
C43   C100  S    
C14   C86   A    
O20   H60   S    
C96   N32   A    
C101  O1    D    
C1    C97   A    
O18   H58   S    
C18   C29   S    
C53   C57   A    
C20   C31   S    
C78   N14   A    
C61   O13   S    
C12   C84   A    
C11   C83   A    
O17   H57   S    
C88   N24   A    
C5    C45   A    
C10   C82   A    
C50   C56   A    
C56   C60   A    
N13   N21   A    
C16   C80   A    
N11   N19   A    
C101  H41   S    
N29   Ni2   S    
C19   C23   A    
O16   H56   S    
C8    C48   A    
O14   H54   S    
C4    N4    A    
C29   C30   S    
C30   H6    S    
C3    C99   A    
O19   H59   S    
N21   Ni1   S    
C92   N28   A    
C47   H23   S    
O22   H62   S    
O15   H55   S    
C62   O14   S    
C79   H31   S    
N4    Ni4   S    
N1    N29   A    
O21   H61   S    
C56   H16   S    
C13   C21   S    
N26   Ni5   S    
N17   Ni5   S    
C63   O15   S    
C34   C58   A    
C2    N2    A    
C88   H36   S    
N7    N27   A    
C94   O22   S    
C42   C50   A    
C86   N22   A    
C35   C103  S    
C74   H26   S    
C1    H1    S    
C89   H37   S    
C72   H20   S    
C12   C76   A    
C32   H8    S    
N8    N28   A    
C45   N5    A    
C42   C97   S    
C11   C67   S    
N5    Ni5   S    
C92   H40   S    
C93   C97   A    
C7    C91   A    
C27   C28   A    
C80   N16   A    
N15   Ni8   S    
C27   O27   S    
C24   C28   A    
C15   C87   A    
C54   C58   A    
C91   N27   A    
C9    C81   A    
O11   H51   S    
C63   C68   A    
C33   C57   A    
N11   Ni4   S    
C6    C46   A    
C62   C65   A    
C73   N9    A    
C18   C22   A    
C31   H7    S    
N14   N22   A    
C31   C32   S    
C74   N10   A    
C95   O23   S    
N19   Ni7   S    
C63   C64   A    
C36   C60   A    
C84   O20   S    
C48   H24   S    
C39   C43   A    
C51   O11   S    
C4    H4    S    
C81   O17   S    
C36   C104  S    
C40   O8    S    
C5    C57   S    
C76   N12   A    
N28   Ni7   S    
C7    C47   A    
N31   Ni4   S    
C29   H5    S    
C71   H19   S    
C45   H21   S    
C14   C22   S    
C4    C100  A    
C78   H30   S    
N25   Ni6   S    
C71   C72   A    
C47   N7    A    
C6    C90   A    
C8    C60   S    
C33   C101  S    
C10   C74   A    
C43   C51   A    
C46   N6    A    
C55   H15   S    
C70   H18   S    
C73   H25   S    
C54   H14   S    
C36   C38   A    
C44   C99   S    
C102  O2    D    
C52   C54   A    
N24   Ni4   S    
C31   H11   S    
C67   C71   A    
C14   C78   A    
C49   C55   A    
N18   Ni6   S    
O7    H47   S    
C9    C65   S    
C103  O3    D    
C1    N1    A    
N3    N31   A    
O6    H46   S    
C83   O19   S    
N7    Ni7   S    
C103  H43   S    
N10   Ni1   S    
C83   N19   A    
C66   C70   A    
N16   N24   A    
C16   C24   S    
O5    H45   S    
C22   C26   A    
N14   Ni5   S    
C13   C85   A    
O24   H64   S    
C16   C88   A    
N22   Ni2   S    
C2    H2    S    
C41   C98   S    
C46   H22   S    
C11   C75   A    
C51   C53   A    
N9    N17   A    
N30   Ni1   S    
C5    C89   A    
C85   H33   S    
C76   H28   S    
C89   N25   A    
