data_mof_unit_43531.cif
_audit_creation_date              2012-12-10T18:52:19-0500
_audit_creation_method            fapswitch 2.2
_symmetry_space_group_name_H-M    P1
_symmetry_Int_Tables_number       1
_space_group_crystal_system       triclinic
_cell_length_a                    15.755613
_cell_length_b                    10.708302
_cell_length_c                    9.840418
_cell_angle_alpha                 89.994327
_cell_angle_beta                  89.932792
_cell_angle_gamma                 90.113075
_cell_volume                      1660.2302234

loop_
_atom_site_label
_atom_site_type_symbol
_atom_type_description
_atom_site_fract_x
_atom_site_fract_y
_atom_site_fract_z
_atom_type_partial_charge
C1    C     C_R   0.499941 0.259884 0.499952 0.862643
C2    C     C_R   0.451301 0.416789 0.072079 -0.070985
C3    C     C_R   0.337941 0.499939 0.500067 0.906082
C4    C     C_R   0.662059 0.500061 0.499933 0.906081
C5    C     C_3   0.972212 0.385487 0.526346 0.214926
C6    C     C_3   0.027788 0.614511 0.473654 0.214925
C7    C     C_3   0.027878 0.422312 0.405188 0.236682
C8    C     C_3   0.972122 0.577687 0.594812 0.236683
C9    C     C_1   0.249253 0.499929 0.500407 -0.185166
C10   C     C_1   0.750746 0.500070 0.499593 -0.185166
C11   C     C_3   0.027836 0.462253 0.625413 -0.286619
C12   C     C_R   0.500059 0.740116 0.500047 0.862643
C13   C     C_3   0.972164 0.537746 0.374586 -0.286618
C14   C     C_3   0.083492 0.499902 0.501484 -0.005883
C15   C     C_3   0.916508 0.500097 0.498516 -0.005882
C16   C     C_1   0.174154 0.499927 0.500949 -0.042794
C17   C     C_1   0.825846 0.500072 0.499051 -0.042794
C18   C     C_R   0.517524 0.063993 0.379178 -0.197221
C19   C     C_R   0.482476 0.936007 0.620822 -0.197221
C20   C     C_3   0.999851 0.277366 0.218736 -0.772135
C21   C     C_3   0.000150 0.722632 0.781264 -0.772132
C22   C     C_3   0.999064 0.169221 0.593026 -0.809447
C23   C     C_R   0.517619 0.936105 0.379227 -0.196344
C24   C     C_3   0.000935 0.830777 0.406973 -0.809446
C25   C     C_R   0.482381 0.063895 0.620773 -0.196344
C26   C     C_R   0.500074 0.872551 0.500042 -0.010060
C27   C     C_R   0.499926 0.127449 0.499957 -0.010060
C28   C     C_R   0.548718 0.583245 0.071818 -0.070827
C29   C     C_R   0.451282 0.416755 0.928182 -0.070827
C30   C     C_R   0.548699 0.583211 0.927921 -0.070985
H1    H     H_    0.948448 0.568025 0.273672 0.160168
H2    H     H_    0.412352 0.350280 0.126711 0.128200
H3    H     H_    0.108731 0.280556 0.338927 0.220759
H4    H     H_    0.032668 0.224408 0.137233 0.231307
H5    H     H_    0.957385 0.346919 0.170163 0.246774
H6    H     H_    0.961506 0.211087 0.280296 0.257662
H7    H     H_    0.891269 0.719444 0.661074 0.220759
H8    H     H_    0.967333 0.775585 0.862772 0.231307
H9    H     H_    0.038493 0.788914 0.719707 0.257661
H10   H     H_    0.042618 0.653078 0.829832 0.246774
H11   H     H_    0.885878 0.264837 0.617529 0.233314
H12   H     H_    0.051552 0.431974 0.726327 0.160168
H13   H     H_    0.966910 0.077355 0.603465 0.243192
H14   H     H_    0.028167 0.194200 0.692166 0.237448
H15   H     H_    0.049386 0.160098 0.514878 0.247432
H16   H     H_    0.114122 0.735163 0.382472 0.233314
H17   H     H_    0.033089 0.922644 0.396531 0.243191
H18   H     H_    0.950614 0.839901 0.485121 0.247431
H19   H     H_    0.971831 0.805795 0.307833 0.237448
H20   H     H_    0.531733 0.112774 0.285353 0.157240
H21   H     H_    0.468267 0.887226 0.714646 0.157240
H22   H     H_    0.531908 0.887401 0.285441 0.152442
H23   H     H_    0.468092 0.112598 0.714559 0.152442
H24   H     H_    0.587674 0.649784 0.126238 0.123906
H25   H     H_    0.412326 0.350216 0.873762 0.123906
H26   H     H_    0.587648 0.649720 0.873289 0.128200
N1    N     N_R   0.499980 0.499970 0.857200 -0.079855
N2    N     N_R   0.500020 0.500030 0.142800 -0.079855
N3    N     N_2   0.062126 0.339229 0.302965 -0.298868
N4    N     N_2   0.937874 0.660770 0.697035 -0.298868
N5    N     N_2   0.937684 0.262518 0.553504 -0.298886
N6    N     N_2   0.062315 0.737482 0.446497 -0.298885
O1    O     O_R   0.499990 0.316750 0.614620 -0.628929
O2    O     O_R   0.500010 0.683250 0.385380 -0.628929
O3    O     O_R   0.500000 0.316780 0.385290 -0.630084
O4    O     O_R   0.500000 0.683220 0.614710 -0.630084
O5    O     O_R   0.376780 0.499970 0.614640 -0.613599
O6    O     O_R   0.623220 0.500030 0.385360 -0.613599
O7    O     O_R   0.376780 0.500000 0.385310 -0.612294
O8    O     O_R   0.623220 0.500000 0.614690 -0.612293
Zn1   Zn    Zn3+2 0.500000 0.499980 0.653120 0.949817
Zn2   Zn    Zn3+2 0.500000 0.500020 0.346880 0.949817

loop_
_geom_bond_atom_site_label_1
_geom_bond_atom_site_label_2
_ccdc_geom_bond_type
O7    Zn2   S    
C1    O3    A    
C2    N2    A    
C15   C17   S    
O8    Zn1   S    
C3    C9    S    
C28   N2    A    
C6    C14   S    
O3    Zn2   S    
C22   N5    S    
O4    Zn1   S    
C21   H9    S    
C13   C15   S    
H11   N5    S    
O6    Zn2   S    
C20   H4    S    
C6    N6    S    
C4    O8    A    
C4    O6    A    
C5    N5    S    
C28   C30   A    
H3    N3    S    
C8    N4    S    
C20   N3    S    
C24   N6    S    
C24   H17   S    
N2    Zn2   S    
C23   H22   S    
C21   H10   S    
C12   O4    A    
H16   N6    S    
C8    C11   S    
C19   C25   A    
C1    O1    A    
C7    N3    S    
C3    O7    A    
C9    C16   T    
O1    Zn1   S    
C5    C11   S    
C8    C15   S    
O5    Zn1   S    
O2    Zn2   S    
C12   O2    A    
C11   C14   S    
C14   C16   S    
C5    C15   S    
H7    N4    S    
C25   C27   A    
C21   H8    S    
C10   C17   T    
C4    C10   S    
C18   C23   A    
C24   H18   S    
C30   N1    A    
C19   H21   S    
C7    C13   S    
C22   H15   S    
C2    C29   A    
C18   H20   S    
C21   N4    S    
C2    H2    S    
N1    Zn1   S    
C29   N1    A    
C23   C26   A    
C24   H19   S    
C5    C7    S    
C19   C26   A    
C28   H24   S    
C22   H14   S    
C1    C27   S    
C6    C8    S    
C11   H12   S    
C29   H25   S    
C25   H23   S    
C20   H5    S    
C30   H26   S    
C13   H1    S    
C7    C14   S    
C3    O5    A    
C18   C27   A    
C22   H13   S    
C12   C26   S    
C6    C13   S    
C20   H6    S    
