data_mof_unit_36489.cif
_audit_creation_date              2012-10-26T21:05:36-0400
_audit_creation_method            fapswitch 2.2
_symmetry_space_group_name_H-M    P1
_symmetry_Int_Tables_number       1
_space_group_crystal_system       triclinic
_cell_length_a                    13.039514
_cell_length_b                    9.096501
_cell_length_c                    7.787068
_cell_angle_alpha                 89.97879
_cell_angle_beta                  95.732339
_cell_angle_gamma                 90.012433
_cell_volume                      919.035961089

loop_
_atom_site_label
_atom_site_type_symbol
_atom_type_description
_atom_site_fract_x
_atom_site_fract_y
_atom_site_fract_z
_atom_type_partial_charge
C1    C     C_R   0.499999 0.220034 0.500016 0.558055
C2    C     C_R   0.861832 0.583670 0.682398 -0.165145
C3    C     C_R   0.131930 0.567321 0.574665 0.223529
C4    C     C_R   0.868070 0.432688 0.425330 0.223530
C5    C     C_R   0.025066 0.543801 0.567279 0.029462
C6    C     C_R   0.974934 0.456211 0.432713 0.029465
C7    C     C_1   0.500001 0.065370 0.500023 -0.008471
C8    C     C_1   0.499998 0.934630 0.499977 -0.008471
C9    C     C_R   0.500001 0.779966 0.499984 0.558055
C10   C     C_R   0.300366 0.503361 0.468916 0.574557
C11   C     C_R   0.699634 0.496640 0.531084 0.574557
C12   C     C_R   0.811642 0.501261 0.547940 0.026616
C13   C     C_R   0.188359 0.498744 0.452059 0.026616
C14   C     C_R   0.032678 0.395371 0.307529 -0.102209
C15   C     C_R   0.967321 0.604645 0.692458 -0.102212
C16   C     C_R   0.138168 0.416342 0.317593 -0.165143
Cl1   Cl    Cl    0.805599 0.312055 0.268637 -0.584568
Cl2   Cl    Cl    0.194401 0.687958 0.731354 -0.584569
Cu1   Cu    Cu3+1 0.500010 0.500000 0.669080 1.110041
Cu2   Cu    Cu3+1 0.499990 0.500000 0.330920 1.110041
H1    H     H_    0.818755 0.635944 0.777592 0.155346
H2    H     H_    0.181244 0.364071 0.222397 0.155348
H3    H     H_    0.997633 0.329883 0.201613 0.195883
H4    H     H_    0.002366 0.670138 0.798366 0.195886
N1    N     N_1   0.499980 0.500000 0.076820 -0.054744
N2    N     N_1   0.500020 0.500000 0.923180 -0.054744
O1    O     O_R   0.500000 0.288400 0.642760 -0.500254
O2    O     O_R   0.500000 0.711600 0.357240 -0.500254
O3    O     O_R   0.500000 0.288400 0.357240 -0.487996
O4    O     O_R   0.500000 0.711600 0.642760 -0.487996
O5    O     O_R   0.349000 0.500000 0.619590 -0.455868
O6    O     O_R   0.651000 0.500000 0.380410 -0.455865
O7    O     O_R   0.348990 0.500000 0.334020 -0.514240
O8    O     O_R   0.651010 0.500000 0.665980 -0.514239

loop_
_geom_bond_atom_site_label_1
_geom_bond_atom_site_label_2
_ccdc_geom_bond_type
C14   H3    S    
C11   C12   S    
C6    C14   A    
Cu1   O1    S    
Cu1   Cu2   S    
C3    C13   A    
C2    C12   A    
C2    H1    S    
C1    O3    A    
Cu1   O5    S    
C7    C8    T    
C2    C15   A    
C9    O4    A    
Cu2   O7    S    
C15   H4    S    
C11   O6    A    
C10   O7    A    
Cu2   O3    S    
C5    C6    A    
C14   C16   A    
C5    C15   A    
C4    C12   A    
Cu2   N1    S    
C4    Cl1   S    
C3    Cl2   S    
C4    C6    A    
Cu2   O6    S    
C13   C16   A    
C1    O1    A    
Cu1   N2    S    
C16   H2    S    
Cu2   O2    S    
N1    N2    T    
C1    C7    S    
Cu1   O4    S    
C10   O5    A    
Cu1   O8    S    
C11   O8    A    
C9    O2    A    
C8    C9    S    
C3    C5    A    
C10   C13   S    
