data_mof_unit_51992.cif
_audit_creation_date              2012-10-26T19:29:01-0400
_audit_creation_method            fapswitch 2.2
_symmetry_space_group_name_H-M    P1
_symmetry_Int_Tables_number       1
_space_group_crystal_system       triclinic
_cell_length_a                    9.720192
_cell_length_b                    10.948495
_cell_length_c                    17.293414
_cell_angle_alpha                 90.556181
_cell_angle_beta                  85.349761
_cell_angle_gamma                 90.682694
_cell_volume                      1834.13159556

loop_
_atom_site_label
_atom_site_type_symbol
_atom_type_description
_atom_site_fract_x
_atom_site_fract_y
_atom_site_fract_z
_atom_type_partial_charge
C1    C     C_R   0.500303 0.738776 0.500746 0.579841
C2    C     C_R   0.517460 0.504187 0.265086 -0.069326
C3    C     C_3   0.376574 0.926393 0.456436 -0.164385
C4    C     C_R   0.481020 0.505744 0.649395 0.583267
C5    C     C_3   0.369073 0.067590 0.465860 0.200343
C6    C     C_3   0.481723 0.929654 0.588641 -0.080922
C7    C     C_3   0.639592 0.928709 0.458110 0.363686
C8    C     C_3   0.500951 0.876700 0.500711 -0.104234
C9    C     C_3   0.500605 0.120979 0.500061 0.016828
C10   C     C_3   0.499422 0.074523 0.585531 -0.190407
C11   C     C_3   0.626088 0.068490 0.447670 0.619764
C12   C     C_R   0.346718 0.495005 0.778470 -0.107238
C13   C     C_3   0.918831 0.376756 0.476008 0.249562
C14   C     C_3   0.081799 0.369110 0.490507 -0.055320
C15   C     C_3   0.932690 0.592836 0.442302 0.372915
C16   C     C_R   0.499835 0.260320 0.498711 0.536621
C17   C     C_3   0.908455 0.535137 0.576929 0.460579
C18   C     C_3   0.095415 0.568550 0.432914 0.335424
C19   C     C_3   0.072273 0.557747 0.570188 0.798634
C20   C     C_R   0.517735 0.499852 0.350411 0.504474
C21   C     C_R   0.469437 0.525350 0.733920 -0.094784
C22   C     C_R   0.578569 0.580695 0.770654 0.382554
C23   C     C_R   0.381491 0.564199 0.158823 -0.007781
C24   C     C_R   0.568554 0.598446 0.850326 0.429202
C25   C     C_R   0.449036 0.562742 0.894833 -0.023376
C26   C     C_R   0.335637 0.515137 0.858521 0.285532
C27   C     C_2   0.375605 0.883222 0.372785 0.330820
C28   C     C_2   0.337219 0.896867 0.625157 0.228072
C29   C     C_2   0.689158 0.871580 0.380173 0.453677
C30   C     C_2   0.576178 0.877722 0.646326 0.395346
C31   C     C_2   0.617466 0.128248 0.628087 0.312800
C32   C     C_2   0.880659 0.337995 0.395245 0.348542
C33   C     C_2   0.099497 0.289220 0.562153 0.418751
C34   C     C_R   0.413646 0.574687 0.235819 -0.071015
C35   C     C_2   0.156163 0.297476 0.423869 0.333539
C36   C     C_2   0.887969 0.604815 0.360393 0.361725
C37   C     C_2   0.684104 0.331524 0.243650 0.339864
C38   C     C_2   0.871129 0.451617 0.646931 0.410478
C39   C     C_2   0.411565 0.347200 0.995435 0.352393
C40   C     C_2   0.257624 0.627058 0.134045 0.364910
C41   C     C_R   0.596581 0.426125 0.214191 -0.009967
C42   C     C_R   0.573666 0.423914 0.135200 0.473239
C43   C     C_R   0.463269 0.488111 0.107957 0.043635
C44   C     C_2   0.449051 0.571801 0.979391 0.410397
C45   C     C_2   0.436190 0.472972 0.025602 0.010129
Cu1   Cu    Cu3+1 0.357600 0.500140 0.499960 1.144379
Cu2   Cu    Cu3+1 0.642400 0.499860 0.500040 1.184225
F1    F     F_    0.694530 0.620734 0.730048 -0.515082
F2    F     F_    0.099279 0.682660 0.568378 -0.405801
F3    F     F_    0.912975 0.710299 0.472116 -0.409846
F4    F     F_    0.165156 0.678825 0.424903 -0.541908
F5    F     F_    0.216258 0.485439 0.900717 -0.568304
F6    F     F_    0.485280 0.681919 0.009652 -0.527040
F7    F     F_    0.677776 0.647570 0.884454 -0.467928
F8    F     F_    0.652204 0.351415 0.085313 -0.518672
F9    F     F_    0.253879 0.093260 0.514843 -0.636432
F10   F     F_    0.746713 0.909063 0.504437 -0.447643
F11   F     F_    0.608430 0.096858 0.370995 -0.674895
F12   F     F_    0.749671 0.119531 0.464052 -0.468904
F13   F     F_    0.854796 0.288654 0.521241 -0.540511
F14   F     F_    0.848386 0.643904 0.600804 -0.422826
F15   F     F_    0.124864 0.522312 0.637761 -0.593684
H1    H     H_    0.278322 0.888042 0.483979 0.270541
H2    H     H_    0.564103 0.908569 0.706395 0.119042
H3    H     H_    0.595756 0.200099 0.670874 0.124226
H4    H     H_    0.779544 0.301526 0.389309 0.215099
H5    H     H_    0.041474 0.204254 0.569746 0.268294
H6    H     H_    0.237298 0.337634 0.386047 0.136097
H7    H     H_    0.845556 0.532347 0.327554 0.126258
H8    H     H_    0.649679 0.286753 0.297020 0.135383
H9    H     H_    0.908329 0.477912 0.702298 0.209071
H10   H     H_    0.423376 0.326514 0.933882 0.120391
H11   H     H_    0.220477 0.608363 0.077648 0.172085
H12   H     H_    0.356432 0.113094 0.409980 0.240666
H13   H     H_    0.407698 0.116506 0.617652 0.131180
H14   H     H_    0.349352 0.631309 0.275102 0.198680
H15   H     H_    0.122989 0.519808 0.377295 0.096232
H16   H     H_    0.260177 0.454292 0.751720 0.254149
H17   H     H_    0.369028 0.786449 0.360929 0.187003
H18   H     H_    0.255475 0.963652 0.630354 0.216723
H19   H     H_    0.778608 0.911799 0.347867 0.237024
N1    N     N_3   0.856560 0.499750 0.498270 -0.368623
N2    N     N_3   0.143860 0.496700 0.498910 -0.348675
O1    O     O_R   0.379740 0.682430 0.499960 -0.420570
O2    O     O_2   0.309497 0.793536 0.648134 -0.390235
O3    O     O_2   0.635064 0.781508 0.353075 -0.532190
O4    O     O_2   0.663728 0.802326 0.628441 -0.238189
O5    O     O_2   0.735974 0.093286 0.615359 -0.275407
O6    O     O_2   0.958552 0.347212 0.336427 -0.532577
O7    O     O_2   0.183530 0.311209 0.609098 -0.442741
O8    O     O_2   0.119202 0.193293 0.408873 -0.349998
O9    O     O_2   0.916116 0.698522 0.324445 -0.365187
O10   O     O_2   0.790456 0.299198 0.207152 -0.306131
O11   O     O_2   0.796775 0.361582 0.646690 -0.442857
O12   O     O_R   0.620260 0.682190 0.500020 -0.361572
O13   O     O_2   0.378141 0.264294 0.040071 -0.371130
O14   O     O_2   0.194266 0.700086 0.176819 -0.387207
O15   O     O_R   0.365800 0.500150 0.613560 -0.390823
O16   O     O_R   0.606310 0.499910 0.613620 -0.411834
O17   O     O_R   0.379740 0.317810 0.499980 -0.504651
O18   O     O_R   0.620260 0.317570 0.500040 -0.427187
O19   O     O_R   0.393690 0.500090 0.386380 -0.550047
O20   O     O_R   0.634200 0.499850 0.386440 -0.581274
O21   O     O_2   0.381481 0.953559 0.318204 -0.376950

loop_
_geom_bond_atom_site_label_1
_geom_bond_atom_site_label_2
_ccdc_geom_bond_type
C15   C18   S    
C22   F1    S    
Cu2   O18   S    
C4    O15   A    
C1    C8    S    
C41   C42   A    
C13   C32   S    
C14   C33   S    
C23   C43   A    
C7    C8    S    
C20   O20   A    
C44   C45   D    
C1    O1    A    
C7    C11   S    
Cu1   O19   S    
C7    C29   S    
C9    C16   S    
C30   H2    S    
C19   N2    S    
Cu2   N1    S    
C20   O19   A    
C2    C41   A    
C24   F7    S    
C23   C40   S    
C27   O21   D    
Cu2   O16   S    
C40   H11   S    
C17   N1    S    
C15   F3    S    
C5    H12   S    
C5    F9    S    
C17   F14   S    
Cu1   Cu2   S    
C10   C31   S    
C6    C28   S    
C12   H16   S    
C39   H10   S    
C13   C14   S    
C11   F11   S    
C9    C10   S    
C39   C45   S    
C2    C34   A    
Cu1   O15   S    
C21   C22   A    
C14   N2    S    
C11   F12   S    
C44   F6    S    
C25   C44   S    
C18   F4    S    
C15   N1    S    
Cu2   O20   S    
C2    C20   S    
C24   C25   A    
C3    C8    S    
C14   C35   S    
C13   F13   S    
C16   O17   A    
C6    C8    S    
C25   C26   A    
C12   C21   A    
C12   C26   A    
C5    C9    S    
C26   F5    S    
C42   F8    S    
C9    C11   S    
C10   H13   S    
C19   F2    S    
C32   O6    D    
C1    O12   A    
C23   C34   A    
C38   O11   D    
C18   N2    S    
C37   O10   D    
C43   C45   S    
C29   O3    D    
Cu1   O1    S    
C6    C30   S    
C29   H19   S    
C22   C24   A    
C42   C43   A    
C15   C36   S    
C40   O14   D    
C36   H7    S    
C33   H5    S    
C32   H4    S    
C31   H3    S    
Cu1   O17   S    
C38   H9    S    
C31   O5    D    
C3    C5    S    
C6    C10   S    
C3    H1    S    
C27   H17   S    
C3    C27   S    
C33   O7    D    
C4    C21   S    
C36   O9    D    
C35   H6    S    
C18   H15   S    
C13   N1    S    
C17   C19   S    
C17   C38   S    
C37   C41   S    
C28   H18   S    
C39   O13   D    
Cu1   N2    S    
C16   O18   A    
C4    O16   A    
C28   O2    D    
Cu2   O12   S    
C19   F15   S    
C30   O4    D    
C37   H8    S    
C7    F10   S    
C34   H14   S    
C35   O8    D    
