data_mof_unit_32489.cif
_audit_creation_date              2012-12-10T17:50:16-0500
_audit_creation_method            fapswitch 2.2
_symmetry_space_group_name_H-M    P1
_symmetry_Int_Tables_number       1
_space_group_crystal_system       triclinic
_cell_length_a                    10.665589
_cell_length_b                    14.697196
_cell_length_c                    14.544288
_cell_angle_alpha                 65.352128
_cell_angle_beta                  103.386279
_cell_angle_gamma                 102.534207
_cell_volume                      1997.05810323

loop_
_atom_site_label
_atom_site_type_symbol
_atom_type_description
_atom_site_fract_x
_atom_site_fract_y
_atom_site_fract_z
_atom_type_partial_charge
C1    C     C_R   0.483005 0.119696 0.310860 0.844865
C2    C     C_R   0.518074 0.880928 0.688289 0.793949
C3    C     C_R   0.528608 0.291784 0.176969 0.311112
C4    C     C_R   0.554521 0.716808 0.830925 0.313495
C5    C     C_R   0.507441 0.362206 0.074677 -0.026456
C6    C     C_R   0.519521 0.641244 0.923363 0.055897
C7    C     C_R   0.482909 0.326643 0.995245 0.092761
C8    C     C_R   0.487731 0.671550 0.994639 0.055501
C9    C     C_R   0.506869 0.466489 0.049412 0.043505
C10   C     C_R   0.514482 0.536419 0.947279 0.110900
C11   C     C_R   0.500837 0.498372 0.870281 -0.130366
C12   C     C_R   0.483036 0.500615 0.120507 -0.208336
C13   C     C_R   0.482054 0.395006 0.893826 -0.208173
C14   C     C_R   0.470976 0.601148 0.092712 -0.178116
C15   C     C_R   0.725073 0.287148 0.665998 0.300495
C16   C     C_R   0.268444 0.709067 0.340126 0.298347
C17   C     C_R   0.687671 0.204573 0.636267 -0.034123
C18   C     C_R   0.307097 0.792318 0.368718 -0.038043
C19   C     C_R   0.517072 0.284290 0.510745 0.072896
C20   C     C_R   0.485428 0.717003 0.487131 0.042742
C21   C     C_R   0.549651 0.371274 0.535615 -0.099520
C22   C     C_R   0.450599 0.628725 0.464440 -0.095330
C23   C     C_R   0.260186 0.000681 0.500092 0.919479
C24   C     C_R   0.739883 0.999069 0.500340 0.932536
C25   C     C_R   0.655614 0.370824 0.615392 0.102491
C26   C     C_R   0.341474 0.627430 0.387493 0.111923
C27   C     C_R   0.480794 0.457652 0.484996 0.112087
C28   C     C_R   0.519541 0.542391 0.515018 0.101852
C29   C     C_R   0.624610 0.537315 0.595603 -0.244276
C30   C     C_R   0.374178 0.461977 0.405676 -0.244151
C31   C     C_R   0.690820 0.453754 0.644207 -0.131109
C32   C     C_R   0.305862 0.544363 0.358955 -0.148063
C33   C     C_3   0.015625 0.008184 0.408709 0.225200
C34   C     C_3   0.984535 0.991287 0.592311 0.221583
C35   C     C_3   0.960500 0.085306 0.428795 0.237976
C36   C     C_3   0.039730 0.914177 0.572227 0.226143
C37   C     C_3   0.875087 0.997913 0.500328 -0.214502
C38   C     C_3   0.125091 0.001569 0.500648 -0.211626
C39   C     C_3   0.931292 0.920778 0.480271 0.263595
C40   C     C_3   0.068919 0.078684 0.520760 0.255989
C41   C     C_R   0.483357 0.187729 0.200469 -0.108912
C42   C     C_R   0.520027 0.814641 0.797417 -0.161593
C43   C     C_R   0.454303 0.223169 0.017507 -0.209326
C44   C     C_R   0.468055 0.771273 0.966125 -0.210913
C45   C     C_R   0.445260 0.153275 0.118039 0.088262
C46   C     C_R   0.474665 0.841709 0.865973 0.111526
Cu1   Cu    Cu3+1 0.465750 0.918270 0.475680 0.981848
Cu2   Cu    Cu3+1 0.534250 0.081730 0.524320 1.003277
H1    H     H_    0.568838 0.725839 0.542182 0.164936
H2    H     H_    0.437327 0.277352 0.452354 0.151869
H3    H     H_    0.251454 0.854912 0.335076 0.151458
H4    H     H_    0.739522 0.139587 0.673705 0.145786
H5    H     H_    0.657925 0.596645 0.624190 0.169544
H6    H     H_    0.339586 0.402190 0.377880 0.146983
H7    H     H_    0.464290 0.368508 0.832047 0.153456
H8    H     H_    0.446605 0.623583 0.147933 0.156059
H9    H     H_    0.430609 0.197328 0.954902 0.145071
H10   H     H_    0.439026 0.792738 0.020260 0.151665
H11   H     H_    0.491453 0.546673 0.789879 0.199591
H12   H     H_    0.463139 0.448868 0.195942 0.187206
H13   H     H_    0.770647 0.454551 0.705561 0.207675
H14   H     H_    0.223907 0.542459 0.299407 0.202224
N1    N     N_R   0.585750 0.204560 0.560800 -0.196601
N2    N     N_R   0.414250 0.795440 0.439200 -0.201290
O1    O     O_R   0.454850 0.022100 0.338110 -0.607498
O2    O     O_R   0.545150 0.977900 0.661890 -0.591697
O3    O     O_R   0.512700 0.160150 0.379180 -0.519922
O4    O     O_R   0.487300 0.839850 0.620820 -0.564597
O5    O     O_R   0.287930 0.931000 0.479440 -0.560794
O6    O     O_R   0.712070 0.069000 0.520560 -0.551211
O7    O     O_R   0.345780 0.069050 0.520520 -0.576032
O8    O     O_R   0.654220 0.930950 0.479480 -0.570685
O9    O     O_3   0.916425 0.174142 0.354000 -0.689514
H15   H     H_    0.993277 0.214999 0.321720 0.347190
O10   O     O_3   0.083840 0.825376 0.647055 -0.707246
H16   H     H_    0.007134 0.784719 0.679657 0.351923
O11   O     O_3   0.828140 0.287457 0.743653 -0.735672
H17   H     H_    0.865020 0.223095 0.770669 0.326102
O12   O     O_3   0.159858 0.705574 0.267557 -0.739329
H18   H     H_    0.118542 0.767370 0.244576 0.323342
O13   O     O_3   0.034456 0.017270 0.313137 -0.734606
H19   H     H_    0.946690 0.019290 0.271165 0.351518
O14   O     O_3   0.965681 0.982168 0.687905 -0.720336
H20   H     H_    0.053424 0.979808 0.729959 0.344490
O15   O     O_3   0.857951 0.838480 0.459301 -0.701734
H21   H     H_    0.921841 0.803907 0.450603 0.351319
O16   O     O_3   0.142338 0.160934 0.541782 -0.706187
H22   H     H_    0.078505 0.195499 0.550557 0.352196
O17   O     O_3   0.629202 0.695233 0.778266 -0.753684
H23   H     H_    0.679907 0.758560 0.737287 0.331880
O18   O     O_3   0.603114 0.321837 0.253537 -0.704978
H24   H     H_    0.664343 0.383069 0.222360 0.339865
C47   C     C_3   0.427082 0.941892 0.835731 -0.350626
C48   C     C_3   0.536651 0.018648 0.859855 -0.782875
H25   H     H_    0.621132 0.027737 0.822924 0.262316
H26   H     H_    0.501567 0.093006 0.831193 0.234793
H27   H     H_    0.568696 0.993338 0.943981 0.239211
H28   H     H_    0.382359 0.972408 0.753933 0.226209
H29   H     H_    0.347600 0.930983 0.878695 0.189716
C49   C     C_3   0.391990 0.045077 0.130608 -0.385853
C50   C     C_3   0.248754 0.022204 0.142625 -0.765546
H30   H     H_    0.235889 0.030256 0.212264 0.282169
H31   H     H_    0.191560 0.074877 0.074766 0.255830
H32   H     H_    0.210242 0.943992 0.148125 0.225475
H33   H     H_    0.398173 0.032430 0.061595 0.192295
H34   H     H_    0.450777 0.990150 0.193953 0.227849

loop_
_geom_bond_atom_site_label_1
_geom_bond_atom_site_label_2
_ccdc_geom_bond_type
C25   C31   A    
C14   H8    S    
O16   H22   S    
C26   C32   A    
C47   C48   S    
C34   C37   S    
O9    H15   S    
C31   H13   S    
O13   H19   S    
C24   O6    A    
O15   H21   S    
C30   H6    S    
C49   H33   S    
C33   C39   S    
C4    C42   A    
C34   C40   S    
C40   O16   S    
C28   C29   A    
C19   C21   A    
C2    O4    A    
C15   C25   A    
C3    O18   S    
C42   C46   A    
C23   O5    A    
Cu1   O5    S    
C33   C35   S    
C3    C41   A    
Cu1   Cu2   S    
C44   H10   S    
C1    O1    A    
C7    C43   A    
C9    C10   A    
C47   H29   S    
C21   C27   A    
C50   H31   S    
C38   C40   S    
C22   C28   A    
C27   C30   A    
C11   H11   S    
C17   H4    S    
C44   C46   A    
C18   H3    S    
C16   C26   A    
C50   H30   S    
C23   O7    A    
C4    C6    A    
C19   N1    A    
Cu1   N2    S    
C5    C7    A    
Cu2   N1    S    
C6    C8    A    
C48   H27   S    
C3    C5    A    
O11   H17   S    
C20   N2    A    
O10   H16   S    
C5    C9    A    
C20   H1    S    
C36   O10   S    
O14   H20   S    
C24   C37   S    
C16   C18   A    
C48   H26   S    
C43   C45   A    
C1    C41   S    
C12   C14   A    
C50   H32   S    
C34   O14   S    
C20   C22   A    
Cu2   O7    S    
Cu1   O4    S    
O18   H24   S    
C24   O8    A    
C4    O17   S    
C15   C17   A    
C21   C25   A    
C35   O9    S    
C8    C14   A    
C35   C37   S    
C36   C39   S    
C8    C44   A    
Cu2   O6    S    
C2    O2    A    
C45   C49   S    
C6    C10   A    
C23   C38   S    
C49   H34   S    
C33   C38   S    
C16   O12   S    
C36   C38   S    
C35   C40   S    
C32   H14   S    
C37   C39   S    
C41   C45   A    
C17   N1    A    
C30   C32   A    
C11   C13   A    
C19   H2    S    
C18   N2    A    
C15   O11   S    
C46   C47   S    
C29   H5    S    
C2    C42   S    
C49   C50   S    
C1    O3    A    
C34   C36   S    
Cu2   O3    S    
C48   H25   S    
C9    C12   A    
Cu1   O8    S    
C10   C11   A    
C43   H9    S    
O12   H18   S    
C12   H12   S    
C7    C13   A    
C29   C31   A    
C22   C26   A    
C27   C28   A    
C39   O15   S    
Cu2   O2    S    
O17   H23   S    
C33   O13   S    
C47   H28   S    
Cu1   O1    S    
C13   H7    S    
