data_mof_unit_54105.cif
_audit_creation_date              2012-12-11T16:53:26-0500
_audit_creation_method            fapswitch 2.2
_symmetry_space_group_name_H-M    P1
_symmetry_Int_Tables_number       1
_space_group_crystal_system       triclinic
_cell_length_a                    14.872259
_cell_length_b                    14.748059
_cell_length_c                    17.25676
_cell_angle_alpha                 108.93054
_cell_angle_beta                  106.315776
_cell_angle_gamma                 108.197941
_cell_volume                      3078.17585769

loop_
_atom_site_label
_atom_site_type_symbol
_atom_type_description
_atom_site_fract_x
_atom_site_fract_y
_atom_site_fract_z
_atom_type_partial_charge
C1    C     C_R   0.084420 0.285020 0.077995 0.464246
C2    C     C_R   0.064006 0.527508 0.264254 -0.139534
C3    C     C_R   0.278224 0.788093 0.178991 -0.131028
C4    C     C_R   0.934398 0.523978 0.750996 -0.196281
C5    C     C_R   0.697341 0.408475 0.996912 -0.199885
C6    C     C_R   0.332181 0.785343 0.257500 -0.111310
C7    C     C_R   0.638649 0.440328 0.943597 0.017120
C8    C     C_R   0.970692 0.494377 0.271989 0.027864
C9    C     C_R   0.995772 0.822493 0.981334 -0.060223
C10   C     C_R   0.394127 0.468441 0.878785 -0.131242
C11   C     C_R   0.341260 0.410723 0.915909 -0.045530
C12   C     C_R   0.024397 0.588570 0.752193 -0.114419
C13   C     C_R   0.366292 0.329617 0.927356 0.550485
C14   C     C_R   0.460707 0.329487 0.925474 -0.387456
C15   C     C_R   0.526590 0.408204 0.911152 0.068620
C16   C     C_R   0.780468 0.201894 0.815297 -0.093901
C17   C     C_R   0.485879 0.467709 0.877310 0.178069
C18   C     C_3   0.536340 0.583897 0.900203 -0.518623
C19   C     C_3   0.436212 0.585842 0.901841 0.351920
C20   C     C_R   0.964029 0.499364 0.353629 0.059537
C21   C     C_R   0.028635 0.601075 0.674673 -0.072286
C22   C     C_R   0.053730 0.699766 0.589524 -0.212009
C23   C     C_R   0.763891 0.194517 0.729845 0.102284
C24   C     C_R   0.059030 0.699869 0.671349 0.534258
C25   C     C_R   0.991348 0.505437 0.598798 -0.212358
C26   C     C_R   0.981495 0.504760 0.517465 0.128561
C27   C     C_R   0.016479 0.602761 0.512194 -0.097501
C28   C     C_R   0.246532 0.522993 0.941142 -0.149626
C29   C     C_R   0.010729 0.599436 0.428870 0.465940
C30   C     C_R   0.925215 0.403588 0.358939 -0.178052
C31   C     C_R   0.935367 0.406240 0.441275 -0.179960
C32   C     C_R   0.715949 0.094664 0.646268 -0.118235
C33   C     C_R   0.433633 0.865060 0.332074 0.082790
C34   C     C_R   0.277826 0.449422 0.956000 0.079998
C35   C     C_R   0.603739 0.017792 0.398322 0.609801
C36   C     C_R   0.508286 0.941323 0.322976 -0.368898
C37   C     C_R   0.454347 0.863025 0.414938 -0.174998
C38   C     C_R   0.549855 0.931237 0.487938 -0.086082
C39   C     C_R   0.623659 0.014749 0.482754 -0.099784
C40   C     C_R   0.783511 0.296184 0.736777 -0.130732
C41   C     C_R   0.711174 0.095417 0.563386 0.503078
C42   C     C_R   0.653885 0.001256 0.646359 -0.361281
C43   C     C_R   0.569883 0.918890 0.567265 0.558806
C44   C     C_R   0.049080 0.133320 0.172310 0.105144
C45   C     C_R   0.272667 0.687498 0.251047 0.492969
C46   C     C_R   0.983939 0.107791 0.083502 -0.143804
C47   C     C_R   0.894030 0.006318 0.033052 0.533335
C48   C     C_R   0.875779 0.933564 0.070676 -0.389946
C49   C     C_R   0.948395 0.956616 0.154482 0.085610
C50   C     C_R   0.031348 0.058252 0.205710 0.070786
C51   C     C_3   0.143451 0.087202 0.253032 -0.650461
C52   C     C_R   0.249387 0.433060 0.022511 -0.096397
C53   C     C_3   0.165050 0.169622 0.217635 0.457666
C54   C     C_R   0.106978 0.609321 0.827112 0.513498
C55   C     C_R   0.913417 0.201301 0.999443 -0.197745
C56   C     C_R   0.703711 0.498172 0.916347 0.478121
C57   C     C_R   0.996873 0.189500 0.048575 0.102013
C58   C     C_R   0.889870 0.435761 0.186722 0.488744
C59   C     C_R   0.082402 0.806485 0.017615 0.528270
C60   C     C_R   0.910692 0.722717 0.942538 -0.227853
H1    H     H_    0.830961 0.703598 0.902776 0.156695
H2    H     H_    0.393956 0.808736 0.423523 0.209453
H3    H     H_    0.809228 0.855373 0.031891 0.152243
H4    H     H_    0.170817 0.122016 0.327740 0.241723
H5    H     H_    0.163970 0.021890 0.223076 0.190328
H6    H     H_    0.249534 0.548457 0.890086 0.202404
H7    H     H_    0.201612 0.155929 0.169424 0.077002
H8    H     H_    0.261818 0.380292 0.050569 0.182318
H9    H     H_    0.216826 0.399931 0.169620 0.339763
H10   H     H_    0.727566 0.523231 0.819576 0.311454
H11   H     H_    0.765394 0.307296 0.103968 0.297792
H12   H     H_    0.142236 0.566754 0.317566 0.195481
H13   H     H_    0.185582 0.946810 0.053242 0.310049
H14   H     H_    0.308965 0.845479 0.155887 0.192264
H15   H     H_    0.665705 0.347527 0.016127 0.151925
H16   H     H_    0.333345 0.208193 0.954200 0.328618
H17   H     H_    0.486629 0.275526 0.943920 0.150527
H18   H     H_    0.855162 0.499652 0.705200 0.148125
H19   H     H_    0.366639 0.549864 0.773288 0.336116
H20   H     H_    0.114144 0.744885 0.473134 0.317865
H21   H     H_    0.075293 0.775534 0.586962 0.171556
H22   H     H_    0.084425 0.784134 0.795730 0.328343
H23   H     H_    0.603938 0.633182 0.967936 0.155503
H24   H     H_    0.851718 0.209491 0.616891 0.307870
H25   H     H_    0.662138 0.996118 0.708784 0.154622
H26   H     H_    0.649494 0.086061 0.327623 0.308835
H27   H     H_    0.528523 0.833582 0.628400 0.325524
H28   H     H_    0.492087 0.942212 0.258086 0.141276
H29   H     H_    0.770916 0.904177 0.919825 0.320799
H30   H     H_    0.291262 0.291963 0.312934 0.330703
H31   H     H_    0.775690 0.320029 0.683299 0.145731
H32   H     H_    0.217161 0.711509 0.818503 0.339223
H33   H     H_    0.832288 0.154950 0.982849 0.165815
H34   H     H_    0.551271 0.597269 0.844289 0.245730
H35   H     H_    0.385026 0.661389 0.312575 0.328452
H36   H     H_    0.446756 0.638807 0.969832 0.114632
H37   H     H_    0.892301 0.326984 0.300263 0.172949
H38   H     H_    0.907735 0.331475 0.445526 0.175394
H39   H     H_    0.966726 0.430121 0.602862 0.162722
H40   H     H_    0.773035 0.138859 0.835238 0.122534
N1    N     N_R   0.055640 0.348550 0.045600 -0.105493
N2    N     N_R   0.811290 0.303400 0.871650 -0.047352
N3    N     N_R   0.205180 0.552990 0.997660 -0.041983
N4    N     N_R   0.814810 0.361830 0.823710 -0.046731
N5    N     N_R   0.201660 0.494570 0.045600 -0.066860
N6    N     N_R   0.068420 0.560530 0.871650 -0.077730
N7    N     N_R   0.948050 0.295860 0.997660 -0.082717
N8    N     N_R   0.185190 0.638170 0.176290 -0.073281
N9    N     N_R   0.798340 0.505430 0.954400 -0.099103
N10   N     N_R   0.931580 0.439470 0.128350 -0.112862
N11   N     N_R   0.051950 0.704140 0.002340 -0.071359
N12   N     N_R   0.944360 0.651450 0.954400 -0.080836
N13   N     N_R   0.039170 0.492150 0.176290 -0.076357
N14   N     N_R   0.188710 0.696600 0.128350 -0.067944
N15   N     N_R   0.794820 0.447010 0.002340 -0.068694
N16   N     N_R   0.960830 0.507850 0.823710 -0.073753
Ni1   Ni    Ni4+2 0.119330 0.493420 0.109950 0.250898
Ni2   Ni    Ni4+2 0.880670 0.506580 0.890050 0.202853
Ni3   Ni    Ni4+2 0.872590 0.372590 0.000000 0.189146
Ni4   Ni    Ni4+2 0.127410 0.627410 0.000000 0.289530
O1    O     O_3   0.178767 0.321918 0.148476 -0.743821
O2    O     O_3   0.676376 0.095816 0.390706 -0.694363
O3    O     O_3   0.502546 0.829378 0.567142 -0.747032
O4    O     O_3   0.828328 0.976924 0.945438 -0.763384
O5    O     O_3   0.215786 0.274034 0.288215 -0.670063
O6    O     O_3   0.208760 0.685583 0.863448 -0.732402
O7    O     O_3   0.308111 0.630878 0.291169 -0.777544
O8    O     O_3   0.668813 0.506179 0.837201 -0.780351
O9    O     O_3   0.790637 0.365204 0.165319 -0.762199
O10   O     O_3   0.185022 0.878915 0.052028 -0.773155
O11   O     O_3   0.303722 0.258328 0.947644 -0.758850
O12   O     O_3   0.383004 0.606330 0.832882 -0.710019
O13   O     O_3   0.049793 0.690437 0.417974 -0.752570
O14   O     O_3   0.091123 0.796378 0.744113 -0.740148
O15   O     O_3   0.786649 0.176158 0.560786 -0.705920

loop_
_geom_bond_atom_site_label_1
_geom_bond_atom_site_label_2
_ccdc_geom_bond_type
N1    N7    A    
C29   O13   S    
C59   O10   S    
C5    H15   S    
C6    C45   A    
C43   O3    S    
C27   C29   A    
C35   C39   A    
N11   N12   A    
C55   H33   S    
C3    C6    A    
C37   H2    S    
H24   O15   S    
C20   C30   A    
C36   H28   S    
C54   O6    S    
C30   H37   S    
C26   C27   A    
C8    C20   S    
C30   C31   A    
H16   O11   S    
C31   H38   S    
H11   O9    S    
C58   O9    S    
C44   C50   A    
C23   C40   A    
C33   C36   A    
C18   C19   S    
C51   H5    S    
C14   H17   S    
N8    N14   A    
C3    H14   S    
C24   O14   S    
C8    C58   A    
H13   O10   S    
C44   C53   S    
C25   H39   S    
N3    Ni4   S    
H26   O2    S    
C59   N11   A    
C32   C41   A    
C4    C12   A    
C52   H8    S    
C45   N8    A    
C7    C15   S    
C28   C34   A    
C26   C31   A    
C12   C54   A    
C13   C14   A    
C5    N15   A    
N5    Ni1   S    
C7    C56   A    
C2    H12   S    
N7    Ni3   S    
C44   C46   A    
N9    Ni2   S    
C17   C18   S    
N4    Ni2   S    
C20   C29   A    
C11   C34   S    
C54   N6    A    
C22   H21   S    
C39   C41   A    
C5    C7    A    
C16   H40   S    
C48   H3    S    
C50   C51   S    
C25   C26   A    
N2    Ni3   S    
C12   C21   S    
C33   C37   A    
H20   O13   S    
C55   N7    A    
N11   Ni4   S    
C9    C59   A    
C35   C36   A    
H22   O14   S    
H27   O3    S    
C28   H6    S    
C4    H18   S    
C37   C38   A    
C60   N12   A    
C1    C57   A    
C40   N4    A    
C47   C48   A    
H9    O1    S    
C10   C19   S    
C18   H23   S    
C13   O11   S    
N3    N5    A    
C42   H25   S    
N2    N4    A    
N10   N13   A    
C53   O5    S    
N13   Ni1   S    
C16   N2    A    
C48   C49   A    
C52   N5    A    
C16   C23   A    
N15   Ni3   S    
C22   C27   A    
C55   C57   A    
C46   C57   S    
C18   H34   S    
C22   C24   A    
C42   C43   A    
C1    N1    A    
C56   N9    A    
C41   O15   S    
H10   O8    S    
C19   O12   S    
C15   C17   A    
C21   C25   A    
C46   C47   A    
N6    Ni4   S    
C58   N10   A    
N8    Ni1   S    
C4    N16   A    
C35   O2    S    
C2    C8    A    
C51   H4    S    
C3    N14   A    
H32   O6    S    
N10   Ni3   S    
H29   O4    S    
C34   C52   A    
C6    C33   S    
C9    C60   A    
N1    Ni1   S    
C23   C32   S    
C38   C43   A    
N12   Ni2   S    
C11   C13   A    
C28   N3    A    
C47   O4    S    
C38   C39   A    
C45   O7    S    
H19   O12   S    
C2    N13   A    
H30   O5    S    
N16   Ni2   S    
C56   O8    S    
C40   H31   S    
C53   H7    S    
C1    O1    S    
C10   C11   A    
N9    N15   A    
H35   O7    S    
C49   C50   A    
C21   C24   A    
N6    N16   A    
C32   C42   A    
C14   C15   A    
C60   H1    S    
C10   C17   A    
C51   C53   S    
N14   Ni4   S    
C19   H36   S    
