data_mof_unit_19108.cif
_audit_creation_date              2013-03-05T16:35:52-0500
_audit_creation_method            fapswitch 2.2
_symmetry_space_group_name_H-M    P1
_symmetry_Int_Tables_number       1
_space_group_crystal_system       triclinic
_cell_length_a                    23.58319
_cell_length_b                    9.092606
_cell_length_c                    7.777888
_cell_angle_alpha                 89.962789
_cell_angle_beta                  90.015626
_cell_angle_gamma                 90.002739
_cell_volume                      1667.83275765

loop_
_atom_site_label
_atom_site_type_symbol
_atom_site_description
_atom_site_fract_x
_atom_site_fract_y
_atom_site_fract_z
_atom_type_partial_charge
O1    O     O_R   0.500000 0.288390 0.642760 -0.573795
O2    O     O_R   0.500000 0.711610 0.357240 -0.584248
O3    O     O_R   0.500000 0.711610 0.642760 -0.571667
O4    O     O_R   0.500000 0.288390 0.357240 -0.583101
H1    H     H_    0.948660 0.129483 0.545612 0.185182
H2    H     H_    0.050584 0.868466 0.436193 0.185489
H3    H     H_    0.947542 0.867214 0.433539 0.185706
H4    H     H_    0.051705 0.130212 0.542533 0.186244
C1    C     C_R   0.500014 0.219993 0.500031 0.831201
C2    C     C_R   0.500009 0.780008 0.499964 0.837292
O5    O     O_R   0.417880 0.500000 0.642820 -0.520691
O6    O     O_R   0.582120 0.500000 0.357180 -0.581507
O7    O     O_R   0.582120 0.500000 0.642820 -0.527004
O8    O     O_R   0.417880 0.500000 0.357180 -0.579549
C3    C     C_R   0.208347 0.501390 0.492858 0.215538
C4    C     C_R   0.791036 0.497069 0.493178 0.212957
C5    C     C_R   0.390570 0.503196 0.499967 0.831519
C6    C     C_R   0.609293 0.497202 0.500035 0.835763
Cu1   Cu    Cu3+1 0.500000 0.500000 0.669080 1.084253
Cu2   Cu    Cu3+1 0.500000 0.500000 0.330920 1.046108
H5    H     H_    0.215783 0.600262 0.242618 0.183378
H6    H     H_    0.783851 0.361807 0.267577 0.184722
H7    H     H_    0.213810 0.406486 0.744831 0.162219
H8    H     H_    0.785574 0.629383 0.720770 0.163123
C7    C     C_R   0.297495 0.567340 0.357358 0.311342
C8    C     C_R   0.701952 0.413204 0.371527 0.315440
C9    C     C_R   0.297200 0.449564 0.640806 0.365559
C10   C     C_R   0.702209 0.570616 0.627266 0.363424
C11   C     C_R   0.327781 0.508155 0.499796 -0.197690
C12   C     C_R   0.671830 0.492280 0.500116 -0.192395
C13   C     C_R   0.880179 0.628018 0.469428 0.554682
C14   C     C_R   0.119062 0.369310 0.505795 0.553327
C15   C     C_R   0.880601 0.367576 0.511722 0.550305
C16   C     C_R   0.118628 0.630868 0.474469 0.548590
N1    N     N_R   0.851930 0.497575 0.491077 -0.450781
N2    N     N_R   0.147377 0.500413 0.490543 -0.449998
C17   C     C_R   0.940062 0.365252 0.509975 -0.018601
C18   C     C_R   0.059170 0.632634 0.471226 -0.018262
C19   C     C_R   0.939647 0.631327 0.469410 -0.020926
C20   C     C_R   0.059590 0.366200 0.507644 -0.020678
C21   C     C_R   0.969698 0.498549 0.489425 -0.016599
C22   C     C_R   0.029537 0.499111 0.489289 -0.016728
C23   C     C_R   0.970451 0.233352 0.529156 -0.160056
C24   C     C_R   0.028785 0.764470 0.451296 -0.159502
C25   C     C_R   0.969642 0.763756 0.449738 -0.161150
C26   C     C_R   0.029596 0.233758 0.527348 -0.160664
C27   C     C_1   0.500022 0.065368 0.500036 -0.144149
C28   C     C_1   0.500018 0.934634 0.499943 -0.143363
C29   C     C_R   0.238522 0.558142 0.353254 -0.094378
C30   C     C_R   0.760984 0.420208 0.367200 -0.085979
C31   C     C_R   0.237645 0.448895 0.636555 -0.199197
C32   C     C_R   0.761752 0.570945 0.623237 -0.198322
N3    N     N_1   0.500000 0.500000 0.076820 -0.020007
N4    N     N_1   0.500000 0.500000 0.923180 -0.015574
O9    O     O_2   0.850787 0.753904 0.446807 -0.511881
O10   O     O_2   0.148372 0.242236 0.517759 -0.511941
O11   O     O_2   0.851635 0.241180 0.535557 -0.511993
O12   O     O_2   0.147486 0.758725 0.463694 -0.512111
O13   O     O_3   0.323540 0.637757 0.221654 -0.679119
H9    H     H_    0.356460 0.693033 0.267139 0.334767
O14   O     O_3   0.675794 0.325488 0.250445 -0.682080
H10   H     H_    0.639996 0.287133 0.299411 0.330832
O15   O     O_3   0.326065 0.391470 0.779870 -0.675266
H11   H     H_    0.298396 0.355732 0.866357 0.339471
O16   O     O_3   0.673029 0.648356 0.751678 -0.685672
H12   H     H_    0.700563 0.696802 0.829668 0.338193

loop_
_geom_bond_atom_site_label_1
_geom_bond_atom_site_label_2
_geom_bond_distance
_ccdc_geom_bond_type
H8    C32   1.083375 S    
C18   C24   1.405085 A    
C6    C12   1.475496 S    
C3    C31   1.397606 A    
C9    C11   1.416496 A    
C5    C11   1.481435 S    
C21   C22   1.411223 A    
H7    C31   1.083386 S    
C27   C28   1.188713 T    
H6    C30   1.083513 S    
C19   C25   1.404791 A    
O3    Cu1   1.934814 S    
O6    Cu2   1.947337 S    
C10   C12   1.413913 A    
C10   O16   1.382346 S    
H1    C23   1.082721 S    
Cu2   N3    1.976361 S    
O13   H9    0.990221 S    
C19   C21   1.408478 A    
O3    C2    1.272569 A    
H2    C24   1.082632 S    
N3    N4    1.194995 T    
C3    C29   1.396903 A    
C20   C26   1.404915 A    
C10   C32   1.404570 A    
O8    C5    1.284322 A    
O5    Cu1   1.947339 S    
C9    O15   1.382471 S    
O7    C6    1.282615 A    
C17   C21   1.408095 A    
H3    C25   1.082730 S    
Cu1   N4    1.976361 S    
H5    C29   1.083545 S    
C15   N1    1.371103 A    
C8    O14   1.379932 S    
C9    C31   1.404888 A    
C8    C12   1.422426 A    
H4    C26   1.082640 S    
C8    C30   1.394011 A    
C4    N1    1.436168 S    
C2    C28   1.405953 S    
O14   H10   0.989623 S    
C4    C30   1.396874 A    
C23   C26   1.394902 A    
C13   N1    1.370646 A    
C17   C23   1.404997 A    
O1    Cu1   1.935079 S    
C1    C27   1.405947 S    
O7    Cu1   1.947448 S    
O2    Cu2   1.935078 S    
O15   H11   0.991883 S    
O2    C2    1.272779 A    
C18   C22   1.407780 A    
C14   N2    1.371417 A    
C3    N2    1.438021 S    
C14   C20   1.402901 A    
O1    C1    1.272814 A    
C24   C25   1.394842 A    
C16   N2    1.371907 A    
C7    C11   1.423367 A    
C4    C32   1.397414 A    
O16   H12   0.991835 S    
O8    Cu2   1.947450 S    
O6    C6    1.282750 A    
C16   O12   1.349655 S    
O5    C5    1.284434 A    
C15   O11   1.349634 S    
C7    O13   1.378672 S    
C13   O9    1.349580 S    
O4    C1    1.272528 A    
C16   C18   1.402512 A    
C14   O10   1.349591 S    
C15   C17   1.402512 A    
Cu1   Cu2   2.630171 S    
C13   C19   1.402769 A    
C20   C22   1.408179 A    
C7    C29   1.393631 A    
O4    Cu2   1.934815 S    
