data_mof_unit_64584.cif
_audit_creation_date              2012-12-10T18:42:57-0500
_audit_creation_method            fapswitch 2.2
_symmetry_space_group_name_H-M    P1
_symmetry_Int_Tables_number       1
_space_group_crystal_system       triclinic
_cell_length_a                    18.190668
_cell_length_b                    18.117606
_cell_length_c                    18.048508
_cell_angle_alpha                 119.600203
_cell_angle_beta                  90.165665
_cell_angle_gamma                 59.677316
_cell_volume                      4216.81253809

loop_
_atom_site_label
_atom_site_type_symbol
_atom_type_description
_atom_site_fract_x
_atom_site_fract_y
_atom_site_fract_z
_atom_type_partial_charge
C1    C     C_R   0.891058 0.217108 0.609024 0.843492
C2    C     C_3   0.549956 0.897238 0.946304 -0.083621
C3    C     C_2   0.409382 0.538032 0.880842 0.884929
C4    C     C_2   0.663394 0.446134 0.407100 0.926986
C5    C     C_2   0.336616 0.553799 0.592856 0.926991
C6    C     C_2   0.598759 0.302561 0.330655 0.953253
C7    C     C_2   0.401220 0.697423 0.669332 0.953261
C8    C     C_3   0.383781 0.932288 0.961615 -0.357314
C9    C     C_3   0.283990 0.024810 0.009009 -0.374543
C10   C     C_3   0.223309 0.991792 0.969294 -0.839784
C11   C     C_3   0.616218 0.067715 0.038392 -0.357321
C12   C     C_3   0.716009 0.975196 0.991003 -0.374556
C13   C     C_3   0.450188 0.032052 0.077374 0.010110
C14   C     C_3   0.776684 0.008218 0.030732 -0.839740
C15   C     C_2   0.399905 0.063756 0.164762 0.876927
C16   C     C_2   0.600103 0.936239 0.835241 0.876923
C17   C     C_3   0.183148 0.398924 0.500652 -0.400137
C18   C     C_3   0.201519 0.357716 0.560289 -0.356029
C19   C     C_3   0.301171 0.298467 0.550358 -0.853994
C20   C     C_3   0.816824 0.601093 0.499328 -0.400119
C21   C     C_3   0.798435 0.642407 0.439770 -0.356309
C22   C     C_3   0.698853 0.701188 0.449341 -0.853819
C23   C     C_3   0.068264 0.290150 0.438451 -0.381543
C24   C     C_3   0.549813 0.967948 0.922628 0.010103
C25   C     C_3   0.158373 0.207396 0.360176 -0.358207
C26   C     C_3   0.164029 0.109927 0.292060 -0.834155
C27   C     C_3   0.931702 0.709885 0.561548 -0.381738
C28   C     C_3   0.841633 0.792642 0.639882 -0.358191
C29   C     C_3   0.836012 0.890093 0.707975 -0.834119
C30   C     C_3   0.004843 0.390310 0.314843 -0.338955
C31   C     C_3   0.944187 0.351869 0.297196 -0.393478
C32   C     C_3   0.962457 0.282233 0.196369 -0.771853
C33   C     C_3   0.995146 0.609690 0.685153 -0.338910
C34   C     C_3   0.055684 0.648286 0.702830 -0.393898
C35   C     C_3   0.033848 0.401015 0.469677 0.075716
C36   C     C_3   0.037639 0.717592 0.803650 -0.771657
C37   C     C_3   0.966120 0.599021 0.530324 0.075849
C38   C     C_3   0.084489 0.452692 0.503211 0.063755
C39   C     C_3   0.915478 0.547345 0.496790 0.063796
C40   C     C_3   0.050874 0.499903 0.448262 -0.148927
C41   C     C_3   0.949096 0.500130 0.551738 -0.148984
C42   C     C_3   0.000174 0.448066 0.414518 0.061448
C43   C     C_R   0.108941 0.782892 0.390976 0.843471
C44   C     C_3   0.999794 0.551970 0.585484 0.061545
C45   C     C_3   0.931100 0.035919 0.470722 -0.097744
C46   C     C_3   0.068898 0.964082 0.529279 -0.097755
C47   C     C_R   0.608240 0.782923 0.890340 0.860835
C48   C     C_R   0.391760 0.217076 0.109660 0.860839
C49   C     C_3   0.951831 0.963874 0.501932 -0.010111
C50   C     C_3   0.048167 0.036126 0.498069 -0.010120
C51   C     C_3   0.052216 0.896518 0.446640 -0.132949
C52   C     C_3   0.947782 0.103483 0.553361 -0.132953
C53   C     C_3   0.031487 0.968527 0.415265 -0.056750
C54   C     C_3   0.545552 0.404546 0.422139 -0.082101
C55   C     C_3   0.968511 0.031473 0.584736 -0.056743
C56   C     C_3   0.939067 0.491545 0.029955 -0.074078
C57   C     C_3   0.060941 0.508444 0.970040 -0.074051
C58   C     C_3   0.951339 0.579631 0.086842 -0.005424
C59   C     C_3   0.048667 0.420359 0.913153 -0.005427
C60   C     C_3   0.054307 0.497456 0.048870 -0.146910
C61   C     C_3   0.945700 0.502535 0.951126 -0.146900
C62   C     C_3   0.041980 0.409346 0.992220 -0.082332
C63   C     C_3   0.958028 0.590644 0.007774 -0.082329
C64   C     C_3   0.579001 0.404990 0.952939 0.040684
C65   C     C_3   0.454452 0.595430 0.577855 -0.082127
C66   C     C_3   0.420998 0.595013 0.047063 0.040695
C67   C     C_3   0.485247 0.427002 0.950756 0.017243
C68   C     C_3   0.514753 0.573001 0.049246 0.017241
C69   C     C_3   0.447874 0.503806 0.054531 -0.139935
C70   C     C_3   0.552125 0.496197 0.945471 -0.139935
C71   C     C_R   0.608795 0.497204 0.888952 0.832722
C72   C     C_R   0.391205 0.502797 0.111048 0.832727
C73   C     C_3   0.541430 0.481955 0.056777 -0.048815
C74   C     C_3   0.458569 0.518048 0.943225 -0.048791
C75   C     C_R   0.891834 0.499706 0.608577 0.781590
C76   C     C_3   0.446080 0.967974 0.983615 0.084932
C77   C     C_R   0.108154 0.500307 0.391422 0.781586
C78   C     C_R   0.889237 0.501925 0.893547 0.835347
C79   C     C_R   0.110766 0.498072 0.106451 0.835347
C80   C     C_R   0.608528 0.501954 0.608669 0.808341
C81   C     C_R   0.391473 0.498043 0.391330 0.808354
C82   C     C_3   0.575445 0.478269 0.457298 -0.080285
C83   C     C_3   0.424564 0.521703 0.542693 -0.080323
C84   C     C_3   0.478817 0.571940 0.482971 0.027165
C85   C     C_3   0.521192 0.428035 0.517024 0.027213
C86   C     C_3   0.449002 0.498021 0.448113 -0.176546
C87   C     C_3   0.553921 0.032025 0.016387 0.084942
C88   C     C_3   0.551003 0.501958 0.551883 -0.176554
C89   C     C_3   0.453869 0.644773 0.452421 -0.344278
C90   C     C_3   0.479318 0.721602 0.499701 -0.297720
C91   C     C_3   0.481472 0.765066 0.446268 -0.896084
C92   C     C_3   0.546143 0.355230 0.547608 -0.344403
C93   C     C_3   0.520810 0.278298 0.500270 -0.297434
C94   C     C_3   0.518501 0.234970 0.553781 -0.896254
C95   C     C_3   0.894662 0.924497 0.502778 -0.396934
C96   C     C_3   0.798327 0.014788 0.569522 -0.334179
C97   C     C_3   0.735538 0.980280 0.555663 -0.890564
C98   C     C_3   0.445590 0.039251 0.959523 -0.294075
C99   C     C_3   0.105339 0.075501 0.497223 -0.396915
C100  C     C_3   0.201672 0.985207 0.430478 -0.334168
C101  C     C_3   0.264470 0.019704 0.444349 -0.890577
C102  C     C_2   0.858257 0.067471 0.429964 0.934137
C103  C     C_2   0.141737 0.932531 0.570041 0.934126
C104  C     C_2   0.057213 0.946389 0.323650 0.911462
C105  C     C_2   0.942786 0.053613 0.676352 0.911447
C106  C     C_3   0.901052 0.667527 0.187658 -0.355839
C107  C     C_3   0.798109 0.728985 0.211189 -0.308492
C108  C     C_3   0.751227 0.823556 0.308945 -0.868574
C109  C     C_3   0.554411 0.960748 0.040478 -0.294051
C110  C     C_3   0.098952 0.332462 0.812337 -0.355813
C111  C     C_3   0.201896 0.271002 0.788801 -0.308510
C112  C     C_3   0.248773 0.176423 0.691049 -0.868551
C113  C     C_2   0.872731 0.481186 0.065507 0.909102
C114  C     C_2   0.127285 0.518791 0.934484 0.909123
C115  C     C_2   0.085157 0.309412 0.985980 0.940295
C116  C     C_2   0.914860 0.690576 0.014012 0.940297
C117  C     C_3   0.461218 0.349123 0.900741 -0.399180
C118  C     C_3   0.503943 0.282437 0.797887 -0.343450
C119  C     C_3   0.473037 0.211593 0.751317 -0.865150
C120  C     C_3   0.450045 0.102762 0.053698 -0.083614
C121  C     C_3   0.538787 0.650875 0.099260 -0.399182
C122  C     C_3   0.496055 0.717567 0.202114 -0.343436
C123  C     C_3   0.526975 0.788397 0.248685 -0.865188
C124  C     C_3   0.671237 0.299260 0.901000 -0.351377
C125  C     C_3   0.675409 0.223258 0.919509 -0.363409
C126  C     C_3   0.772364 0.131559 0.889064 -0.850896
C127  C     C_3   0.328763 0.700745 0.099005 -0.351389
C128  C     C_3   0.324591 0.776748 0.080497 -0.363416
C129  C     C_3   0.227639 0.868471 0.110980 -0.850901
C130  C     C_2   0.590613 0.461974 0.119163 0.884953
H1    H     H_    0.400744 0.072500 0.926674 0.166776
H2    H     H_    0.584645 0.196998 0.563570 0.267858
H3    H     H_    0.601238 0.111870 0.112704 0.228115
H4    H     H_    0.327282 0.176412 0.295547 0.321024
H5    H     H_    0.672746 0.823573 0.704462 0.321026
H6    H     H_    0.342522 0.232353 0.478869 0.254812
H7    H     H_    0.322357 0.351611 0.573828 0.311057
H8    H     H_    0.312817 0.267380 0.592267 0.255349
H9    H     H_    0.162962 0.422434 0.632209 0.245480
H10   H     H_    0.181254 0.304497 0.541996 0.212334
H11   H     H_    0.226389 0.333706 0.429843 0.193801
H12   H     H_    0.201762 0.454295 0.521631 0.214360
H13   H     H_    0.464970 0.298451 0.620708 0.286392
H14   H     H_    0.678049 0.647668 0.425415 0.311173
H15   H     H_    0.657216 0.767104 0.520820 0.254922
H16   H     H_    0.687162 0.732507 0.407616 0.255284
H17   H     H_    0.818343 0.695982 0.458391 0.212344
H18   H     H_    0.837280 0.577790 0.367871 0.245311
H19   H     H_    0.798261 0.545669 0.478261 0.214401
H20   H     H_    0.773556 0.666264 0.570141 0.193730
H21   H     H_    0.232695 0.049482 0.241418 0.276951
H22   H     H_    0.114180 0.127602 0.256838 0.270990
H23   H     H_    0.150478 0.079470 0.326389 0.287315
H24   H     H_    0.504001 0.176149 0.516456 0.255875
H25   H     H_    0.168890 0.237582 0.323879 0.233681
H26   H     H_    0.215013 0.185385 0.387045 0.216801
H27   H     H_    0.076217 0.282982 0.495979 0.155314
H28   H     H_    0.015858 0.277285 0.419542 0.231994
H29   H     H_    0.885884 0.872405 0.743171 0.270970
H30   H     H_    0.767360 0.950545 0.758643 0.276925
H31   H     H_    0.849542 0.920550 0.673635 0.287327
H32   H     H_    0.784948 0.814691 0.613077 0.216730
H33   H     H_    0.831152 0.762443 0.676183 0.233715
H34   H     H_    0.984135 0.722724 0.580392 0.231978
H35   H     H_    0.454414 0.315976 0.491109 0.239487
H36   H     H_    0.923691 0.717067 0.504031 0.155333
H37   H     H_    0.948443 0.325977 0.165641 0.321149
H38   H     H_    0.033699 0.212889 0.162531 0.239831
H39   H     H_    0.917886 0.255477 0.185697 0.259022
H40   H     H_    0.955654 0.306784 0.325657 0.233653
H41   H     H_    0.872279 0.418424 0.328504 0.245782
H42   H     H_    0.985855 0.442877 0.292620 0.222216
H43   H     H_    0.075540 0.322962 0.272489 0.225000
H44   H     H_    0.966370 0.786873 0.837701 0.239880
H45   H     H_    0.051920 0.673560 0.834132 0.321288
H46   H     H_    0.571689 0.211506 0.432874 0.269863
H47   H     H_    0.082126 0.744461 0.814346 0.258973
H48   H     H_    0.127622 0.581804 0.671294 0.245644
H49   H     H_    0.043920 0.693682 0.674634 0.233798
H50   H     H_    0.924438 0.676966 0.727545 0.225016
H51   H     H_    0.014257 0.557042 0.707307 0.222195
H52   H     H_    0.619410 0.311320 0.536672 0.207865
H53   H     H_    0.511495 0.405037 0.621409 0.238597
H54   H     H_    0.718799 0.970082 0.493685 0.270897
H55   H     H_    0.767409 0.905930 0.549548 0.267405
H56   H     H_    0.672038 0.040724 0.613900 0.260297
H57   H     H_    0.599257 0.927499 0.073327 0.166780
H58   H     H_    0.799368 0.045410 0.639756 0.217109
H59   H     H_    0.769791 0.080007 0.561643 0.219260
H60   H     H_    0.892663 0.882288 0.433428 0.222053
H61   H     H_    0.927421 0.868601 0.521856 0.211603
H62   H     H_    0.232602 0.094068 0.450490 0.267448
H63   H     H_    0.281218 0.029871 0.506316 0.270899
H64   H     H_    0.327965 0.959269 0.386105 0.260294
H65   H     H_    0.230201 0.919980 0.438345 0.219239
H66   H     H_    0.200632 0.954598 0.360244 0.217103
H67   H     H_    0.072581 0.131397 0.478146 0.211595
H68   H     H_    0.534901 0.701639 0.379274 0.286311
H69   H     H_    0.107339 0.117708 0.566572 0.222063
H70   H     H_    0.756511 0.180695 0.423890 0.369873
H71   H     H_    0.243447 0.819317 0.576152 0.369944
H72   H     H_    0.109760 0.842613 0.188533 0.343541
H73   H     H_    0.890243 0.157390 0.811469 0.343540
H74   H     H_    0.771043 0.798418 0.354999 0.251267
H75   H     H_    0.676991 0.865852 0.324827 0.250924
H76   H     H_    0.769602 0.877286 0.320104 0.302929
H77   H     H_    0.775934 0.755308 0.166357 0.250978
H78   H     H_    0.775858 0.679268 0.202491 0.223863
H79   H     H_    0.415257 0.803135 0.436633 0.267888
H80   H     H_    0.921739 0.632980 0.226958 0.190361
H81   H     H_    0.922190 0.720575 0.206838 0.241874
H82   H     H_    0.230398 0.122696 0.679902 0.302948
H83   H     H_    0.228953 0.201551 0.644989 0.251281
H84   H     H_    0.323010 0.134126 0.675162 0.250919
H85   H     H_    0.224149 0.320713 0.797486 0.223880
H86   H     H_    0.224073 0.244688 0.833638 0.250970
H87   H     H_    0.077812 0.279416 0.793160 0.241870
H88   H     H_    0.078264 0.367009 0.773036 0.190365
H89   H     H_    0.764260 0.477573 0.059183 0.372367
H90   H     H_    0.496032 0.823835 0.483566 0.255822
H91   H     H_    0.235753 0.522408 0.940814 0.372366
H92   H     H_    0.105534 0.241302 0.051955 0.331319
H93   H     H_    0.894498 0.758681 0.948035 0.331320
H94   H     H_    0.494338 0.157333 0.772041 0.287501
H95   H     H_    0.398489 0.258667 0.768840 0.267077
H96   H     H_    0.503569 0.165251 0.677043 0.248367
H97   H     H_    0.484540 0.332846 0.773320 0.237541
H98   H     H_    0.578481 0.233457 0.778218 0.219751
H99   H     H_    0.482465 0.298271 0.925130 0.200183
H100  H     H_    0.386794 0.393794 0.918640 0.226505
H101  H     H_    0.428574 0.788335 0.567178 0.269838
H102  H     H_    0.601522 0.741310 0.231168 0.267079
H103  H     H_    0.505693 0.842651 0.227957 0.287504
H104  H     H_    0.496436 0.834746 0.322959 0.248362
H105  H     H_    0.421518 0.766559 0.221779 0.219762
H106  H     H_    0.515442 0.667163 0.226683 0.237515
H107  H     H_    0.613211 0.606199 0.081365 0.226518
H108  H     H_    0.517549 0.701722 0.074867 0.200178
H109  H     H_    0.805353 0.090750 0.816300 0.280522
H110  H     H_    0.810641 0.158700 0.928692 0.278546
H111  H     H_    0.773053 0.075893 0.899544 0.256646
H112  H     H_    0.545796 0.683801 0.508679 0.239533
H113  H     H_    0.644189 0.262869 0.992518 0.246497
H114  H     H_    0.638255 0.192364 0.882343 0.235658
H115  H     H_    0.686448 0.264832 0.827577 0.190345
H116  H     H_    0.723017 0.313033 0.921905 0.258954
H117  H     H_    0.189339 0.841359 0.071369 0.278529
H118  H     H_    0.194672 0.909265 0.183746 0.280519
H119  H     H_    0.226952 0.924142 0.100509 0.256649
H120  H     H_    0.361769 0.807616 0.117640 0.235666
H121  H     H_    0.355785 0.737146 0.007485 0.246499
H122  H     H_    0.276980 0.686976 0.078101 0.258954
H123  H     H_    0.488444 0.594990 0.378606 0.238577
H124  H     H_    0.313555 0.735171 0.172427 0.190352
H125  H     H_    0.588998 0.457600 0.228325 0.378104
H126  H     H_    0.410986 0.542423 0.771689 0.378020
H127  H     H_    0.798382 0.341090 0.352710 0.337833
H128  H     H_    0.201631 0.658869 0.647291 0.337838
H129  H     H_    0.651855 0.229889 0.197124 0.338737
H130  H     H_    0.348132 0.770107 0.802867 0.338740
H131  H     H_    0.234340 0.969055 0.898671 0.293600
H132  H     H_    0.237648 0.924978 0.970059 0.261572
H133  H     H_    0.151570 0.057749 0.009440 0.250292
H134  H     H_    0.380587 0.688767 0.463447 0.207931
H135  H     H_    0.265411 0.057666 0.082170 0.232073
H136  H     H_    0.271595 0.087067 0.001527 0.246370
H137  H     H_    0.398756 0.888135 0.887303 0.228093
H138  H     H_    0.398336 0.879434 0.982689 0.220833
H139  H     H_    0.762343 0.075038 0.029976 0.261565
H140  H     H_    0.765649 0.030946 0.101352 0.293604
H141  H     H_    0.848425 0.942266 0.990589 0.250263
H142  H     H_    0.728404 0.912934 0.998476 0.246371
H143  H     H_    0.734594 0.942345 0.917842 0.232078
H144  H     H_    0.601662 0.120568 0.017317 0.220823
O1    O     O_3   0.750010 0.499980 0.749990 -0.514262
O2    O     O_R   0.305750 0.265450 0.132730 -0.624308
O3    O     O_R   0.867280 0.265410 0.571220 -0.592781
O4    O     O_R   0.132720 0.734590 0.428780 -0.592781
O5    O     O_R   0.571230 0.734580 0.867270 -0.659634
O6    O     O_R   0.428770 0.265420 0.132730 -0.659636
O7    O     O_R   0.694200 0.438470 0.867270 -0.630035
O8    O     O_R   0.305800 0.561530 0.132730 -0.630030
O9    O     O_R   0.867340 0.561470 0.694210 -0.642490
O10   O     O_R   0.132660 0.438530 0.305790 -0.642483
O11   O     O_R   0.867310 0.438430 0.867270 -0.591293
O12   O     O_3   0.249990 0.500020 0.250010 -0.514263
O13   O     O_R   0.132690 0.561570 0.132730 -0.591285
O14   O     O_R   0.694200 0.438520 0.571220 -0.591417
O15   O     O_R   0.305800 0.561480 0.428780 -0.591451
O16   O     O_R   0.867340 0.561440 0.867270 -0.623211
O17   O     O_R   0.132660 0.438560 0.132730 -0.623211
O18   O     O_R   0.571190 0.561530 0.694210 -0.596613
O19   O     O_R   0.428810 0.438470 0.305790 -0.596631
O20   O     O_2   0.855069 0.000292 0.366296 -0.609608
O21   O     O_R   0.796757 0.171736 0.462156 -0.777970
O22   O     O_2   0.144938 0.999707 0.633695 -0.609604
O23   O     O_R   0.571190 0.561490 0.867270 -0.603713
O24   O     O_R   0.203212 0.828270 0.537875 -0.777926
O25   O     O_2   0.034226 0.018957 0.317881 -0.638715
O26   O     O_R   0.103290 0.845395 0.245723 -0.761829
O27   O     O_2   0.965775 0.981046 0.682123 -0.638727
O28   O     O_R   0.896709 0.154608 0.754279 -0.761834
O29   O     O_2   0.878760 0.470029 0.127228 -0.613812
O30   O     O_R   0.803520 0.486544 0.029806 -0.802403
O31   O     O_2   0.121277 0.529911 0.872742 -0.614005
O32   O     O_R   0.196483 0.513455 0.970200 -0.802383
O33   O     O_2   0.127582 0.225663 0.912536 -0.628722
O34   O     O_R   0.428810 0.438510 0.132730 -0.603727
O35   O     O_R   0.074010 0.313054 0.064526 -0.760745
O36   O     O_2   0.872433 0.774326 0.087455 -0.628719
O37   O     O_R   0.926018 0.686930 0.935465 -0.760730
O38   O     O_2   0.668801 0.433917 0.104694 -0.637370
O39   O     O_R   0.547417 0.476335 0.193634 -0.789406
O40   O     O_2   0.331196 0.566082 0.895311 -0.637398
O41   O     O_R   0.452571 0.523685 0.806376 -0.789391
O42   O     O_2   0.664346 0.495096 0.379437 -0.671391
O43   O     O_R   0.743787 0.356708 0.388638 -0.749127
O44   O     O_2   0.335661 0.504730 0.620386 -0.671273
O45   O     O_R   0.867310 0.438490 0.571220 -0.648614
O46   O     O_R   0.256228 0.643287 0.611404 -0.749134
O47   O     O_2   0.631610 0.220419 0.322829 -0.657757
O48   O     O_R   0.613863 0.302538 0.254779 -0.771220
O49   O     O_2   0.368301 0.779565 0.677139 -0.657689
O50   O     O_R   0.386153 0.697453 0.745220 -0.771257
O51   O     O_2   0.403576 0.998007 0.171222 -0.669547
O52   O     O_R   0.352035 0.167133 0.239184 -0.829737
O53   O     O_2   0.596433 0.001986 0.828777 -0.669527
O54   O     O_R   0.647982 0.832858 0.760824 -0.829766
O55   O     O_R   0.132690 0.561510 0.428780 -0.648613
O56   O     O_R   0.867280 0.265380 0.694210 -0.599777
O57   O     O_R   0.132720 0.734620 0.305790 -0.599775
O58   O     O_R   0.694250 0.734550 0.867270 -0.624306
Zn1   Zn    Zn3+2 0.618190 0.587870 0.793920 1.005666
Zn2   Zn    Zn3+2 0.381810 0.412130 0.206080 1.005670
Zn3   Zn    Zn3+2 0.793940 0.412090 0.793920 1.017173
Zn4   Zn    Zn3+2 0.206060 0.587910 0.206080 1.017177
Zn5   Zn    Zn3+2 0.793970 0.587840 0.793920 0.981884
Zn6   Zn    Zn3+2 0.206030 0.412160 0.206080 0.981893
Zn7   Zn    Zn3+2 0.793940 0.412130 0.618200 1.008923
Zn8   Zn    Zn3+2 0.206060 0.587870 0.381800 1.008929

loop_
_geom_bond_atom_site_label_1
_geom_bond_atom_site_label_2
_ccdc_geom_bond_type
C122  H106  S    
C60   C79   S    
C127  H124  S    
C126  H110  S    
C4    O42   D    
C103  O22   D    
C39   C41   S    
C97   H55   S    
C55   C105  S    
C24   C98   S    
C26   H21   S    
C84   C86   S    
O18   Zn1   S    
O23   Zn1   S    
C57   C59   S    
C106  C107  S    
C76   C98   S    
C106  H80   S    
C23   H28   S    
C117  H100  S    
C20   H19   S    
C60   C62   S    
C61   C63   S    
C3    C74   S    
C110  C111  S    
C49   C51   S    
C46   C55   S    
C70   C74   S    
C50   C52   S    
C78   O11   A    
C107  H77   S    
C81   C86   S    
O12   Zn4   S    
C130  O39   S    
C21   C22   S    
C33   H50   S    
C34   H49   S    
C6    C54   S    
O34   Zn2   S    
C47   O5    A    
C78   O16   A    
C100  H66   S    
C129  H119  S    
C50   C53   S    
C80   O14   A    
C7    O49   D    
C3    O40   D    
C48   C120  S    
C14   H141  S    
C118  H98   S    
C19   H6    S    
C64   C124  S    
C9    H135  S    
C94   H2    S    
C10   H132  S    
C17   H12   S    
C114  O32   S    
O4    Zn8   S    
C12   H143  S    
C1    O3    A    
C29   H31   S    
C67   C74   S    
C105  O27   D    
O1    Zn3   S    
O6    Zn2   S    
C82   C84   S    
C32   H38   S    
C56   C62   S    
H129  O48   S    
C107  C108  S    
C101  H64   S    
C129  H117  S    
C73   C130  S    
C6    O47   D    
C111  H85   S    
H127  O43   S    
C68   C121  S    
H91   O32   S    
C98   C120  S    
C31   H40   S    
C2    C47   S    
C46   C103  S    
C37   C44   S    
C80   C88   S    
C92   H52   S    
C35   C42   S    
C77   O10   A    
C124  H116  S    
O15   Zn8   S    
C45   C102  S    
C72   O34   A    
O12   Zn2   S    
C83   C86   S    
C20   C21   S    
C36   H45   S    
C22   H14   S    
C40   C77   S    
C58   C106  S    
C58   C60   S    
C103  O24   S    
C2    C109  S    
C111  C112  S    
C128  C129  S    
C14   H139  S    
C130  O38   D    
C109  H57   S    
C115  O35   S    
C127  H122  S    
C37   C40   S    
C53   C104  S    
C66   C74   S    
C8    C76   S    
C15   O52   S    
C119  H94   S    
C13   C109  S    
C123  H102  S    
O3    Zn7   S    
C11   C87   S    
O11   Zn3   S    
C64   C73   S    
C22   H15   S    
C112  H84   S    
O57   Zn4   S    
C104  O26   S    
C40   C42   S    
C45   C53   S    
C25   H26   S    
O12   Zn8   S    
C8    H137  S    
C24   C87   S    
C85   C92   S    
H128  O46   S    
H89   O30   S    
C57   C63   S    
C29   H30   S    
C79   O13   A    
C98   H1    S    
C59   C61   S    
C128  H121  S    
C21   H18   S    
O9    Zn5   S    
C35   C38   S    
C54   C86   S    
C80   O18   A    
C65   C84   S    
C45   C52   S    
C25   C26   S    
C49   C55   S    
C46   C51   S    
C49   C95   S    
C51   C53   S    
C3    O41   S    
O12   Zn6   S    
C69   C72   S    
C71   O23   A    
C123  H104  S    
C31   C32   S    
C19   H7    S    
C17   C18   S    
O5    Zn1   S    
C18   H10   S    
C30   H42   S    
C35   C41   S    
C48   O2    A    
O56   Zn3   S    
C90   H112  S    
C13   C120  S    
C85   C88   S    
H5    O54   S    
O14   Zn7   S    
O55   Zn8   S    
O7    Zn3   S    
C33   C44   S    
C115  O33   D    
O58   Zn5   S    
O19   Zn2   S    
C26   H22   S    
C62   C115  S    
C117  C118  S    
C16   O53   D    
C31   H41   S    
C113  O30   S    
C82   C88   S    
C106  H81   S    
C23   H27   S    
C117  H99   S    
C100  C101  S    
C56   C58   S    
C34   C36   S    
C17   C38   S    
C43   O57   A    
C15   O51   D    
C116  O37   S    
C26   H23   S    
C81   O15   A    
C119  H96   S    
C32   H39   S    
C36   H44   S    
O2    Zn6   S    
C91   H79   S    
C102  O20   D    
C28   C29   S    
C30   C31   S    
C121  H108  S    
C10   H133  S    
C125  H114  S    
C17   H11   S    
C18   C19   S    
C91   H90   S    
C110  H87   S    
C95   H60   S    
C91   H68   S    
C56   C113  S    
C69   C73   S    
C70   C71   S    
O16   Zn5   S    
C52   C55   S    
C48   O6    A    
C122  H105  S    
H73   O28   S    
C126  H109  S    
C101  H63   S    
C5    O44   D    
C39   C42   S    
C97   H56   S    
C71   O7    A    
C6    O48   S    
C111  H86   S    
H130  O50   S    
C20   C39   S    
C57   C60   S    
O8    Zn4   S    
C77   O55   A    
C11   H144  S    
C38   C44   S    
C41   C75   S    
C45   C49   S    
C67   C117  S    
C121  C122  S    
C57   C114  S    
C1    O56   A    
C108  H76   S    
C83   C85   S    
C47   O58   A    
C23   C35   S    
C33   H51   S    
C125  C126  S    
C41   C44   S    
C34   H48   S    
C127  C128  S    
C21   H17   S    
C54   C82   S    
C2    C76   S    
C97   H54   S    
C100  H65   S    
C7    O50   S    
C12   H142  S    
C108  H75   S    
C14   H140  S    
C87   C109  S    
C118  H97   S    
C9    H136  S    
H72   O26   S    
C10   H131  S    
C114  O31   D    
H71   O24   S    
C37   C39   S    
C38   C40   S    
C43   C51   S    
C90   C91   S    
C65   C88   S    
C92   C93   S    
C105  O28   S    
C1    C52   S    
C128  H120  S    
C27   H36   S    
C32   H37   S    
C99   H69   S    
H4    O52   S    
C56   C61   S    
C30   C42   S    
C89   C90   S    
C4    O43   S    
C5    O46   S    
C79   O17   A    
C129  H118  S    
C116  O36   D    
C66   C68   S    
C93   C94   S    
C25   H25   S    
C96   H58   S    
C95   C96   S    
C8    H138  S    
C101  H62   S    
C28   H32   S    
O13   Zn4   S    
C29   H29   S    
C50   C99   S    
C94   H13   S    
C112  H82   S    
C11   H3    S    
C5    C83   S    
C65   C83   S    
C66   C69   S    
C7    C65   S    
C75   O9    A    
C59   C110  S    
C66   C127  S    
O1    Zn1   S    
C124  H115  S    
C81   O19   A    
C118  C119  S    
C123  H103  S    
C20   H20   S    
C8    C9    S    
C64   C70   S    
C30   H43   S    
C95   H61   S    
C93   H35   S    
C16   C24   S    
C89   H123  S    
H93   O37   S    
O1    Zn7   S    
H125  O39   S    
O17   Zn6   S    
O10   Zn6   S    
C64   C67   S    
C22   H16   S    
C68   C73   S    
O45   Zn7   S    
C67   C69   S    
C96   H59   S    
C27   H34   S    
H126  O41   S    
C99   C100  S    
C16   O54   S    
C13   C76   S    
C61   C78   S    
C113  O29   D    
C96   C97   S    
C99   H67   S    
C126  H111  S    
C33   C34   S    
C107  H78   S    
C89   H134  S    
C112  H83   S    
C12   C14   S    
C13   C15   S    
C2    C24   S    
H70   O21   S    
C90   H101  S    
C72   O8    A    
C84   C89   S    
C63   C116  S    
C104  O25   D    
C119  H95   S    
C9    C10   S    
C58   C63   S    
C59   C62   S    
C36   H47   S    
C92   H53   S    
C54   C85   S    
C75   O45   A    
C11   C12   S    
C102  O21   S    
H92   O35   S    
C46   C50   S    
C93   H46   S    
C87   C120  S    
C108  H74   S    
C94   H24   S    
C43   O4    A    
C27   C37   S    
C19   H8    S    
C121  H107  S    
C125  H113  S    
C23   C25   S    
C18   H9    S    
C110  H88   S    
C4    C82   S    
C28   H33   S    
C68   C70   S    
C27   C28   S    
C122  C123  S    
O1    Zn5   S    
C124  C125  S    
