data_mof_unit_56018.cif
_audit_creation_date              2012-10-26T18:30:20-0400
_audit_creation_method            fapswitch 2.2
_symmetry_space_group_name_H-M    P1
_symmetry_Int_Tables_number       1
_space_group_crystal_system       triclinic
_cell_length_a                    10.651494
_cell_length_b                    13.070125
_cell_length_c                    11.660634
_cell_angle_alpha                 99.169179
_cell_angle_beta                  94.32242
_cell_angle_gamma                 90.383703
_cell_volume                      1597.76118806

loop_
_atom_site_label
_atom_site_type_symbol
_atom_type_description
_atom_site_fract_x
_atom_site_fract_y
_atom_site_fract_z
_atom_type_partial_charge
C1    C     C_R   0.502221 0.299406 0.479618 0.546746
C2    C     C_R   0.609001 0.586805 0.855841 0.038339
C3    C     C_R   0.553535 0.539912 0.156769 0.041112
C4    C     C_R   0.447644 0.458906 0.842991 0.038963
C5    C     C_R   0.544559 0.534030 0.034037 0.006785
C6    C     C_R   0.456190 0.465126 0.965794 0.005904
C7    C     C_R   0.259211 0.499926 0.499542 0.556031
C8    C     C_R   0.740768 0.500039 0.500454 0.548221
C9    C     C_3   0.045904 0.417122 0.543929 -0.128335
C10   C     C_3   0.953994 0.582797 0.456066 -0.125953
C11   C     C_3   0.950864 0.412021 0.435279 -0.123239
C12   C     C_R   0.505583 0.700664 0.520490 0.547438
C13   C     C_3   0.049033 0.587899 0.564730 -0.121072
C14   C     C_3   0.877365 0.500058 0.501887 0.044360
C15   C     C_3   0.122560 0.499862 0.498108 0.044616
C16   C     C_3   0.970686 0.505090 0.609383 0.011209
C17   C     C_3   0.029207 0.494819 0.390611 0.012428
C18   C     C_R   0.509292 0.813742 0.530999 -0.007167
C19   C     C_R   0.504462 0.186443 0.469500 -0.008273
C20   C     C_R   0.474015 0.019259 0.345312 -0.006584
C21   C     C_R   0.494403 0.980544 0.654521 -0.007151
C22   C     C_R   0.470638 0.126909 0.360809 -0.138973
C23   C     C_R   0.534680 0.137481 0.567402 -0.016037
C24   C     C_R   0.489819 0.872789 0.638961 -0.141550
C25   C     C_3   0.939930 0.510878 0.735517 -0.385918
C26   C     C_3   0.059788 0.488872 0.264417 -0.385262
C27   C     C_3   0.592811 0.808511 0.331545 -0.383923
C28   C     C_3   0.614608 0.193553 0.672260 -0.374460
C29   C     C_3   0.425928 0.960699 0.227574 -0.407338
C30   C     C_3   0.460909 0.038230 0.770856 -0.409502
C31   C     C_R   0.526315 0.863186 0.433934 -0.008431
C32   C     C_R   0.511325 0.030165 0.556878 0.050194
C33   C     C_R   0.504044 0.970095 0.443726 0.050879
C34   C     C_R   0.379082 0.404323 0.021969 -0.181883
C35   C     C_R   0.621340 0.595172 0.977980 -0.182347
C36   C     C_R   0.390736 0.413379 0.144209 0.039469
Cu1   Cu    Cu3+1 0.509400 0.507730 0.615930 0.915090
Cu2   Cu    Cu3+1 0.490600 0.492270 0.384070 0.919575
H1    H     H_    0.908426 0.340492 0.381850 0.108461
H2    H     H_    0.331154 0.366078 0.186638 0.116343
H3    H     H_    0.310274 0.350294 0.971946 0.078723
H4    H     H_    0.690107 0.649205 0.028069 0.079081
H5    H     H_    0.028541 0.511156 0.792116 0.121584
H6    H     H_    0.888600 0.583120 0.763044 0.130640
H7    H     H_    0.880879 0.442770 0.744608 0.142370
H8    H     H_    0.971107 0.488603 0.207914 0.120806
H9    H     H_    0.118869 0.556900 0.255148 0.147001
H10   H     H_    0.111003 0.416565 0.236915 0.129196
H11   H     H_    0.665265 0.755795 0.361330 0.128376
H12   H     H_    0.091437 0.659427 0.618190 0.108514
H13   H     H_    0.524319 0.763763 0.265722 0.144414
H14   H     H_    0.645930 0.864431 0.290463 0.118577
H15   H     H_    0.685025 0.245691 0.644276 0.142842
H16   H     H_    0.555047 0.239446 0.734919 0.145905
H17   H     H_    0.671209 0.138504 0.716922 0.118985
H18   H     H_    0.360177 0.008498 0.180815 0.117473
H19   H     H_    0.505169 0.940063 0.172331 0.124871
H20   H     H_    0.371746 0.890157 0.237245 0.140435
H21   H     H_    0.397470 0.990357 0.813194 0.120004
H22   H     H_    0.547033 0.057099 0.830346 0.125658
H23   H     H_    0.085789 0.349838 0.580493 0.102269
H24   H     H_    0.408804 0.109736 0.760070 0.134345
H25   H     H_    0.913996 0.650057 0.419511 0.097994
H26   H     H_    0.472353 0.834791 0.712523 0.134871
H27   H     H_    0.443226 0.164498 0.286558 0.130882
H28   H     H_    0.380410 0.405743 0.789539 0.113842
H29   H     H_    0.622340 0.591634 0.209915 0.108402
H30   H     H_    0.668113 0.634541 0.813495 0.119591
N1    N     N_R   0.523540 0.519360 0.790140 -0.229742
N2    N     N_R   0.476460 0.480640 0.209860 -0.227635
O1    O     O_R   0.506670 0.354460 0.582000 -0.509668
O2    O     O_R   0.493330 0.645540 0.418000 -0.504437
O3    O     O_R   0.490800 0.341410 0.386200 -0.511240
O4    O     O_R   0.509200 0.658590 0.613800 -0.512207
O5    O     O_R   0.324790 0.506500 0.597880 -0.505496
O6    O     O_R   0.675210 0.493500 0.402120 -0.509377
O7    O     O_R   0.308910 0.493440 0.402080 -0.506051
O8    O     O_R   0.691090 0.506560 0.597920 -0.510564

loop_
_geom_bond_atom_site_label_1
_geom_bond_atom_site_label_2
_ccdc_geom_bond_type
C2    C35   A    
Cu1   O4    S    
Cu2   N2    S    
Cu1   N1    S    
C10   H25   S    
C25   H5    S    
Cu1   O1    S    
Cu2   O6    S    
C12   O4    A    
C1    O1    A    
C18   C24   A    
C17   C26   S    
C9    C16   S    
C2    H30   S    
C5    C6    A    
C11   C14   S    
C10   C17   S    
C8    O6    A    
C35   H4    S    
C36   N2    A    
C30   H22   S    
C31   C33   A    
C14   C16   S    
C2    N1    A    
C26   H10   S    
C7    O7    A    
C7    C15   S    
Cu1   O5    S    
C24   H26   S    
C8    O8    A    
C34   H3    S    
C25   H6    S    
C4    N1    A    
C28   H17   S    
C27   H13   S    
C20   C29   S    
C21   C32   A    
Cu2   O2    S    
C1    C19   S    
C27   C31   S    
C36   H2    S    
C3    N2    A    
C4    C6    A    
C10   C14   S    
C28   H16   S    
C7    O5    A    
C6    C34   A    
C19   C23   A    
C22   H27   S    
Cu1   Cu2   S    
C30   H21   S    
C19   C22   A    
C23   C28   S    
C11   H1    S    
C9    C11   S    
C26   H9    S    
C20   C33   A    
C29   H18   S    
C20   C22   A    
C13   C15   S    
C9    H23   S    
C21   C24   A    
C25   H7    S    
C27   H14   S    
Cu1   O8    S    
C16   C25   S    
C15   C17   S    
C11   C17   S    
C8    C14   S    
C3    H29   S    
C29   H19   S    
C3    C5    A    
C10   C13   S    
C28   H15   S    
Cu2   O7    S    
C21   C30   S    
C1    O3    A    
C23   C32   A    
C30   H24   S    
C9    C15   S    
C32   C33   A    
C4    H28   S    
C5    C35   A    
C34   C36   A    
C12   O2    A    
C26   H8    S    
C13   H12   S    
C29   H20   S    
C13   C16   S    
C12   C18   S    
C18   C31   A    
C27   H11   S    
Cu2   O3    S    
