data_mof_unit_52656.cif
_audit_creation_date              2013-03-05T16:25:01-0500
_audit_creation_method            fapswitch 2.2
_symmetry_space_group_name_H-M    P1
_symmetry_Int_Tables_number       1
_space_group_crystal_system       triclinic
_cell_length_a                    15.153555
_cell_length_b                    13.860277
_cell_length_c                    9.082097
_cell_angle_alpha                 90.011823
_cell_angle_beta                  90.157738
_cell_angle_gamma                 90.196914
_cell_volume                      1907.51672546

loop_
_atom_site_label
_atom_site_type_symbol
_atom_site_description
_atom_site_fract_x
_atom_site_fract_y
_atom_site_fract_z
_atom_type_partial_charge
O1    O     O_R   0.371460 0.581430 0.500010 -0.556036
O2    O     O_R   0.628540 0.418570 0.499990 -0.543603
O3    O     O_R   0.628540 0.581430 0.499990 -0.563969
O4    O     O_R   0.371460 0.418570 0.500010 -0.552072
C1    C     C_R   0.329645 0.499783 0.501032 0.845912
C2    C     C_R   0.670136 0.500209 0.500498 0.862452
O5    O     O_R   0.500000 0.581420 0.288390 -0.577157
O6    O     O_R   0.500000 0.418580 0.711610 -0.597223
O7    O     O_R   0.500000 0.581420 0.711610 -0.583528
O8    O     O_R   0.500000 0.418580 0.288390 -0.592692
C3    C     C_R   0.541702 0.108145 0.613003 -0.281490
C4    C     C_R   0.431897 0.891820 0.431748 -0.282967
C5    C     C_R   0.458174 0.107737 0.387373 -0.299283
C6    C     C_R   0.567899 0.892304 0.568989 -0.295384
C7    C     C_R   0.499997 0.499991 0.220509 0.852076
C8    C     C_R   0.500057 0.500003 0.779478 0.819346
Cu1   Cu    Cu3+1 0.500000 0.596430 0.500000 0.970697
Cu2   Cu    Cu3+1 0.500000 0.403570 0.500000 0.967538
H1    H     H_    0.574544 0.249055 0.697151 0.135926
H2    H     H_    0.381102 0.750921 0.377549 0.138439
H3    H     H_    0.425292 0.248326 0.303033 0.145986
H4    H     H_    0.618343 0.751708 0.623708 0.121588
N1    N     N_R   0.500000 0.258690 0.500000 -0.177194
N2    N     N_R   0.500000 0.741310 0.500000 -0.172885
C9    C     C_R   0.499937 0.054693 0.500230 0.131552
C10   C     C_R   0.499932 0.945312 0.500296 0.133080
C11   C     C_1   0.500047 0.499977 0.065486 -0.180711
C12   C     C_1   0.500070 0.499994 0.934476 -0.195676
C13   C     C_R   0.094692 0.581082 0.558245 -0.256987
C14   C     C_R   0.904295 0.425544 0.578379 -0.254155
C15   C     C_R   0.906529 0.576150 0.443101 -0.263076
C16   C     C_R   0.092624 0.417394 0.465405 -0.257427
H5    H     H_    0.059942 0.644777 0.595443 0.159211
H6    H     H_    0.938929 0.367059 0.632369 0.159806
H7    H     H_    0.943602 0.632052 0.387163 0.157339
H8    H     H_    0.055925 0.355297 0.425909 0.161396
C17   C     C_R   0.186642 0.581114 0.558165 0.425002
C18   C     C_R   0.812371 0.425847 0.577688 0.432632
C19   C     C_R   0.814184 0.578010 0.440889 0.428090
C20   C     C_R   0.184800 0.415712 0.463769 0.428792
C21   C     C_R   0.232603 0.499105 0.506525 -0.247620
C22   C     C_R   0.766801 0.500932 0.505175 -0.242689
C23   C     C_R   0.047736 0.499500 0.512675 0.016252
C24   C     C_R   0.951329 0.500604 0.512040 0.017286
C25   C     C_R   0.541531 0.209611 0.610163 0.113165
C26   C     C_R   0.433585 0.790362 0.431845 0.119670
C27   C     C_R   0.458434 0.209205 0.389959 0.087162
C28   C     C_R   0.566167 0.790830 0.568821 0.086549
H9    H     H_    0.573516 0.072394 0.704576 0.130372
H10   H     H_    0.376700 0.927531 0.379655 0.129925
H11   H     H_    0.426271 0.071675 0.295935 0.132977
H12   H     H_    0.623042 0.928390 0.621324 0.129935
O9    O     O_3   0.230897 0.663476 0.602898 -0.562895
C29   C     C_3   0.242078 0.659484 0.756949 -0.282475
H13   H     H_    0.279821 0.724158 0.792558 0.189575
H14   H     H_    0.280695 0.594857 0.790585 0.145670
H15   H     H_    0.177367 0.660641 0.814598 0.148845
O10   O     O_3   0.767577 0.350438 0.643798 -0.559785
C30   C     C_3   0.754677 0.373678 0.793343 -0.307550
H16   H     H_    0.717765 0.313838 0.846286 0.181856
H17   H     H_    0.714531 0.440317 0.805793 0.143504
H18   H     H_    0.818747 0.381596 0.852457 0.160352
O11   O     O_3   0.769701 0.648821 0.362691 -0.556485
C31   C     C_3   0.787646 0.740312 0.424455 -0.290872
H19   H     H_    0.781898 0.740011 0.546776 0.138333
H20   H     H_    0.738288 0.792226 0.381630 0.190437
H21   H     H_    0.853774 0.766884 0.390645 0.152803
O12   O     O_3   0.227806 0.336269 0.406187 -0.564320
C32   C     C_3   0.221735 0.259222 0.507243 -0.283742
H22   H     H_    0.247772 0.280044 0.617642 0.161271
H23   H     H_    0.262699 0.198762 0.466334 0.182746
H24   H     H_    0.152833 0.232144 0.516501 0.146407

loop_
_geom_bond_atom_site_label_1
_geom_bond_atom_site_label_2
_geom_bond_distance
_ccdc_geom_bond_type
C8    C12   1.407711 S    
C32   H24   1.111717 S    
H4    C28   1.080991 S    
C23   C24   1.461036 S    
H1    C25   1.081233 S    
O3    Cu1   1.959611 S    
N1    C25   1.363667 A    
O2    Cu2   1.958190 S    
C19   O11   1.387158 S    
C2    C22   1.465325 S    
C4    H10   1.081307 S    
O6    Cu2   1.933047 S    
O3    C2    1.292094 A    
O4    Cu2   1.959614 S    
C31   H19   1.114591 S    
O5    C7    1.285922 A    
Cu1   Cu2   2.673094 S    
C9    C10   1.516048 S    
C17   O9    1.382386 S    
C30   H16   1.109241 S    
O6    C8    1.285788 A    
C31   H20   1.109340 S    
C5    H11   1.081273 S    
O9    C29   1.409989 S    
C13   C23   1.396011 A    
C29   H15   1.113053 S    
C14   C24   1.396738 A    
O2    C2    1.293360 A    
O8    Cu2   1.933134 S    
Cu2   N1    2.008076 S    
C3    H9    1.081312 S    
O4    C1    1.293676 A    
C16   H8    1.083597 S    
C15   H7    1.082954 S    
O7    Cu1   1.933132 S    
C20   C21   1.415643 A    
C16   C23   1.396003 A    
C15   C19   1.399778 A    
C18   C22   1.412916 A    
C19   C22   1.412460 A    
C29   H14   1.113943 S    
O8    C7    1.285923 A    
C16   C20   1.397176 A    
C17   C21   1.415650 A    
C32   H22   1.114084 S    
C6    H12   1.081286 S    
C3    C25   1.406598 A    
Cu1   N2    2.008076 S    
C30   H17   1.113625 S    
C15   C24   1.397176 A    
C14   H6    1.083814 S    
O11   C31   1.411798 S    
N2    C28   1.363361 A    
C31   H21   1.110534 S    
C13   H5    1.083903 S    
O1    C1    1.295116 A    
N1    C27   1.363540 A    
O1    Cu1   1.958193 S    
C14   C18   1.392987 A    
C4    C26   1.406553 A    
C20   O12   1.384627 S    
C13   C17   1.393364 A    
C11   C12   1.189844 T    
C32   H23   1.109192 S    
C6    C28   1.406605 A    
C3    C9    1.411147 A    
C29   H13   1.109310 S    
O12   C32   1.411184 S    
C30   H18   1.113239 S    
C1    C21   1.471508 S    
H3    C27   1.081377 S    
O10   C30   1.410084 S    
C18   O10   1.382515 S    
C7    C11   1.407934 S    
O7    C8    1.285943 A    
C6    C10   1.411260 A    
C5    C27   1.406566 A    
C4    C10   1.411102 A    
N2    C26   1.363717 A    
C5    C9    1.411224 A    
H2    C26   1.081313 S    
O5    Cu1   1.933048 S    
