data_mof_unit_51311.cif
_audit_creation_date              2012-12-11T16:24:21-0500
_audit_creation_method            fapswitch 2.2
_symmetry_space_group_name_H-M    P1
_symmetry_Int_Tables_number       1
_space_group_crystal_system       triclinic
_cell_length_a                    14.753359
_cell_length_b                    14.759964
_cell_length_c                    33.295054
_cell_angle_alpha                 96.070624
_cell_angle_beta                  96.254838
_cell_angle_gamma                 61.210846
_cell_volume                      6304.4955662

loop_
_atom_site_label
_atom_site_type_symbol
_atom_type_description
_atom_site_fract_x
_atom_site_fract_y
_atom_site_fract_z
_atom_type_partial_charge
C1    C     C_R   0.391004 0.699485 0.446079 0.545601
C2    C     C_1   0.315168 0.340463 0.228986 -0.013103
C3    C     C_1   0.320720 0.344743 0.265314 -0.013152
C4    C     C_R   0.405930 0.386413 0.433962 0.544758
C5    C     C_R   0.291316 0.294329 0.101779 0.019179
C6    C     C_R   0.754863 0.373057 0.409863 0.008854
C7    C     C_R   0.781397 0.437140 0.391327 -0.131602
C8    C     C_R   0.807817 0.415034 0.351313 -0.129714
C9    C     C_R   0.808430 0.328472 0.328990 0.022009
C10   C     C_R   0.790827 0.258553 0.348740 -0.013851
C11   C     C_R   0.764795 0.281234 0.389014 -0.133799
C12   C     C_R   0.331039 0.348309 0.308590 0.039719
C13   C     C_R   0.829270 0.307052 0.203651 0.342661
C14   C     C_R   0.817993 0.319572 0.284938 0.340474
C15   C     C_R   0.820884 0.388424 0.140422 -0.112596
C16   C     C_R   0.700659 0.409949 0.447520 0.547601
C17   C     C_R   0.852050 0.379716 0.101337 0.088580
C18   C     C_R   0.919528 0.193333 0.100037 -0.162290
C19   C     C_R   0.888692 0.202681 0.138904 -0.131230
C20   C     C_R   0.843598 0.299659 0.160147 0.014410
C21   C     C_R   0.906563 0.280658 0.081659 0.060814
C22   C     C_R   0.371025 0.754171 0.408996 0.021478
C23   C     C_R   0.413153 0.265780 0.328232 -0.104155
C24   C     C_R   0.276975 0.783748 0.385724 -0.127976
C25   C     C_R   0.266837 0.811660 0.346198 -0.116836
C26   C     C_R   0.350452 0.810760 0.329297 0.034299
C27   C     C_R   0.441035 0.790605 0.353803 -0.117837
C28   C     C_R   0.393662 0.701105 0.561303 0.543355
C29   C     C_R   0.451276 0.762467 0.393373 -0.128961
C30   C     C_R   0.343209 0.828835 0.204371 0.347689
C31   C     C_R   0.346225 0.821433 0.285572 0.348667
C32   C     C_R   0.257946 0.832522 0.135304 -0.119124
C33   C     C_R   0.238335 0.862993 0.095766 -0.131182
C34   C     C_R   0.432772 0.274658 0.369986 -0.120550
C35   C     C_R   0.381537 0.901786 0.104950 -0.131826
C36   C     C_R   0.401235 0.871161 0.144555 -0.120921
C37   C     C_R   0.336385 0.841051 0.160650 0.034994
C38   C     C_R   0.296732 0.902674 0.080915 0.021332
C39   C     C_R   0.370887 0.369576 0.585308 0.059455
C40   C     C_R   0.407257 0.388703 0.549029 0.565939
C41   C     C_R   0.290301 0.453566 0.605506 -0.158026
C42   C     C_R   0.270465 0.445770 0.644567 -0.129009
C43   C     C_R   0.330709 0.353777 0.664238 0.014282
C44   C     C_R   0.404206 0.266677 0.642834 -0.112903
C45   C     C_R   0.394429 0.253302 0.165754 -0.107082
C46   C     C_R   0.424538 0.273572 0.603506 0.089245
C47   C     C_R   0.318203 0.349427 0.788854 0.345124
C48   C     C_R   0.323520 0.350739 0.707773 0.347231
C49   C     C_R   0.218977 0.405130 0.851000 -0.121007
C50   C     C_R   0.207847 0.385078 0.889666 -0.131287
C51   C     C_R   0.386117 0.248392 0.892893 -0.129038
C52   C     C_R   0.701443 0.413608 0.562795 0.539334
C53   C     C_R   0.397137 0.268275 0.854298 -0.119423
C54   C     C_R   0.312239 0.343435 0.832262 0.034236
C55   C     C_R   0.289905 0.303151 0.910084 0.021753
C56   C     C_R   0.385184 0.234740 0.123961 -0.124313
C57   C     C_R   0.753627 0.380243 0.603389 0.001650
C58   C     C_R   0.793858 0.437253 0.629249 -0.018665
C59   C     C_R   0.820295 0.415764 0.670138 -0.107488
C60   C     C_R   0.808193 0.338044 0.685538 0.025123
C61   C     C_R   0.775653 0.276975 0.659783 -0.117374
C62   C     C_R   0.749163 0.297404 0.619058 -0.138281
C63   C     C_R   0.882022 0.213421 0.823488 -0.110544
C64   C     C_R   0.370567 0.366650 0.392426 0.019213
C65   C     C_R   0.910801 0.202075 0.864766 -0.126759
C66   C     C_R   0.870776 0.382520 0.873662 -0.125012
C67   C     C_R   0.209658 0.377614 0.121795 -0.125546
C68   C     C_R   0.841872 0.393657 0.832438 -0.109498
C69   C     C_R   0.850454 0.308398 0.807156 0.040421
C70   C     C_1   0.834793 0.316727 0.764188 -0.016794
C71   C     C_1   0.823331 0.325172 0.728231 -0.015265
C72   C     C_R   0.908985 0.285645 0.889992 0.019971
C73   C     C_R   0.377559 0.753453 0.602220 0.003841
C74   C     C_R   0.282865 0.788270 0.619624 -0.129763
C75   C     C_R   0.274512 0.816298 0.660913 -0.125864
C76   C     C_R   0.283810 0.446330 0.372731 -0.124461
C77   C     C_R   0.360422 0.809970 0.685409 0.025716
C78   C     C_R   0.219109 0.395866 0.163626 -0.108624
C79   C     C_R   0.453951 0.781181 0.667949 0.001326
C80   C     C_R   0.461848 0.753683 0.626439 -0.131113
C81   C     C_R   0.397858 0.881947 0.833088 -0.107242
C82   C     C_R   0.377599 0.910417 0.873793 -0.126499
C83   C     C_R   0.228410 0.880806 0.863032 -0.125425
C84   C     C_R   0.248943 0.852279 0.822373 -0.111832
C85   C     C_R   0.331924 0.855568 0.807160 0.039254
C86   C     C_1   0.344664 0.838944 0.764486 -0.012156
C87   C     C_1   0.352637 0.826461 0.728516 -0.009142
C88   C     C_R   0.264466 0.437237 0.330941 -0.108354
C89   C     C_R   0.310331 0.331703 0.185699 0.041292
C90   C     C_R   0.290629 0.913361 0.888880 0.019368
C91   C     C_R   0.962999 0.264358 0.045401 0.569072
C92   C     C_R   0.272718 0.259431 0.060040 0.542766
C93   C     C_R   0.259207 0.959680 0.043791 0.544991
C94   C     C_R   0.962373 0.267704 0.930796 0.543656
C95   C     C_R   0.270864 0.264089 0.945394 0.544914
C96   C     C_R   0.256117 0.964977 0.928978 0.543762
C97   C     C_1   0.789642 0.168122 0.327917 0.215838
C98   C     C_1   0.806313 0.519850 0.615409 0.223999
C99   C     C_1   0.544013 0.774314 0.692309 0.199147
Cr1   Cr    Cr6+3 0.576280 0.580550 0.506370 1.036814
Cr2   Cr    Cr6+3 0.346780 0.572400 0.496520 1.016709
Cr3   Cr    Cr6+3 0.576960 0.347070 0.497150 1.031805
Cr4   Cr    Cr6+3 0.087320 0.083240 0.984860 1.012909
Cr5   Cr    Cr6+3 0.087720 0.316210 0.996740 1.028800
Cr6   Cr    Cr6+3 0.317350 0.090340 0.995890 1.014269
H1    H     H_    0.449424 0.170144 0.109444 0.131061
H2    H     H_    0.465477 0.203537 0.182719 0.122555
H3    H     H_    0.195199 0.828929 0.328295 0.143160
H4    H     H_    0.506334 0.790565 0.341758 0.138761
H5    H     H_    0.207984 0.807524 0.146602 0.136837
H6    H     H_    0.428388 0.931326 0.094202 0.130909
H7    H     H_    0.463156 0.877251 0.163222 0.136581
H8    H     H_    0.246786 0.527935 0.592269 0.139311
H9    H     H_    0.132891 0.429031 0.902292 0.131182
H10   H     H_    0.212154 0.513802 0.660154 0.144532
H11   H     H_    0.449127 0.193831 0.657101 0.135092
H12   H     H_    0.745440 0.230418 0.403166 0.132385
H13   H     H_    0.464862 0.196524 0.311050 0.128093
H14   H     H_    0.152538 0.464401 0.834890 0.135092
H15   H     H_    0.451186 0.185726 0.908155 0.131505
H16   H     H_    0.470717 0.220953 0.840953 0.135838
H17   H     H_    0.940334 0.126367 0.876354 0.129234
H18   H     H_    0.888733 0.147050 0.804068 0.114340
H19   H     H_    0.766816 0.216090 0.671489 0.119566
H20   H     H_    0.719407 0.251594 0.600412 0.142213
H21   H     H_    0.817194 0.467568 0.819996 0.119599
H22   H     H_    0.868426 0.448307 0.892270 0.130602
H23   H     H_    0.823156 0.468692 0.337200 0.138784
H24   H     H_    0.500129 0.211987 0.384233 0.137008
H25   H     H_    0.847248 0.461838 0.690319 0.128987
H26   H     H_    0.426830 0.935340 0.892846 0.130129
H27   H     H_    0.462423 0.884472 0.821521 0.125896
H28   H     H_    0.535693 0.726751 0.613606 0.145237
H29   H     H_    0.216685 0.788858 0.601778 0.134735
H30   H     H_    0.197661 0.831662 0.802461 0.116034
H31   H     H_    0.160816 0.882392 0.873656 0.129470
H32   H     H_    0.202039 0.838785 0.674068 0.118301
H33   H     H_    0.234564 0.518205 0.389128 0.131199
H34   H     H_    0.783393 0.464483 0.155902 0.136419
H35   H     H_    0.153764 0.456925 0.178927 0.118229
H36   H     H_    0.136312 0.424772 0.105598 0.133431
H37   H     H_    0.200551 0.501353 0.315874 0.119026
H38   H     H_    0.775420 0.507943 0.406821 0.137219
H39   H     H_    0.865503 0.509479 0.100989 0.228526
H40   H     H_    0.750902 0.519870 0.080829 0.227038
H41   H     H_    0.481255 0.125182 0.581131 0.229728
H42   H     H_    0.572271 0.159031 0.600531 0.226638
H43   H     H_    0.960070 0.116346 0.085563 0.138269
H44   H     H_    0.905347 0.133010 0.153028 0.147454
H45   H     H_    0.213326 0.779212 0.397100 0.134535
H46   H     H_    0.524501 0.740787 0.410717 0.132296
H47   H     H_    0.173281 0.861522 0.077754 0.131011
N1    N     N_R   0.789751 0.400233 0.224778 -0.229735
N2    N     N_R   0.423075 0.827540 0.268995 -0.226827
N3    N     N_R   0.421229 0.831875 0.229171 -0.227420
N4    N     N_R   0.241564 0.427415 0.767706 -0.232927
N5    N     N_3   0.831055 0.471239 0.082406 -0.604241
N6    N     N_1   0.788520 0.095644 0.311335 -0.278341
N7    N     N_3   0.502233 0.183882 0.582942 -0.599435
N8    N     N_1   0.816372 0.586107 0.604419 -0.285215
N9    N     N_1   0.616209 0.768720 0.711821 -0.295205
N10   N     N_R   0.244577 0.428452 0.727950 -0.229209
N11   N     N_R   0.399936 0.272910 0.728956 -0.230860
N12   N     N_R   0.397170 0.272122 0.768651 -0.230219
N13   N     N_R   0.783937 0.406362 0.264598 -0.226010
N14   N     N_R   0.857692 0.226346 0.263850 -0.197762
N15   N     N_R   0.863463 0.220187 0.223993 -0.220047
N16   N     N_R   0.266707 0.822388 0.220987 -0.226429
N17   N     N_R   0.268369 0.818404 0.260745 -0.224832
O1    O     O_R   0.679450 0.499830 0.463150 -0.514691
O2    O     O_R   0.340240 0.172500 0.045430 -0.519227
O3    O     O_R   0.309670 0.000990 0.032050 -0.501561
O4    O     O_R   0.480650 0.664000 0.464630 -0.501133
O5    O     O_R   0.168330 0.982130 0.939200 -0.519487
O6    O     O_R   0.000140 0.178170 0.944610 -0.502543
O7    O     O_R   0.983010 0.336750 0.948660 -0.517526
O8    O     O_R   0.181800 0.312190 0.959860 -0.502861
O9    O     O_R   0.338500 0.175680 0.956950 -0.519221
O10   O     O_R   0.308050 0.003930 0.950020 -0.500986
O11   O     O_3   0.164130 0.163270 0.992500 -0.241268
O12   O     O_R   0.356040 0.477400 0.534170 -0.515165
O13   O     O_R   0.323930 0.675950 0.455370 -0.518512
O14   O     O_R   0.354700 0.475360 0.451930 -0.501799
O15   O     O_R   0.494470 0.320860 0.448390 -0.516196
O16   O     O_R   0.662580 0.357570 0.460050 -0.503337
O17   O     O_R   0.680900 0.502040 0.551870 -0.495902
O18   O     O_R   0.481990 0.666040 0.546870 -0.499786
O19   O     O_R   0.325370 0.678160 0.544080 -0.517828
O20   O     O_R   0.495910 0.323070 0.537100 -0.471772
O21   O     O_R   0.663920 0.359620 0.542290 -0.505858
O22   O     O_3   0.500010 0.500010 0.500010 -0.245912
O23   O     O_R   0.170070 0.978950 0.027680 -0.520148
O24   O     O_R   0.001760 0.175230 0.026640 -0.515462
O25   O     O_R   0.984760 0.333570 0.037150 -0.473533
O26   O     O_R   0.183410 0.309240 0.041890 -0.502824

loop_
_geom_bond_atom_site_label_1
_geom_bond_atom_site_label_2
_ccdc_geom_bond_type
C66   C68   A    
C63   C65   A    
C59   H25   S    
C73   C80   A    
Cr6   O3    S    
C27   C29   A    
C18   C21   A    
C41   C42   A    
C5    C56   A    
N11   N12   A    
C58   C98   S    
Cr6   O9    S    
C5    C67   A    
C92   O26   A    
H42   N7    S    
C45   C89   A    
C23   H13   S    
C7    H38   S    
C81   C82   A    
Cr2   O12   S    
C7    C8    A    
Cr5   O7    S    
C48   N11   A    
C49   H14   S    
C53   C54   A    
C12   C23   A    
C1    O4    A    
C26   C27   A    
C32   H5    S    
C61   H19   S    
C79   C99   S    
C36   C37   A    
C22   C29   A    
C18   C19   A    
C18   H43   S    
C16   O16   A    
C28   O19   A    
C21   C91   S    
C91   O24   A    
C13   N15   A    
C48   N10   A    
C47   N4    A    
C92   O2    A    
C49   C54   A    
Cr3   O20   S    
C66   H22   S    
C38   C93   S    
Cr4   O11   S    
C73   C74   A    
C3    C12   S    
Cr3   O21   S    
C99   N9    T    
C8    H23   S    
C66   C72   A    
C40   O20   A    
C63   C69   A    
C34   H24   S    
C8    C9    A    
C36   H7    S    
C70   C71   T    
C93   O3    A    
C14   N14   A    
Cr2   O19   S    
C17   N5    S    
C43   C48   S    
C76   C88   A    
C1    C22   S    
Cr2   O14   S    
C94   O6    A    
C72   C94   S    
N4    N10   A    
C59   C60   A    
C96   O10   A    
C61   C62   A    
C67   C78   A    
C52   O17   A    
Cr6   O10   S    
C28   C73   S    
C88   H37   S    
C44   C46   A    
C51   H15   S    
C15   H34   S    
C77   C79   A    
C78   C89   A    
C15   C20   A    
C77   C87   S    
Cr3   O16   S    
C74   C75   A    
C12   C88   A    
Cr1   O1    S    
C57   C62   A    
C35   C38   A    
C24   C25   A    
C45   C56   A    
C55   C95   S    
C75   H32   S    
C28   O18   A    
C6    C11   A    
C91   O25   A    
C86   C87   T    
C68   C69   A    
C81   H27   S    
H41   N7    S    
C31   N17   A    
C60   C71   S    
C25   C26   A    
C85   C86   S    
Cr4   O5    S    
C17   C21   A    
C80   H28   S    
C30   C37   S    
C60   C61   A    
C50   H9    S    
C35   C36   A    
C2    C89   S    
Cr1   O17   S    
C9    C14   S    
C84   H30   S    
C29   H46   S    
H40   N5    S    
C42   H10   S    
C95   O9    A    
Cr5   O8    S    
C95   O8    A    
C23   C34   A    
C13   N1    A    
Cr1   O18   S    
C34   C64   A    
Cr3   O22   S    
C64   C76   A    
C52   O21   A    
C32   C37   A    
C84   C85   A    
C14   N13   A    
C27   H4    S    
C75   C77   A    
C56   H1    S    
C83   H31   S    
C24   H45   S    
C47   C54   S    
C47   N12   A    
C30   N3    A    
C98   N8    T    
C39   C46   A    
C43   C44   A    
N14   N15   A    
C22   C24   A    
C83   C84   A    
Cr1   O22   S    
C42   C43   A    
Cr6   O11   S    
C52   C57   S    
C67   H36   S    
C68   H21   S    
C39   C40   S    
C31   N2    A    
C35   H6    S    
C40   O12   A    
C9    C10   A    
C93   O23   A    
C15   C17   A    
C83   C90   A    
N16   N17   A    
C65   H17   S    
Cr6   O2    S    
C13   C20   S    
N1    N13   A    
C10   C97   S    
C50   C55   A    
C41   H8    S    
Cr2   O22   S    
C33   H47   S    
C78   H35   S    
C62   H20   S    
C63   H18   S    
C1    O13   A    
C90   C96   S    
C6    C7    A    
C76   H33   S    
C65   C72   A    
C4    C64   S    
C33   C38   A    
C82   C90   A    
Cr3   O15   S    
C32   C33   A    
C19   C20   A    
C2    C3    T    
C58   C59   A    
C30   N16   A    
C53   H16   S    
C39   C41   A    
C97   N6    T    
C57   C58   A    
Cr5   O11   S    
C46   N7    S    
C74   H29   S    
Cr4   O6    S    
C19   H44   S    
Cr5   O26   S    
C51   C55   A    
H39   N5    S    
C4    O14   A    
C69   C70   S    
C4    O15   A    
C5    C92   S    
C10   C11   A    
C96   O5    A    
C6    C16   S    
C79   C80   A    
C16   O1    A    
N2    N3    A    
C26   C31   S    
C44   H11   S    
C49   C50   A    
Cr1   O4    S    
Cr5   O25   S    
Cr4   O23   S    
Cr4   O24   S    
C51   C53   A    
C82   H26   S    
C81   C85   A    
Cr2   O13   S    
C45   H2    S    
C25   H3    S    
C94   O7    A    
C11   H12   S    
