data_mof_unit_38418.cif
_audit_creation_date              2012-10-26T19:40:05-0400
_audit_creation_method            fapswitch 2.2
_symmetry_space_group_name_H-M    P1
_symmetry_Int_Tables_number       1
_space_group_crystal_system       triclinic
_cell_length_a                    14.958863
_cell_length_b                    8.670508
_cell_length_c                    7.451412
_cell_angle_alpha                 102.857554
_cell_angle_beta                  93.969927
_cell_angle_gamma                 92.332633
_cell_volume                      938.396335708

loop_
_atom_site_label
_atom_site_type_symbol
_atom_type_description
_atom_site_fract_x
_atom_site_fract_y
_atom_site_fract_z
_atom_type_partial_charge
C1    C     C_R   0.497314 0.199798 0.453350 0.542948
C2    C     C_R   0.181641 0.358828 0.438644 -0.137059
C3    C     C_R   0.766912 0.500478 0.491523 0.001221
C4    C     C_R   0.233088 0.499523 0.508477 0.001228
C5    C     C_R   0.806831 0.358995 0.423416 -0.128776
C6    C     C_R   0.193169 0.641014 0.576560 -0.128773
C7    C     C_R   0.900563 0.355459 0.427028 0.032132
C8    C     C_R   0.099436 0.644544 0.572949 0.032136
C9    C     C_R   0.953039 0.499333 0.497349 0.040305
C10   C     C_R   0.046960 0.500667 0.502633 0.040303
C11   C     C_R   0.911447 0.642125 0.563214 -0.000198
C12   C     C_R   0.502686 0.800202 0.546650 0.542947
C13   C     C_R   0.088553 0.357870 0.436777 -0.000197
C14   C     C_R   0.943213 0.212602 0.363998 -0.000415
C15   C     C_R   0.056786 0.787398 0.635977 -0.000416
C16   C     C_3   0.890791 0.055884 0.292162 -0.405744
C17   C     C_3   0.109206 0.944117 0.707807 -0.405752
C18   C     C_R   0.036957 0.216018 0.369154 -0.115365
C19   C     C_R   0.963042 0.783976 0.630831 -0.115368
C20   C     C_2   0.496025 0.031894 0.427063 -0.161245
C21   C     C_2   0.503974 0.968106 0.572937 -0.161245
C22   C     C_R   0.329151 0.499725 0.502763 0.543910
C23   C     C_R   0.670849 0.500275 0.497237 0.543909
C24   C     C_R   0.818359 0.641163 0.561364 -0.137063
Cu1   Cu    Cu3+1 0.510010 0.517380 0.684380 0.956078
Cu2   Cu    Cu3+1 0.489990 0.482620 0.315620 0.956078
H1    H     H_    0.785571 0.749617 0.613788 0.099929
H2    H     H_    0.569898 0.622263 0.051215 0.240179
H3    H     H_    0.850206 0.027813 0.401276 0.126395
H4    H     H_    0.845883 0.061549 0.169038 0.133189
H5    H     H_    0.935531 0.957046 0.250930 0.137594
H6    H     H_    0.154119 0.938458 0.830921 0.133189
H7    H     H_    0.149784 0.972194 0.598690 0.126393
H8    H     H_    0.064465 0.042944 0.749047 0.137597
H9    H     H_    0.214429 0.250362 0.386239 0.099922
H10   H     H_    0.763954 0.252433 0.371688 0.109921
H11   H     H_    0.236046 0.747584 0.628271 0.109915
H12   H     H_    0.070096 0.107319 0.320339 0.109897
H13   H     H_    0.929903 0.892674 0.679650 0.109898
H14   H     H_    0.488527 0.960441 0.286451 0.134765
H15   H     H_    0.511473 0.039559 0.713549 0.134765
H16   H     H_    0.430102 0.377737 0.948785 0.240179
N1    N     N_2   0.474890 0.456420 0.038520 -0.255259
N2    N     N_2   0.525110 0.543580 0.961480 -0.255259
O1    O     O_R   0.506510 0.286130 0.619770 -0.505631
O2    O     O_R   0.493490 0.713870 0.380230 -0.505631
O3    O     O_R   0.489600 0.256770 0.308360 -0.501012
O4    O     O_R   0.510400 0.743230 0.691640 -0.501012
O5    O     O_R   0.378710 0.514640 0.655720 -0.503043
O6    O     O_R   0.621290 0.485360 0.344280 -0.503043
O7    O     O_R   0.361800 0.485290 0.344300 -0.494706
O8    O     O_R   0.638200 0.514710 0.655700 -0.494707

loop_
_geom_bond_atom_site_label_1
_geom_bond_atom_site_label_2
_ccdc_geom_bond_type
C2    H9    S    
C2    C4    A    
N1    N2    D    
C7    C14   A    
C13   C18   A    
C4    C22   S    
C9    C10   A    
C14   C18   A    
C3    C23   S    
C24   H1    S    
C12   O4    A    
C1    O1    A    
C7    C9    A    
C23   O8    A    
C6    H11   S    
Cu2   O7    S    
C16   H5    S    
C15   C19   A    
C9    C11   A    
Cu1   O4    S    
C11   C19   A    
C3    C24   A    
C17   H7    S    
Cu2   O3    S    
C22   O5    A    
C21   H15   S    
C19   H13   S    
Cu1   N2    S    
C12   O2    A    
Cu2   N1    S    
C8    C15   A    
Cu1   O5    S    
Cu2   O6    S    
C18   H12   S    
C20   H14   S    
C14   C16   S    
Cu1   O8    S    
C4    C6    A    
C17   H8    S    
Cu2   O2    S    
C16   H4    S    
C5    H10   S    
Cu1   O1    S    
C11   C24   A    
C20   C21   D    
C16   H3    S    
C15   C17   S    
H16   N1    S    
C17   H6    S    
C5    C7    A    
C2    C13   A    
C1    O3    A    
C1    C20   S    
C6    C8    A    
Cu1   Cu2   S    
C12   C21   S    
H2    N2    S    
C8    C10   A    
C23   O6    A    
C22   O7    A    
C3    C5    A    
C10   C13   A    
