data_mof_unit_34722.cif
_audit_creation_date              2012-12-11T15:14:50-0500
_audit_creation_method            fapswitch 2.2
_symmetry_space_group_name_H-M    P1
_symmetry_Int_Tables_number       1
_space_group_crystal_system       triclinic
_cell_length_a                    22.284111
_cell_length_b                    7.234554
_cell_length_c                    19.238751
_cell_angle_alpha                 90.000023
_cell_angle_beta                  99.078845
_cell_angle_gamma                 89.999462
_cell_volume                      3062.7306089

loop_
_atom_site_label
_atom_site_type_symbol
_atom_type_description
_atom_site_fract_x
_atom_site_fract_y
_atom_site_fract_z
_atom_type_partial_charge
O1    O     O_R   0.448470 0.506130 0.415700 -0.532570
O2    O     O_R   0.551530 0.006130 0.584300 -0.532570
O3    O     O_R   0.436320 0.174490 0.555800 -0.534639
O4    O     O_R   0.563680 0.674490 0.444200 -0.534639
C1    C     C_R   0.421183 0.344377 0.575181 0.705223
C2    C     C_R   0.578817 0.844375 0.424819 0.705222
O5    O     O_R   0.441350 0.176340 0.414480 -0.534074
O6    O     O_R   0.558650 0.676340 0.585520 -0.534073
O7    O     O_R   0.556600 0.007100 0.441970 -0.532226
O8    O     O_R   0.443400 0.507100 0.558030 -0.532226
C3    C     C_R   0.427213 0.344700 0.389058 0.673290
C4    C     C_R   0.572787 0.844699 0.610942 0.673289
O9    O     O_3   0.537810 0.339550 0.509190 -0.372175
O10   O     O_3   0.462190 0.839550 0.490810 -0.372174
V1    V     V_3+5 0.492990 0.064280 0.498300 1.426106
V2    V     V_3+5 0.507010 0.564280 0.501700 1.426108
C5    C     C_R   0.866975 0.980893 0.695253 -0.162663
C6    C     C_R   0.133022 0.480849 0.304748 -0.162663
H1    H     H_    0.954254 0.008309 0.759568 0.106289
H2    H     H_    0.045742 0.508264 0.240433 0.106288
H3    H     H_    0.784482 0.978034 0.579913 0.121914
H4    H     H_    0.215514 0.477971 0.420089 0.121912
H5    H     H_    0.885251 0.009627 0.647404 0.111050
H6    H     H_    0.114745 0.509563 0.352599 0.111049
C7    C     C_R   0.884700 0.942402 0.821791 -0.033194
C8    C     C_R   0.115300 0.442396 0.178209 -0.033192
C9    C     C_R   0.590026 0.814752 0.739881 -0.160279
C10   C     C_R   0.409976 0.314783 0.260118 -0.160279
C11   C     C_R   0.626798 0.811966 0.805331 -0.123646
C12   C     C_R   0.373204 0.312008 0.194668 -0.123645
C13   C     C_R   0.689103 0.843370 0.811343 -0.157578
C14   C     C_R   0.310899 0.343401 0.188656 -0.157578
C15   C     C_R   0.716625 0.879188 0.751303 0.077559
C16   C     C_R   0.283376 0.379194 0.248697 0.077559
C17   C     C_R   0.678300 0.883682 0.684002 0.069028
C18   C     C_R   0.321700 0.383675 0.315998 0.069027
C19   C     C_R   0.780787 0.910380 0.755830 0.072810
C20   C     C_R   0.219213 0.410376 0.244170 0.072810
C21   C     C_R   0.804646 0.947038 0.692922 0.140146
C22   C     C_R   0.195352 0.447007 0.307079 0.140146
C23   C     C_R   0.766295 0.950533 0.627928 -0.202229
C24   C     C_R   0.233702 0.450489 0.372073 -0.202228
C25   C     C_R   0.704269 0.919047 0.623413 -0.192542
C26   C     C_R   0.295729 0.419016 0.376588 -0.192540
C27   C     C_R   0.822357 0.907372 0.820313 -0.214712
C28   C     C_R   0.177644 0.407381 0.179686 -0.214711
C29   C     C_R   0.906455 0.979768 0.759074 -0.166333
C30   C     C_R   0.093543 0.479736 0.240927 -0.166333
C31   C     C_R   0.614712 0.850804 0.678844 -0.077678
C32   C     C_R   0.385288 0.350810 0.321156 -0.077676
H7    H     H_    0.807855 0.880657 0.870205 0.093333
H8    H     H_    0.192146 0.380685 0.129794 0.093331
H9    H     H_    0.541808 0.788218 0.736767 0.104967
H10   H     H_    0.458195 0.288260 0.263232 0.104965
H11   H     H_    0.714431 0.838465 0.863822 0.106737
H12   H     H_    0.285571 0.338507 0.136177 0.106737
H13   H     H_    0.606817 0.784281 0.852042 0.115902
H14   H     H_    0.393187 0.284341 0.147956 0.115901
H15   H     H_    0.676687 0.923014 0.571785 0.110490
H16   H     H_    0.323310 0.422972 0.428216 0.110485
C33   C     C_3   0.765271 0.757537 0.294504 0.189071
C34   C     C_3   0.234714 0.257598 0.705470 0.189062
C35   C     C_3   0.805334 0.929302 0.288604 -0.147879
C36   C     C_3   0.194671 0.429397 0.711398 -0.147894
H17   H     H_    0.850752 0.955541 0.320005 0.110241
H18   H     H_    0.149256 0.455712 0.679999 0.110245
H19   H     H_    0.746363 0.182613 0.317893 0.128620
H20   H     H_    0.253671 0.682700 0.682163 0.128604
C37   C     C_1   0.875234 0.940310 0.121168 -0.185630
C38   C     C_1   0.124766 0.440304 0.878832 -0.185630
C39   C     C_1   0.624890 0.854068 0.379273 -0.181620
C40   C     C_1   0.375110 0.354073 0.620726 -0.181621
C41   C     C_3   0.752022 0.739115 0.213500 -0.140715
C42   C     C_3   0.247957 0.239074 0.786472 -0.140705
C43   C     C_3   0.791300 0.912512 0.207704 0.142976
C44   C     C_3   0.208700 0.412503 0.792296 0.142975
C45   C     C_3   0.695358 0.864872 0.212235 -0.168945
C46   C     C_3   0.304637 0.364777 0.787762 -0.168945
C47   C     C_3   0.709171 0.881282 0.293106 0.117429
C48   C     C_3   0.290828 0.381291 0.706893 0.117440
C49   C     C_3   0.735185 0.038144 0.205662 -0.128828
C50   C     C_3   0.264830 0.538080 0.794363 -0.128845
C51   C     C_3   0.748455 0.054121 0.287093 -0.172686
C52   C     C_3   0.251565 0.554162 0.712935 -0.172672
C53   C     C_1   0.837277 0.929020 0.159986 -0.057818
C54   C     C_1   0.162722 0.429011 0.840014 -0.057816
C55   C     C_1   0.662998 0.865268 0.340659 -0.068285
C56   C     C_1   0.337002 0.365277 0.659340 -0.068284
H21   H     H_    0.723010 0.155027 0.168743 0.110673
H22   H     H_    0.277018 0.654911 0.831305 0.110673
H23   H     H_    0.649886 0.838714 0.180968 0.116332
H24   H     H_    0.350106 0.338541 0.819027 0.116331
H25   H     H_    0.753648 0.609070 0.183213 0.108287
H26   H     H_    0.246316 0.108996 0.816736 0.108292
O11   O     O_R   0.056650 0.288730 0.942060 -0.532777
O12   O     O_R   0.943350 0.788730 0.057940 -0.532777
O13   O     O_R   0.058660 0.616870 0.085540 -0.535660
O14   O     O_R   0.941340 0.116870 0.914460 -0.535660
C57   C     C_R   0.072780 0.448765 0.111041 0.681378
C58   C     C_R   0.927220 0.948766 0.888959 0.681377
O15   O     O_R   0.063700 0.618520 0.944220 -0.535110
O16   O     O_R   0.936300 0.118520 0.055780 -0.535111
O17   O     O_R   0.948460 0.787610 0.915680 -0.533020
O18   O     O_R   0.051540 0.287610 0.084320 -0.533019
C59   C     C_R   0.078880 0.450027 0.924645 0.713078
C60   C     C_R   0.921120 0.950028 0.075355 0.713078
O19   O     O_3   0.962230 0.453430 0.990860 -0.373321
O20   O     O_3   0.037770 0.953430 0.009140 -0.373321
V3    V     V_3+5 0.007010 0.728750 0.001700 1.421947
V4    V     V_3+5 0.992990 0.228750 0.998300 1.421948
C61   C     C_3   0.781666 0.599010 0.346364 -0.373969
C62   C     C_3   0.837251 0.493203 0.330778 -0.772386
H27   H     H_    0.828051 0.430652 0.277431 0.229149
H28   H     H_    0.877045 0.587032 0.334038 0.227362
H29   H     H_    0.848281 0.380668 0.369951 0.216841
H30   H     H_    0.791053 0.655874 0.400625 0.180913
H31   H     H_    0.742313 0.503663 0.343014 0.176053
C63   C     C_3   0.218304 0.099138 0.653581 -0.373951
C64   C     C_3   0.162718 0.993327 0.669158 -0.772388
H32   H     H_    0.171923 0.930690 0.722491 0.229135
H33   H     H_    0.122930 0.087175 0.665929 0.227366
H34   H     H_    0.151674 0.880853 0.629961 0.216847
H35   H     H_    0.208913 0.156074 0.599331 0.180907
H36   H     H_    0.257650 0.003769 0.656906 0.176056

loop_
_geom_bond_atom_site_label_1
_geom_bond_atom_site_label_2
_ccdc_geom_bond_type
C47   C51   S    
C35   H17   S    
H19   C51   S    
O14   V4    S    
C7    C27   A    
C9    C11   A    
C23   C25   A    
C42   H26   S    
C61   C62   S    
O1    C3    A    
C41   H25   S    
C48   C52   S    
O2    C4    A    
C2    O7    A    
C47   C55   S    
C4    C31   S    
O3    V1    S    
C21   C23   A    
O5    C3    A    
C5    H5    S    
C42   C44   S    
C6    H6    S    
C34   C48   S    
C26   H16   S    
C1    C40   S    
C46   C48   S    
C27   H7    S    
O15   V3    S    
C28   H8    S    
O20   V3    S    
C5    C21   A    
C33   C35   S    
C6    C22   A    
C63   C64   S    
C36   C52   S    
C34   C36   S    
O11   C59   A    
C49   C51   S    
C10   C32   A    
C43   C53   S    
C17   C31   A    
C13   C15   A    
C61   H30   S    
C12   C14   A    
C17   C25   A    
C7    C29   A    
C8    C30   A    
C8    C57   S    
C49   H21   S    
C64   H33   S    
C57   O18   A    
O6    V2    S    
C11   C13   A    
C41   C43   S    
C24   C26   A    
C62   H28   S    
C62   H27   S    
C40   C56   T    
C45   C47   S    
O15   C59   A    
C2    C39   S    
C34   C63   S    
H20   C52   S    
O4    C2    A    
O13   C57   A    
C44   C50   S    
C10   H10   S    
C43   C49   S    
C46   H24   S    
C38   C59   S    
C58   O17   A    
C15   C19   A    
C35   C51   S    
C36   H18   S    
O4    V2    S    
C37   C53   T    
O13   V3    S    
C46   C50   S    
C7    C58   S    
C45   C49   S    
O6    C4    A    
C36   C44   S    
O1    V2    S    
C63   H36   S    
O2    V1    S    
H2    C30   S    
H3    C23   S    
C11   H13   S    
C50   C52   S    
O19   V4    S    
C39   C55   T    
O16   V4    S    
C19   C27   A    
C33   C61   S    
C44   C54   S    
C18   C32   A    
O18   V4    S    
C64   H34   S    
O12   C60   A    
C45   H23   S    
C37   C60   S    
C16   C20   A    
C5    C29   A    
C22   C24   A    
O3    C1    A    
O11   V4    S    
C6    C30   A    
C64   H32   S    
C9    H9    S    
O9    V2    S    
C25   H15   S    
O12   V3    S    
O14   C58   A    
C50   H22   S    
C61   H31   S    
O17   V3    S    
C33   C41   S    
C10   C12   A    
O7    V1    S    
C1    O8    A    
C19   C21   A    
C3    C32   S    
O8    V2    S    
C20   C22   A    
H4    C24   S    
C35   C43   S    
C33   C47   S    
C12   H14   S    
O5    V1    S    
C15   C17   A    
O16   C60   A    
C16   C18   A    
C63   H35   S    
C20   C28   A    
C18   C26   A    
C8    C28   A    
C48   C56   S    
C42   C46   S    
H1    C29   S    
C41   C45   S    
O10   V1    S    
C34   C42   S    
C13   H11   S    
C14   H12   S    
C62   H29   S    
C9    C31   A    
C14   C16   A    
C38   C54   T    
