data_mof_unit_34914.cif
_audit_creation_date              2012-12-10T20:34:12-0500
_audit_creation_method            fapswitch 2.2
_symmetry_space_group_name_H-M    P1
_symmetry_Int_Tables_number       1
_space_group_crystal_system       triclinic
_cell_length_a                    10.01085
_cell_length_b                    10.685435
_cell_length_c                    13.635863
_cell_angle_alpha                 91.898658
_cell_angle_beta                  83.699743
_cell_angle_gamma                 85.834481
_cell_volume                      1444.74937203

loop_
_atom_site_label
_atom_site_type_symbol
_atom_type_description
_atom_site_fract_x
_atom_site_fract_y
_atom_site_fract_z
_atom_type_partial_charge
C1    C     C_R   0.495658 0.739637 0.499370 0.878660
C2    C     C_3   0.277030 0.968246 0.612660 0.395063
C3    C     C_R   0.914886 0.547754 0.578459 0.120941
C4    C     C_R   0.476464 0.499787 0.685022 0.883316
C5    C     C_R   0.943635 0.435494 0.427886 0.198850
C6    C     C_R   0.087433 0.441110 0.424557 0.201568
C7    C     C_R   0.055132 0.538378 0.582444 0.055798
C8    C     C_3   0.047832 0.658854 0.642814 -0.052784
C9    C     C_3   0.896267 0.676232 0.628664 0.343862
C10   C     C_R   0.504675 0.260439 0.499108 0.888798
C11   C     C_R   0.523455 0.500148 0.315014 0.891468
C12   C     C_1   0.458509 0.503027 0.788342 -0.236414
C13   C     C_1   0.539271 0.507388 0.212244 -0.215302
C14   C     C_2   0.550198 0.524765 0.022001 0.141749
C15   C     C_2   0.435164 0.511553 0.980753 0.222768
C16   C     C_1   0.443960 0.506913 0.875884 0.004802
C17   C     C_1   0.548506 0.515497 0.125340 -0.010616
C18   C     C_3   0.187578 0.502140 0.990497 -0.796325
C19   C     C_3   0.177480 0.385127 0.335084 -0.787478
C20   C     C_3   0.080322 0.636320 0.748720 -0.872109
C21   C     C_3   0.795701 0.682754 0.722958 -0.888960
C22   C     C_3   0.920725 0.774615 0.460721 -0.801025
C23   C     C_R   0.424301 0.946505 0.573292 0.044145
C24   C     C_3   0.682851 0.546151 0.963143 -0.926382
C25   C     C_3   0.676593 0.105284 0.341722 -0.920692
C26   C     C_3   0.298278 0.163292 0.731820 -0.881407
C27   C     C_3   0.338631 0.838912 0.755423 -0.790886
C28   C     C_3   0.181297 0.947672 0.533482 -0.962372
C29   C     C_3   0.888337 0.355413 0.351882 -0.844683
C30   C     C_R   0.488797 0.872047 0.494153 -0.152301
C31   C     C_R   0.577643 0.923359 0.423155 -0.207366
C32   C     C_R   0.589587 0.052166 0.424544 0.178917
C33   C     C_R   0.515164 0.127677 0.501719 -0.106276
C34   C     C_R   0.440967 0.072930 0.578996 -0.014819
C35   C     C_3   0.300337 0.108029 0.626355 -0.074141
H1    H     H_    0.110497 0.728302 0.607076 0.205159
H2    H     H_    0.209078 0.462031 0.287347 0.240048
H3    H     H_    0.031266 0.554263 0.780069 0.243059
H4    H     H_    0.190060 0.618206 0.749728 0.274681
H5    H     H_    0.047454 0.721204 0.796818 0.243138
H6    H     H_    0.690909 0.697464 0.704018 0.245737
H7    H     H_    0.803786 0.594598 0.763332 0.244303
H8    H     H_    0.813853 0.763310 0.771975 0.230451
H9    H     H_    0.774394 0.828554 0.578828 0.257682
H10   H     H_    0.919256 0.871220 0.433103 0.244373
H11   H     H_    0.857044 0.719381 0.416776 0.266756
H12   H     H_    0.635255 0.862931 0.365641 0.156699
H13   H     H_    0.025963 0.732693 0.449053 0.228379
H14   H     H_    0.764205 0.553823 0.011836 0.247985
H15   H     H_    0.713417 0.466689 0.908857 0.244947
H16   H     H_    0.672273 0.635140 0.924009 0.246230
H17   H     H_    0.773499 0.124365 0.368717 0.247103
H18   H     H_    0.698842 0.037465 0.277452 0.238844
H19   H     H_    0.626234 0.191841 0.315375 0.231410
H20   H     H_    0.195202 0.164051 0.771301 0.237648
H21   H     H_    0.370787 0.111067 0.774193 0.253378
H22   H     H_    0.326071 0.261838 0.728475 0.253109
H23   H     H_    0.239417 0.170225 0.581615 0.194175
H24   H     H_    0.154491 0.946450 0.747599 0.232099
H25   H     H_    0.289662 0.799276 0.823270 0.232727
H26   H     H_    0.413854 0.902545 0.777087 0.234101
H27   H     H_    0.390912 0.760481 0.707576 0.237979
H28   H     H_    0.198058 0.012611 0.472042 0.230163
H29   H     H_    0.199470 0.852014 0.499408 0.262700
H30   H     H_    0.074859 0.963805 0.566713 0.256396
H31   H     H_    0.783948 0.338327 0.373298 0.295906
H32   H     H_    0.898198 0.399315 0.279019 0.233778
H33   H     H_    0.941091 0.260145 0.346638 0.202626
H34   H     H_    0.296804 0.535156 0.109246 0.224165
H35   H     H_    0.100152 0.483752 0.044143 0.236896
H36   H     H_    0.194886 0.430399 0.928884 0.256660
H37   H     H_    0.170027 0.597477 0.962003 0.240422
H38   H     H_    0.263235 0.326252 0.357464 0.265391
H39   H     H_    0.130165 0.322124 0.285838 0.202809
N1    N     N_R   0.857130 0.500860 0.500650 -0.130001
N2    N     N_R   0.142770 0.500820 0.500650 -0.135585
N3    N     N_2   0.309528 0.494275 0.038959 -0.310105
N4    N     N_2   0.867897 0.780301 0.564434 -0.299544
N5    N     N_2   0.237579 0.905236 0.703794 -0.278308
O1    O     O_R   0.385310 0.683210 0.499990 -0.615324
O2    O     O_R   0.614650 0.683240 0.500000 -0.616442
O3    O     O_R   0.368820 0.499950 0.640340 -0.607050
O4    O     O_R   0.598170 0.499990 0.640350 -0.601155
O5    O     O_R   0.385350 0.316760 0.500000 -0.635281
O6    O     O_R   0.614690 0.316790 0.500010 -0.618874
O7    O     O_R   0.401830 0.500010 0.359650 -0.619536
O8    O     O_R   0.631180 0.500050 0.359660 -0.619760
Zn1   Zn    Zn3+2 0.346870 0.499980 0.499990 0.925607
Zn2   Zn    Zn3+2 0.653130 0.500020 0.500010 0.932879

loop_
_geom_bond_atom_site_label_1
_geom_bond_atom_site_label_2
_ccdc_geom_bond_type
C2    C35   S    
C18   H35   S    
C22   H13   S    
C10   O6    A    
H34   N3    S    
C26   H20   S    
C7    C8    S    
C15   N3    S    
C6    C19   S    
C8    C20   S    
C35   H23   S    
C25   H18   S    
C3    C7    A    
C27   H25   S    
C30   C31   A    
C20   H5    S    
O7    Zn1   S    
C11   O7    A    
C1    O2    A    
C15   C16   S    
C18   H36   S    
C34   C35   S    
C8    H1    S    
C14   C24   S    
C2    N5    S    
C19   H2    S    
C29   H32   S    
C12   C16   T    
C11   O8    A    
C8    C9    S    
C4    C12   S    
C3    N1    A    
N2    Zn1   S    
O2    Zn2   S    
C25   C32   S    
C31   H12   S    
C24   H15   S    
C14   C17   S    
C5    C29   S    
C18   H37   S    
O4    Zn2   S    
C23   C30   A    
C19   H38   S    
C25   H19   S    
C22   N4    S    
H24   N5    S    
C20   H4    S    
O6    Zn2   S    
C21   H7    S    
C27   H26   S    
C5    N1    A    
C3    C9    S    
C27   H27   S    
C29   H33   S    
C20   H3    S    
C31   C32   A    
C23   C34   A    
C33   C34   A    
C21   H6    S    
C28   H29   S    
C22   H11   S    
O8    Zn2   S    
C24   H14   S    
C19   H39   S    
O5    Zn1   S    
C26   H21   S    
C6    N2    A    
C7    N2    A    
C27   N5    S    
C13   C17   T    
C32   C33   A    
H9    N4    S    
C28   H30   S    
C25   H17   S    
O1    Zn1   S    
C11   C13   S    
C9    C21   S    
C5    C6    A    
C4    O4    A    
C24   H16   S    
C18   N3    S    
O3    Zn1   S    
C10   O5    A    
C1    C30   S    
C10   C33   S    
C9    N4    S    
C26   H22   S    
N1    Zn2   S    
C29   H31   S    
C28   H28   S    
C26   C35   S    
C22   H10   S    
C4    O3    A    
C2    C23   S    
C1    O1    A    
C14   C15   D    
C2    C28   S    
C21   H8    S    
