data_mof_unit_41132.cif
_audit_creation_date              2012-12-10T19:03:03-0500
_audit_creation_method            fapswitch 2.2
_symmetry_space_group_name_H-M    P1
_symmetry_Int_Tables_number       1
_space_group_crystal_system       triclinic
_cell_length_a                    10.737918
_cell_length_b                    10.836844
_cell_length_c                    9.551687
_cell_angle_alpha                 90.56847
_cell_angle_beta                  90.122067
_cell_angle_gamma                 90.383405
_cell_volume                      1111.40114363

loop_
_atom_site_label
_atom_site_type_symbol
_atom_type_description
_atom_site_fract_x
_atom_site_fract_y
_atom_site_fract_z
_atom_type_partial_charge
C1    C     C_R   0.496860 0.262438 0.499295 0.793464
C2    C     C_3   0.878306 0.497795 0.500797 0.163471
C3    C     C_3   0.929150 0.620413 0.440487 -0.382603
C4    C     C_3   0.927166 0.388649 0.410533 -0.376454
C5    C     C_R   0.471846 0.065523 0.622857 0.123322
C6    C     C_R   0.482995 0.129541 0.497648 -0.102794
C7    C     C_R   0.476282 0.063145 0.370700 -0.226793
C8    C     C_R   0.477098 0.934417 0.371595 -0.223790
C9    C     C_R   0.484742 0.871103 0.499421 -0.103763
C10   C     C_R   0.472655 0.938471 0.623992 0.127434
C11   C     C_3   0.548439 0.936580 0.755235 -0.492485
C12   C     C_R   0.259867 0.498450 0.500047 0.750660
C13   C     C_3   0.546906 0.076379 0.753917 -0.455363
C14   C     C_R   0.604928 0.531570 0.074490 0.263455
C15   C     C_R   0.400755 0.456206 0.073580 -0.092248
C16   C     C_R   0.400717 0.456261 0.924879 -0.090047
C17   C     C_R   0.605202 0.531116 0.927114 0.260201
C18   C     C_3   0.672524 0.651644 0.924175 -0.521859
C19   C     C_3   0.672438 0.651721 0.082775 -0.501781
C20   C     C_R   0.497683 0.737824 0.500329 0.798157
C21   C     C_R   0.740210 0.498862 0.500245 0.753376
C22   C     C_3   0.071737 0.482808 0.651963 -0.378174
C23   C     C_3   0.929194 0.483651 0.652048 -0.371673
C24   C     C_3   0.072858 0.620336 0.440529 -0.377895
C25   C     C_3   0.071008 0.388669 0.410071 -0.383816
C26   C     C_3   0.121945 0.497513 0.500554 0.168515
Cu1   Cu    Cu3+1 0.499990 0.499980 0.640670 0.928454
Cu2   Cu    Cu3+1 0.500010 0.500020 0.359330 0.927486
H1    H     H_    0.892607 0.396042 0.301003 0.169210
H2    H     H_    0.107189 0.633008 0.331695 0.166856
H3    H     H_    0.894979 0.632839 0.331696 0.160119
H4    H     H_    0.477186 0.109926 0.271020 0.164731
H5    H     H_    0.495096 0.897896 0.844411 0.194755
H6    H     H_    0.643006 0.898022 0.738290 0.193752
H7    H     H_    0.492728 0.117398 0.841633 0.195529
H8    H     H_    0.640308 0.118456 0.736551 0.194885
H9    H     H_    0.319655 0.422137 0.128180 0.135095
H10   H     H_    0.105066 0.394646 0.697259 0.156236
H11   H     H_    0.319590 0.422214 0.869179 0.135614
H12   H     H_    0.767274 0.644240 0.879452 0.182893
H13   H     H_    0.614442 0.724939 0.879391 0.215120
H14   H     H_    0.767069 0.642053 0.128150 0.183657
H15   H     H_    0.615392 0.726738 0.129438 0.211807
H16   H     H_    0.893523 0.396731 0.699071 0.162142
H17   H     H_    0.897471 0.561841 0.718496 0.160712
H18   H     H_    0.895014 0.699896 0.504017 0.147977
H19   H     H_    0.104745 0.396510 0.300393 0.162745
H20   H     H_    0.105486 0.299535 0.451579 0.148205
H21   H     H_    0.891900 0.299674 0.452730 0.147872
N1    N     N_R   0.500800 0.500930 0.147930 -0.183735
N2    N     N_R   0.500800 0.500890 0.852020 -0.182261
O1    O     O_R   0.500000 0.319640 0.618810 -0.578615
O2    O     O_R   0.500010 0.319680 0.381230 -0.584109
O3    O     O_R   0.317690 0.499960 0.618790 -0.595051
O4    O     O_R   0.317700 0.500000 0.381210 -0.593134
O5    O     O_R   0.499990 0.680320 0.618770 -0.573597
O6    O     O_R   0.500000 0.680360 0.381190 -0.583072
O7    O     O_R   0.682300 0.500000 0.618790 -0.587552
O8    O     O_R   0.682310 0.500040 0.381210 -0.585354
H22   H     H_    0.106712 0.559446 0.720287 0.169131
H23   H     H_    0.478158 0.885371 0.272278 0.160858
H24   H     H_    0.108284 0.699560 0.504491 0.150125

loop_
_geom_bond_atom_site_label_1
_geom_bond_atom_site_label_2
_ccdc_geom_bond_type
C2    C4    S    
Cu2   O2    S    
C16   N2    A    
C21   O8    A    
C6    C7    A    
C23   H17   S    
C9    C10   A    
C8    H23   S    
C9    C20   S    
C5    C13   S    
C4    H1    S    
C14   C17   A    
C19   H14   S    
C11   H5    S    
C4    H21   S    
C20   O5    A    
C17   N2    A    
C2    C21   S    
C17   C18   S    
C20   O6    A    
Cu1   O3    S    
C21   O7    A    
Cu2   O6    S    
C3    H3    S    
C11   C13   S    
C25   H20   S    
C3    C24   S    
C14   N1    A    
C24   H24   S    
C15   N1    A    
C5    C10   A    
Cu2   O4    S    
C19   H15   S    
C13   H7    S    
C2    C3    S    
C22   H22   S    
C5    C6    A    
C24   C26   S    
C1    O1    A    
C24   H2    S    
C18   H13   S    
C12   O4    A    
C10   C11   S    
C23   H16   S    
C16   H11   S    
C15   C16   A    
C22   H10   S    
C4    C25   S    
C7    C8    A    
Cu1   O1    S    
C13   H8    S    
C18   C19   S    
C22   C26   S    
Cu2   O8    S    
C12   C26   S    
C2    C23   S    
C18   H12   S    
Cu1   O5    S    
C15   H9    S    
C1    O2    A    
C7    H4    S    
C3    H18   S    
C25   C26   S    
C22   C23   S    
Cu2   N1    S    
C14   C19   S    
C11   H6    S    
C12   O3    A    
C25   H19   S    
C1    C6    S    
Cu1   N2    S    
C8    C9    A    
Cu1   Cu2   S    
Cu1   O7    S    
