data_mof_unit_48849.cif
_audit_creation_date              2012-12-11T14:21:12-0500
_audit_creation_method            fapswitch 2.2
_symmetry_space_group_name_H-M    P1
_symmetry_Int_Tables_number       1
_space_group_crystal_system       triclinic
_cell_length_a                    11.53341
_cell_length_b                    11.726367
_cell_length_c                    19.560309
_cell_angle_alpha                 91.563421
_cell_angle_beta                  90.871042
_cell_angle_gamma                 60.017099
_cell_volume                      2290.55089633

loop_
_atom_site_label
_atom_site_type_symbol
_atom_type_description
_atom_site_fract_x
_atom_site_fract_y
_atom_site_fract_z
_atom_type_partial_charge
C1    C     C_R   0.640952 0.116856 0.599124 0.551082
C2    C     C_1   0.642504 0.705256 0.668113 0.002138
C3    C     C_1   0.125627 0.198487 0.859213 0.003535
C4    C     C_1   0.171977 0.171303 0.727629 -0.030223
C5    C     C_1   0.149686 0.182448 0.798854 -0.030060
C6    C     C_1   0.196428 0.162084 0.667395 0.005101
C7    C     C_1   0.677976 0.191153 0.860871 0.004329
C8    C     C_1   0.659118 0.166792 0.729040 -0.031150
C9    C     C_1   0.665438 0.180623 0.800348 -0.030407
C10   C     C_1   0.653952 0.149098 0.668571 0.003670
C11   C     C_R   0.698080 0.552961 0.206296 0.008134
C12   C     C_R   0.612825 0.746891 0.598737 0.548695
C13   C     C_R   0.571581 0.591007 0.236273 -0.051638
C14   C     C_R   0.534649 0.667613 0.296397 -0.047343
C15   C     C_R   0.771680 0.598761 0.313522 -0.172677
C16   C     C_R   0.800248 0.545251 0.247453 -0.161739
C17   C     C_R   0.474919 0.568116 0.203294 -0.137402
C18   C     C_R   0.341249 0.646760 0.214554 0.370370
C19   C     C_R   0.299304 0.728500 0.271191 0.380924
C20   C     C_R   0.393822 0.737670 0.312422 -0.161122
C21   C     C_R   0.639868 0.669729 0.336096 0.014077
C22   C     C_R   0.149825 0.201288 0.193341 -0.027916
C23   C     C_R   0.242665 0.145081 0.598279 0.543968
C24   C     C_R   0.149992 0.299212 0.237225 -0.025895
C25   C     C_R   0.131096 0.294466 0.307691 0.037844
C26   C     C_R   0.179228 0.070783 0.293147 -0.119734
C27   C     C_R   0.175801 0.081580 0.221927 0.245571
C28   C     C_R   0.170846 0.400543 0.214433 -0.088359
C29   C     C_R   0.155783 0.500615 0.259946 -0.092879
C30   C     C_R   0.111095 0.507916 0.326017 -0.110036
C31   C     C_R   0.093490 0.407617 0.349126 -0.065069
C32   C     C_R   0.166312 0.172945 0.336448 -0.058786
C33   C     C_R   0.679626 0.175683 0.194264 -0.050675
C34   C     C_R   0.618066 0.081274 0.394726 0.547347
C35   C     C_R   0.768894 0.051035 0.224074 0.010274
C36   C     C_R   0.724013 0.013198 0.280430 -0.018099
C37   C     C_R   0.540098 0.235823 0.294905 0.240200
C38   C     C_R   0.559144 0.259526 0.227708 -0.158210
C39   C     C_R   0.896626 0.955755 0.197932 -0.008831
C40   C     C_R   0.942106 0.823619 0.205565 -0.045795
C41   C     C_R   0.879269 0.785725 0.251262 -0.107967
C42   C     C_R   0.777155 0.879039 0.291990 -0.084974
C43   C     C_R   0.625813 0.110291 0.322612 -0.002571
C44   C     C_R   0.080383 0.231649 0.928540 0.538430
C45   C     C_R   0.611649 0.742440 0.400925 0.525377
C46   C     C_R   0.683788 0.603078 0.929314 0.550790
C47   C     C_R   0.707974 0.206820 0.930287 0.550783
C48   C     C_R   0.085255 0.236786 0.125084 0.527699
C49   C     C_R   0.712382 0.540490 0.131367 0.560744
C50   C     C_R   0.711429 0.211989 0.128343 0.533170
C51   C     C_R   0.238533 0.142222 0.402788 0.529632
C52   C     C_1   0.669357 0.645091 0.860074 0.001958
C53   C     C_1   0.655384 0.684421 0.728513 -0.030254
C54   C     C_1   0.662898 0.666069 0.799781 -0.030410
Cr1   Cr    Cr6+3 0.404720 0.198220 0.499960 1.027178
Cr2   Cr    Cr6+3 0.698290 0.897110 0.500380 1.023823
Cr3   Cr    Cr6+3 0.396970 0.904720 0.499610 1.013956
Cr4   Cr    Cr6+3 0.926180 0.151990 0.028120 1.026846
Cr5   Cr    Cr6+3 0.921330 0.451820 0.027470 1.029831
Cr6   Cr    Cr6+3 0.626260 0.446870 0.028710 1.018253
H1    H     H_    0.849473 0.597167 0.345232 0.120255
H2    H     H_    0.168288 0.578916 0.243726 0.217071
H3    H     H_    0.088499 0.592048 0.358994 0.128705
H4    H     H_    0.058753 0.414512 0.401074 0.121244
H5    H     H_    0.964099 0.977521 0.171406 0.218393
H6    H     H_    0.481292 0.345089 0.203575 0.137813
H7    H     H_    0.025325 0.751323 0.175946 0.201952
H8    H     H_    0.913607 0.684368 0.256605 0.116131
H9    H     H_    0.733808 0.847140 0.328969 0.141716
H10   H     H_    0.497269 0.500659 0.161866 0.197912
H11   H     H_    0.899258 0.505589 0.226702 0.140932
H12   H     H_    0.347328 0.804302 0.354359 0.186380
H13   H     H_    0.194687 0.982472 0.315174 0.192031
H14   H     H_    0.203087 0.401105 0.162896 0.164525
O1    O     O_R   0.267740 0.231960 0.575440 -0.512380
O2    O     O_R   0.685970 0.784660 0.430010 -0.530998
O3    O     O_R   0.502530 0.767000 0.423990 -0.542934
O4    O     O_R   0.288330 0.026350 0.429250 -0.515939
O5    O     O_3   0.499990 0.000020 0.499980 -0.277676
O6    O     O_R   0.821500 0.119340 0.952830 -0.500449
O7    O     O_R   0.037130 0.162530 0.957360 -0.504129
O8    O     O_R   0.056440 0.344740 0.951340 -0.500432
O9    O     O_R   0.797900 0.560360 0.957470 -0.486029
O10   O     O_R   0.596130 0.579390 0.952730 -0.508555
O11   O     O_R   0.639060 0.321160 0.958670 -0.489125
O12   O     O_R   0.527280 0.186640 0.570530 -0.498173
O13   O     O_R   0.821240 0.124200 0.104370 -0.529942
O14   O     O_R   0.036890 0.167040 0.097840 -0.466635
O15   O     O_R   0.056180 0.349610 0.102880 -0.543826
O16   O     O_R   0.797660 0.564870 0.097950 -0.492003
O17   O     O_R   0.595880 0.584250 0.104270 -0.543255
O18   O     O_R   0.638830 0.325670 0.099150 -0.539069
O19   O     O_3   0.824590 0.350230 0.028100 -0.286424
O20   O     O_R   0.728090 0.003450 0.576380 -0.499391
O21   O     O_R   0.682970 0.789190 0.570490 -0.492348
O22   O     O_R   0.499290 0.771880 0.575530 -0.504882
O23   O     O_R   0.285330 0.030870 0.569730 -0.490604
O24   O     O_R   0.270980 0.227080 0.423890 -0.493407
O25   O     O_R   0.530280 0.182120 0.430050 -0.463624
O26   O     O_R   0.731330 0.998570 0.424830 -0.509472
O27   O     O_3   0.436286 0.335281 0.332257 -0.522264
C55   C     C_3   0.484740 0.412383 0.365024 0.016316
H15   H     H_    0.504682 0.467353 0.326915 0.126422
H16   H     H_    0.579865 0.351619 0.393471 0.145471
C56   C     C_3   0.381528 0.509352 0.415648 -0.345115
H17   H     H_    0.352923 0.456452 0.451935 0.172323
H18   H     H_    0.424010 0.562497 0.444907 0.115727
H19   H     H_    0.291339 0.582629 0.388083 0.160296
F1    F     F_    0.255143 0.648697 0.166304 -0.699199
F2    F     F_    0.167458 0.797700 0.287200 -0.657083
O28   O     O_3   0.197384 0.974689 0.180794 -0.522761
C57   C     C_3   0.319500 0.926385 0.144538 0.012562
H20   H     H_    0.402415 0.849571 0.174940 0.154665
H21   H     H_    0.347002 0.002672 0.133438 0.098716
C58   C     C_3   0.310613 0.866363 0.076030 -0.320199
H22   H     H_    0.231465 0.942939 0.043813 0.157550
H23   H     H_    0.407651 0.824563 0.048763 0.127606
H24   H     H_    0.286993 0.786928 0.083459 0.220103

loop_
_geom_bond_atom_site_label_1
_geom_bond_atom_site_label_2
_ccdc_geom_bond_type
C25   C31   A    
Cr2   O21   S    
C22   C48   S    
C26   C32   A    
O27   C55   S    
Cr2   O2    S    
Cr6   O10   S    
C41   C42   A    
Cr3   O5    S    
C36   C42   A    
C19   C20   A    
C18   F1    S    
C49   O16   A    
C2    C12   S    
Cr4   O13   S    
C57   H21   S    
C53   C54   S    
Cr2   O20   S    
C56   H18   S    
C26   C27   A    
C37   C38   A    
Cr2   O5    S    
C45   O2    A    
C47   O11   A    
C14   C21   A    
C28   C29   A    
Cr4   O19   S    
Cr5   O9    S    
C44   O8    A    
C30   C31   A    
C19   F2    S    
C6    C23   S    
C15   C16   A    
C46   C52   S    
C26   H13   S    
C55   C56   S    
C18   C19   A    
Cr5   O15   S    
C35   C36   A    
C8    C9    S    
C58   H23   S    
Cr3   O22   S    
C34   O26   A    
C48   O14   A    
C12   O21   A    
Cr4   O6    S    
Cr1   O1    S    
Cr6   O19   S    
C51   O24   A    
C27   O28   S    
C17   H10   S    
C30   H3    S    
Cr5   O8    S    
C39   H5    S    
C16   H11   S    
C47   O6    A    
C49   O17   A    
Cr3   O4    S    
C57   H20   S    
C52   C54   T    
C34   O25   A    
C41   H8    S    
C21   C45   S    
Cr6   O18   S    
C56   H19   S    
C3    C44   S    
C34   C43   S    
Cr3   O3    S    
C24   C25   A    
C4    C6    T    
C44   O7    A    
Cr4   O7    S    
C39   C40   A    
C1    O20   A    
C33   C50   S    
C40   H7    S    
C42   H9    S    
Cr5   O16   S    
C7    C47   S    
C37   C43   A    
C35   C39   A    
C32   C51   S    
C29   C30   A    
C11   C49   S    
C14   C20   A    
Cr1   O5    S    
C11   C16   A    
C58   H24   S    
Cr3   O23   S    
C17   C18   A    
C15   H1    S    
C55   H16   S    
C50   O13   A    
C46   O10   A    
C50   O18   A    
C40   C41   A    
C23   O23   A    
C48   O15   A    
C22   C24   A    
Cr2   O26   S    
Cr6   O17   S    
C1    O12   A    
C7    C9    T    
C38   H6    S    
C29   H2    S    
O28   C57   S    
C31   H4    S    
C12   O22   A    
C1    C10   S    
C24   C28   A    
C23   O1    A    
C4    C5    S    
C3    C5    T    
C2    C53   T    
Cr4   O14   S    
Cr6   O11   S    
C56   H17   S    
C33   C38   A    
C13   C17   A    
C22   C27   A    
Cr1   O12   S    
C51   O4    A    
C37   O27   S    
C11   C13   A    
C25   C32   A    
C28   H14   S    
Cr1   O24   S    
C33   C35   A    
C55   H15   S    
C46   O9    A    
C15   C21   A    
C8    C10   T    
Cr1   O25   S    
C20   H12   S    
C36   C43   A    
C45   O3    A    
Cr5   O19   S    
C13   C14   A    
C57   C58   S    
C58   H22   S    
