data_mof_unit_40217.cif
_audit_creation_date              2013-03-05T15:44:50-0500
_audit_creation_method            fapswitch 2.2
_symmetry_space_group_name_H-M    P1
_symmetry_Int_Tables_number       1
_space_group_crystal_system       monoclinic
_cell_length_a                    17.358344
_cell_length_b                    17.791491
_cell_length_c                    6.950875
_cell_angle_alpha                 90.0
_cell_angle_beta                  90.991513
_cell_angle_gamma                 90.0
_cell_volume                      2146.32301479

loop_
_atom_site_label
_atom_site_type_symbol
_atom_site_description
_atom_site_fract_x
_atom_site_fract_y
_atom_site_fract_z
_atom_type_partial_charge
O1    O     O_R   0.796490 0.328940 0.373020 -0.569545
O2    O     O_R   0.203510 0.671060 0.626980 -0.552630
O3    O     O_R   0.203510 0.828940 0.626980 -0.569544
O4    O     O_R   0.796490 0.171060 0.373020 -0.552630
O5    O     O_R   0.805560 0.173330 0.702970 -0.566671
O6    O     O_R   0.194440 0.826670 0.297030 -0.576655
O7    O     O_R   0.194440 0.673330 0.297030 -0.566671
O8    O     O_R   0.805560 0.326670 0.702970 -0.576654
O9    O     O_R   0.658440 0.172360 0.870170 -0.596466
O10   O     O_R   0.341560 0.827640 0.129830 -0.599338
O11   O     O_R   0.341560 0.672360 0.129830 -0.596466
O12   O     O_R   0.658440 0.327640 0.870170 -0.599338
C1    C     C_R   0.825168 0.147212 0.535775 1.001116
C2    C     C_R   0.175830 0.853410 0.463429 1.007926
C3    C     C_R   0.174832 0.647212 0.464225 1.001115
C4    C     C_R   0.824170 0.353410 0.536571 1.007926
H1    H     H_    0.058607 0.048574 0.148059 0.182701
H2    H     H_    0.939356 0.945559 0.837347 0.180034
H3    H     H_    0.941393 0.548574 0.851941 0.182700
H4    H     H_    0.060642 0.445560 0.162652 0.180033
O13   O     O_3   0.679200 0.250000 0.537050 -0.300179
O14   O     O_3   0.320800 0.750000 0.462950 -0.300179
V1    V     V_3+5 0.736420 0.250000 0.813120 1.253540
V2    V     V_3+5 0.263580 0.750000 0.186880 1.253540
O15   O     O_R   0.649370 0.327980 0.199650 -0.599456
O16   O     O_R   0.350630 0.672020 0.800350 -0.596765
O17   O     O_R   0.350630 0.827980 0.800350 -0.599456
O18   O     O_R   0.649370 0.172020 0.199650 -0.596764
C5    C     C_R   0.630515 0.354345 0.029583 0.951527
C6    C     C_R   0.369478 0.645650 0.970415 0.964820
C7    C     C_R   0.369485 0.854345 0.970417 0.951528
C8    C     C_R   0.630521 0.145650 0.029585 0.964819
V3    V     V_3+5 0.718510 0.250000 0.312740 1.236547
V4    V     V_3+5 0.281490 0.750000 0.687260 1.236547
O19   O     O_3   0.775740 0.250000 0.038930 -0.197054
O20   O     O_3   0.224260 0.750000 0.961070 -0.197054
C9    C     C_1   0.574085 0.083196 0.016889 -0.302192
C10   C     C_1   0.425924 0.916798 0.983114 -0.298047
C11   C     C_1   0.425915 0.583195 0.983111 -0.302192
C12   C     C_1   0.574076 0.416798 0.016886 -0.298047
C13   C     C_1   0.527473 0.030926 0.006277 0.062994
C14   C     C_1   0.472537 0.969067 0.993726 0.061022
C15   C     C_1   0.472527 0.530926 0.993723 0.062994
C16   C     C_1   0.527463 0.469067 0.006274 0.061022
H5    H     H_    0.840028 0.038537 0.798503 0.169864
H6    H     H_    0.159956 0.959405 0.194040 0.161076
H7    H     H_    0.159971 0.538537 0.201496 0.169864
H8    H     H_    0.840043 0.459406 0.805960 0.161076
C17   C     C_R   0.883743 0.086060 0.535841 -0.300025
C18   C     C_R   0.117665 0.914505 0.460959 -0.301990
C19   C     C_R   0.116257 0.586060 0.464159 -0.300025
C20   C     C_R   0.882335 0.414505 0.539041 -0.301990
C21   C     C_R   0.058272 0.016224 0.279380 -0.070770
C22   C     C_R   0.942451 0.982597 0.714419 -0.106306
C23   C     C_R   0.941728 0.516225 0.720620 -0.070772
C24   C     C_R   0.057548 0.482598 0.285580 -0.106307
C25   C     C_R   0.116449 0.963448 0.303536 -0.121815
C26   C     C_R   0.884741 0.036159 0.691911 -0.131832
C27   C     C_R   0.883550 0.463449 0.696464 -0.121815
C28   C     C_R   0.115258 0.536159 0.308089 -0.131831
C29   C     C_R   0.060736 0.921765 0.602688 0.283439
C30   C     C_R   0.941134 0.079125 0.393741 0.297456
C31   C     C_R   0.939263 0.421766 0.397312 0.283440
C32   C     C_R   0.058866 0.579125 0.606258 0.297456
C33   C     C_R   0.002060 0.976930 0.581156 0.005089
C34   C     C_R   0.000729 0.024859 0.417690 -0.007216
C35   C     C_R   0.997939 0.476931 0.418843 0.005089
C36   C     C_R   0.999270 0.524860 0.582310 -0.007215
N1    N     N_R   0.939721 0.126969 0.227513 0.242527
O21   O     O_R   0.999831 0.167206 0.186671 -0.350225
O22   O     O_R   0.885888 0.118174 0.097202 -0.392867
N2    N     N_R   0.058805 0.869338 0.758493 0.233213
O23   O     O_R   0.066625 0.892119 0.935273 -0.422706
O24   O     O_R   0.053562 0.797982 0.722543 -0.334140
N3    N     N_R   0.060278 0.626969 0.772486 0.242527
O25   O     O_R   0.000168 0.667207 0.813327 -0.350226
O26   O     O_R   0.114111 0.618175 0.902798 -0.392866
N4    N     N_R   0.941195 0.369338 0.241508 0.233213
O27   O     O_R   0.933373 0.392118 0.064727 -0.422705
O28   O     O_R   0.946442 0.297982 0.277460 -0.334141

loop_
_geom_bond_atom_site_label_1
_geom_bond_atom_site_label_2
_geom_bond_distance
_ccdc_geom_bond_type
C23   C27   1.387013 A    
O12   C5    1.306561 A    
C13   C14   1.457848 S    
H4    C24   1.081114 S    
C23   C36   1.406688 A    
O1    V3    1.990146 S    
C22   C33   1.404277 A    
O12   V1    1.978924 S    
V2    O20   1.700689 S    
C32   C36   1.422677 A    
C10   C14   1.234035 T    
N4    O28   1.296791 A    
O13   V3    1.712712 S    
O7    V2    1.979666 S    
O11   V2    1.978928 S    
O8    V1    1.979667 S    
O4    C1    1.299290 A    
N1    O22   1.299551 A    
O9    C8    1.306558 A    
H7    C28   1.083067 S    
O10   C7    1.306560 A    
O16   V4    1.987579 S    
O11   C6    1.306556 A    
C3    C19   1.489123 S    
O5    C1    1.302331 A    
O2    V4    1.990147 S    
O7    C3    1.302332 A    
O8    C4    1.296681 A    
O17   V4    1.987578 S    
O15   C5    1.308110 A    
O14   V4    1.712712 S    
C31   C35   1.420486 A    
H5    C26   1.083066 S    
C30   C34   1.422676 A    
O17   C7    1.308109 A    
C35   C36   1.420494 A    
O18   C8    1.308103 A    
N2    O24   1.296791 A    
C21   C25   1.387010 A    
N4    O27   1.298779 A    
O9    V1    1.978925 S    
C11   C15   1.234034 T    
O3    V4    1.990145 S    
O10   V2    1.978927 S    
C17   C26   1.401684 A    
C24   C28   1.389478 A    
C30   N1    1.434997 S    
N3    O25   1.300776 A    
C21   C34   1.406688 A    
C20   C27   1.398296 A    
O6    C2    1.296683 A    
O5    V1    1.979668 S    
O6    V2    1.979664 S    
O1    C4    1.301483 A    
C8    C9    1.482964 S    
O2    C3    1.299290 A    
N3    O26   1.299551 A    
O3    C2    1.301482 A    
C1    C17   1.489122 S    
C29   N2    1.430128 S    
O18   V3    1.987578 S    
O16   C6    1.308102 A    
V1    O19   1.700691 S    
O13   V1    2.145426 S    
C15   C16   1.457848 S    
O14   V2    2.145428 S    
H1    C21   1.079203 S    
H8    C27   1.083828 S    
C22   C26   1.389479 A    
H3    C23   1.079203 S    
O4    V3    1.990148 S    
C17   C30   1.420315 A    
C18   C25   1.398297 A    
C19   C32   1.420314 A    
C4    C20   1.483439 S    
N2    O23   1.298778 A    
C20   C31   1.413288 A    
C24   C35   1.404277 A    
C7    C10   1.482971 S    
H6    C25   1.083830 S    
C2    C18   1.483440 S    
C5    C12   1.482971 S    
V3    O19   2.162072 S    
C32   N3    1.434996 S    
C6    C11   1.482964 S    
V4    O20   2.162072 S    
C9    C13   1.234034 T    
N1    O21   1.300776 A    
H2    C22   1.081113 S    
C29   C33   1.420486 A    
C12   C16   1.234035 T    
C33   C34   1.420494 A    
C18   C29   1.413287 A    
C19   C28   1.401684 A    
O15   V3    1.987577 S    
C31   N4    1.430128 S    
