data_mof_unit_7799.cif
_audit_creation_date              2012-12-10T16:37:32-0500
_audit_creation_method            fapswitch 2.2
_symmetry_space_group_name_H-M    P1
_symmetry_Int_Tables_number       1
_space_group_crystal_system       triclinic
_cell_length_a                    10.851982
_cell_length_b                    10.849373
_cell_length_c                    15.508279
_cell_angle_alpha                 96.129511
_cell_angle_beta                  74.398607
_cell_angle_gamma                 97.762873
_cell_volume                      1737.75671541

loop_
_atom_site_label
_atom_site_type_symbol
_atom_type_description
_atom_site_fract_x
_atom_site_fract_y
_atom_site_fract_z
_atom_type_partial_charge
C1    C     C_R   0.158897 0.480941 0.519713 0.487916
C2    C     C_R   0.495700 0.451430 0.118167 -0.126915
C3    C     C_R   0.713294 0.415983 0.113333 -0.123773
C4    C     C_R   0.842272 0.520694 0.480199 0.523586
C5    C     C_R   0.407853 0.559551 0.840626 -0.024793
C6    C     C_2   0.979440 0.519603 0.469972 -0.085486
C7    C     C_2   0.021542 0.474581 0.533103 0.269389
C8    C     C_2   0.533948 0.967019 0.473658 -0.083366
C9    C     C_2   0.452476 0.036993 0.533534 0.272473
C10   C     C_R   0.469689 0.168396 0.520410 0.479303
C11   C     C_R   0.528896 0.833921 0.480905 0.526010
C12   C     C_R   0.229529 0.536828 0.973646 0.252048
C13   C     C_R   0.556899 0.445216 0.258775 0.497036
C14   C     C_R   0.445844 0.554074 0.741946 0.489471
C15   C     C_R   0.752309 0.434536 0.022476 -0.139242
C16   C     C_R   0.586149 0.427874 0.161580 0.032876
C17   C     C_R   0.277233 0.563937 0.884192 -0.119820
C18   C     C_3   0.956722 0.343840 0.650379 0.014078
C19   C     C_3   0.878144 0.232664 0.613343 -0.250818
C20   C     C_3   0.890530 0.111623 0.650595 -0.485527
C21   C     C_3   0.268132 0.059666 0.654933 0.015180
C22   C     C_3   0.299482 0.136855 0.736687 -0.263056
C23   C     C_R   0.312181 0.503045 0.020054 -0.105484
C24   C     C_3   0.200518 0.228177 0.778254 -0.478123
C25   C     C_3   0.060476 0.638194 0.058851 -0.000377
C26   C     C_3   0.038105 0.628845 0.159906 -0.264106
C27   C     C_3   0.974364 0.739693 0.214154 -0.454833
C28   C     C_R   0.445973 0.504336 0.979951 -0.014887
C29   C     C_R   0.494162 0.535620 0.889342 0.010125
C30   C     C_R   0.533151 0.472466 0.026045 0.034474
C31   C     C_R   0.664973 0.467688 0.979407 0.040330
C32   C     C_R   0.710422 0.502615 0.891742 -0.137949
C33   C     C_R   0.627406 0.540347 0.848545 -0.100755
H1    H     H_    0.852408 0.429380 0.986937 0.149700
H2    H     H_    0.992476 0.091658 0.630787 0.139272
H3    H     H_    0.831704 0.033221 0.623229 0.159739
H4    H     H_    0.855695 0.118462 0.724987 0.147630
H5    H     H_    0.604596 0.008675 0.417363 0.046969
H6    H     H_    0.180664 0.994058 0.679586 0.149705
H7    H     H_    0.241043 0.118599 0.609899 0.120475
H8    H     H_    0.300864 0.072900 0.787758 0.166199
H9    H     H_    0.396106 0.190295 0.717398 0.201222
H10   H     H_    0.204715 0.298657 0.730318 0.135163
H11   H     H_    0.222139 0.277475 0.839919 0.169691
H12   H     H_    0.400566 0.464330 0.159706 0.095398
H13   H     H_    0.101960 0.177872 0.796385 0.142392
H14   H     H_    0.811735 0.504465 0.857200 0.117448
H15   H     H_    0.968136 0.652870 0.045452 0.154489
H16   H     H_    0.129349 0.722106 0.036719 0.122176
H17   H     H_    0.975395 0.541517 0.180335 0.179295
H18   H     H_    0.131649 0.625924 0.175563 0.147000
H19   H     H_    0.035203 0.828362 0.194947 0.139923
H20   H     H_    0.962001 0.731206 0.286791 0.173048
H21   H     H_    0.878056 0.741782 0.202490 0.165371
H22   H     H_    0.669555 0.573768 0.782611 0.157668
H23   H     H_    0.209819 0.579107 0.846998 0.143001
H24   H     H_    0.046735 0.551809 0.408825 0.040434
H25   H     H_    0.267825 0.472534 0.086255 0.114554
H26   H     H_    0.783962 0.399128 0.147259 0.119477
H27   H     H_    0.920161 0.352162 0.724651 0.142881
H28   H     H_    0.059234 0.326584 0.636428 0.112731
H29   H     H_    0.775052 0.249077 0.632002 0.205655
H30   H     H_    0.912301 0.222952 0.538921 0.160756
O1    O     O_3   0.500000 0.500000 0.500000 -0.440859
O2    O     O_R   0.463530 0.379110 0.309170 -0.537342
O3    O     O_R   0.388210 0.611730 0.699360 -0.538961
O4    O     O_R   0.624720 0.532760 0.292120 -0.547919
O5    O     O_R   0.523540 0.476390 0.699360 -0.545972
O6    O     O_3   0.939936 0.456229 0.618211 -0.555243
O7    O     O_3   0.369576 0.987116 0.610865 -0.548763
O8    O     O_3   0.098209 0.524799 0.011456 -0.590619
O9    O     O_R   0.537910 0.240570 0.564270 -0.568662
O10   O     O_R   0.438950 0.782540 0.540270 -0.474394
O11   O     O_R   0.222350 0.398740 0.468260 -0.566590
O12   O     O_R   0.800790 0.578160 0.427210 -0.561039
O13   O     O_R   0.212140 0.566330 0.564260 -0.532696
O14   O     O_R   0.764730 0.456770 0.540270 -0.496431
O15   O     O_R   0.412790 0.208310 0.468260 -0.558248
O16   O     O_R   0.610350 0.768590 0.427210 -0.553952
Zn1   Zn    Zn3+2 0.580150 0.419820 0.574680 0.920720
Zn2   Zn    Zn3+2 0.401380 0.373730 0.437510 0.913715
Zn3   Zn    Zn3+2 0.631680 0.593260 0.413140 0.915964
Zn4   Zn    Zn3+2 0.386790 0.613180 0.574670 0.962845

loop_
_geom_bond_atom_site_label_1
_geom_bond_atom_site_label_2
_ccdc_geom_bond_type
O5    Zn1   S    
C23   H25   S    
C33   H22   S    
C19   C20   S    
C10   O15   A    
C27   H21   S    
C13   O2    A    
C12   C23   A    
C26   C27   S    
C1    O11   A    
C28   C29   A    
C26   H17   S    
C30   C31   A    
C22   H8    S    
C5    C17   A    
C19   H29   S    
C29   C33   A    
C18   C19   S    
C4    O12   A    
O3    Zn4   S    
C20   H2    S    
C19   H30   S    
C8    C9    D    
C12   C17   A    
C25   O8    S    
C2    C16   A    
C9    C10   S    
C15   H1    S    
C18   O6    S    
C21   C22   S    
O1    Zn1   S    
C6    H24   S    
C8    H5    S    
O13   Zn4   S    
C5    C29   A    
C2    H12   S    
C9    O7    S    
C4    C6    S    
C11   O10   A    
C25   C26   S    
O1    Zn4   S    
O2    Zn2   S    
C31   C32   A    
C21   H6    S    
C14   O3    A    
O12   Zn3   S    
C23   C28   A    
C17   H23   S    
O1    Zn3   S    
C5    C14   S    
C11   O16   A    
C18   H27   S    
C12   O8    S    
C24   H11   S    
C32   H14   S    
C22   C24   S    
O11   Zn2   S    
C3    C15   A    
C27   H19   S    
C13   O4    A    
O14   Zn1   S    
C1    C7    S    
C1    O13   A    
C7    O6    S    
O16   Zn3   S    
C27   H20   S    
C18   H28   S    
C15   C31   A    
C6    C7    D    
C21   O7    S    
C2    C30   A    
C24   H13   S    
C32   C33   A    
C28   C30   A    
C4    O14   A    
O9    Zn1   S    
C26   H18   S    
C20   H4    S    
O15   Zn2   S    
C22   H9    S    
C21   H7    S    
C8    C11   S    
C25   H16   S    
O1    Zn2   S    
C20   H3    S    
O4    Zn3   S    
C13   C16   S    
C24   H10   S    
C14   O5    A    
C25   H15   S    
O10   Zn4   S    
C3    C16   A    
C10   O9    A    
C3    H26   S    
