data_mof_unit_19105.cif
_audit_creation_date              2013-03-05T15:58:06-0500
_audit_creation_method            fapswitch 2.2
_symmetry_space_group_name_H-M    P1
_symmetry_Int_Tables_number       1
_space_group_crystal_system       triclinic
_cell_length_a                    12.662717
_cell_length_b                    13.2261
_cell_length_c                    14.938385
_cell_angle_alpha                 90.252398
_cell_angle_beta                  102.251319
_cell_angle_gamma                 81.941391
_cell_volume                      2419.90634245

loop_
_atom_site_label
_atom_site_type_symbol
_atom_site_description
_atom_site_fract_x
_atom_site_fract_y
_atom_site_fract_z
_atom_type_partial_charge
O1    O     O_R   0.366740 0.627160 0.477250 -0.591974
O2    O     O_R   0.544830 0.662520 0.507680 -0.619355
C1    C     C_R   0.439016 0.691164 0.485020 0.974825
O3    O     O_R   0.410940 0.482340 0.616930 -0.558441
O4    O     O_R   0.589030 0.517700 0.647360 -0.607878
C2    C     C_R   0.500040 0.501872 0.672325 0.933449
Zn1   Zn    Zn3+2 0.381090 0.476390 0.479680 1.094552
Zn2   Zn    Zn3+2 0.618910 0.523610 0.520320 1.036288
O5    O     O_R   0.455170 0.337480 0.492320 -0.572935
O6    O     O_R   0.633260 0.372840 0.522750 -0.609614
O7    O     O_R   0.410970 0.482300 0.352640 -0.593301
O8    O     O_R   0.589060 0.517660 0.383070 -0.599914
C3    C     C_R   0.561606 0.308757 0.514201 0.913359
C4    C     C_R   0.500839 0.494492 0.327854 0.958821
C5    C     C_R   0.540267 0.401625 0.191928 0.251434
C6    C     C_R   0.497765 0.490117 0.231515 -0.151641
C7    C     C_R   0.442688 0.574264 0.177970 -0.110904
C8    C     C_R   0.447545 0.581845 0.086510 -0.049713
C9    C     C_R   0.496857 0.496562 0.046028 0.014321
C10   C     C_R   0.540750 0.404845 0.098159 0.034059
C11   C     C_R   0.410802 0.675048 0.037234 0.222007
C12   C     C_R   0.423334 0.683474 0.946708 0.217866
C13   C     C_R   0.460025 0.594745 0.901577 -0.147338
C14   C     C_R   0.500799 0.502180 0.953300 0.025315
C15   C     C_R   0.546223 0.414690 0.912485 0.158239
C16   C     C_R   0.589391 0.324752 0.963910 -0.155159
C17   C     C_R   0.587400 0.319945 0.056144 -0.108702
C18   C     C_R   0.457016 0.594332 0.806487 0.312233
C19   C     C_R   0.501486 0.505431 0.768178 -0.139237
C20   C     C_R   0.547624 0.417779 0.820415 -0.252646
H1    H     H_    0.396653 0.634103 0.208814 0.225593
H2    H     H_    0.581959 0.350853 0.788278 0.160954
C21   C     C_R   0.721680 0.053139 0.487610 -0.134052
C22   C     C_R   0.599350 0.198478 0.520392 -0.180784
C23   C     C_R   0.296741 0.838221 0.485434 -0.195159
C24   C     C_R   0.261214 0.942505 0.485656 0.287830
C25   C     C_R   0.333972 0.012309 0.478667 0.223832
C26   C     C_R   0.445080 0.975021 0.475333 -0.065132
C27   C     C_R   0.471493 0.870610 0.456790 -0.047229
C28   C     C_R   0.531195 0.036329 0.487845 0.129064
C29   C     C_R   0.635252 0.995486 0.472185 0.040932
C30   C     C_R   0.651743 0.898532 0.438292 -0.213429
C31   C     C_R   0.568481 0.838843 0.424240 0.349390
C32   C     C_R   0.519233 0.135528 0.519359 -0.181049
C33   C     C_R   0.705378 0.154825 0.512782 0.343393
C34   C     C_R   0.400644 0.801283 0.471539 -0.127512
C35   C     C_R   0.078967 0.370832 0.356016 -0.216560
N1    N     N_R   0.222190 0.444670 0.452360 -0.210200
C36   C     C_R   0.794532 0.635659 0.601669 -0.037396
C37   C     C_R   0.892547 0.675660 0.612905 0.229880
C38   C     C_R   0.973609 0.626617 0.570610 -0.158817
C39   C     C_R   0.958987 0.536607 0.520953 -0.003589
C40   C     C_R   0.854297 0.506380 0.505133 0.215792
C41   C     C_R   0.040057 0.480883 0.479451 -0.066167
C42   C     C_R   0.006858 0.412891 0.408933 0.041743
C43   C     C_R   0.901436 0.388177 0.391229 -0.097670
C44   C     C_R   0.828276 0.430686 0.442390 -0.048245
C45   C     C_R   0.152785 0.488150 0.504858 0.332823
C46   C     C_R   0.185700 0.391673 0.375657 0.413809
N2    N     N_R   0.776970 0.554790 0.547140 -0.149764
H3    H     H_    0.729150 0.672161 0.632027 0.196664
N3    N     N_R   0.573105 0.307488 0.244416 0.191460
O9    O     O_R   0.654100 0.298951 0.314969 -0.454550
O10   O     O_R   0.520264 0.230313 0.222427 -0.289152
H4    H     H_    0.727521 0.871588 0.417324 0.197859
H5    H     H_    0.801943 0.019002 0.479316 0.211580
H6    H     H_    0.447057 0.166633 0.542261 0.213678
H7    H     H_    0.241972 0.785665 0.495893 0.236585
N4    N     N_R   0.286887 0.114499 0.448506 0.208097
O11   O     O_R   0.254312 0.179451 0.506147 -0.348380
O12   O     O_R   0.247242 0.131367 0.361366 -0.293508
N5    N     N_R   0.149750 0.976576 0.490988 0.252838
O13   O     O_R   0.073144 0.923925 0.453556 -0.343604
O14   O     O_R   0.126644 0.050509 0.544422 -0.226973
N6    N     N_R   0.574354 0.756851 0.362018 0.214774
O15   O     O_R   0.668187 0.705601 0.356309 -0.378600
O16   O     O_R   0.490197 0.751438 0.296380 -0.397857
N7    N     N_R   0.253120 0.361437 0.311671 0.240733
O17   O     O_R   0.341589 0.296497 0.336057 -0.265811
O18   O     O_R   0.215313 0.383004 0.224879 -0.346367
H8    H     H_    0.876305 0.333777 0.339285 0.199444
H9    H     H_    0.052007 0.323928 0.298208 0.205144
N8    N     N_R   0.196735 0.533333 0.588793 0.213113
O19   O     O_R   0.187287 0.495135 0.666362 -0.326266
O20   O     O_R   0.233533 0.619941 0.587235 -0.360306
H10   H     H_    0.043363 0.664329 0.571664 0.233754
N9    N     N_R   0.908042 0.767241 0.663595 0.229676
O21   O     O_R   0.829320 0.816319 0.697163 -0.340276
O22   O     O_R   0.000818 0.802669 0.676412 -0.259630
H11   H     H_    0.750363 0.405838 0.429877 0.229673
N10   N     N_R   0.369774 0.764052 0.081485 0.247332
O23   O     O_R   0.425755 0.839937 0.097629 -0.245314
O24   O     O_R   0.273664 0.771584 0.101000 -0.300440
N11   N     N_R   0.407625 0.783541 0.904843 0.261992
O25   O     O_R   0.489288 0.818162 0.881187 -0.287514
O26   O     O_R   0.316663 0.844660 0.900906 -0.221326
N12   N     N_R   0.402773 0.679852 0.747400 0.234753
O27   O     O_R   0.454672 0.722619 0.694960 -0.377461
O28   O     O_R   0.300368 0.713427 0.744206 -0.242567
H12   H     H_    0.625202 0.258010 0.932742 0.179101
H13   H     H_    0.623760 0.249774 0.094249 0.208716
N13   N     N_R   0.797216 0.209980 0.533068 0.216826
O29   O     O_R   0.814432 0.260927 0.608251 -0.338738
O30   O     O_R   0.876437 0.189285 0.489879 -0.319445

loop_
_geom_bond_atom_site_label_1
_geom_bond_atom_site_label_2
_geom_bond_distance
_ccdc_geom_bond_type
C18   N12   1.436636 S    
C20   H2    1.086251 S    
C42   C43   1.389455 A    
C25   N4    1.432022 S    
C8    C11   1.407028 A    
C21   C33   1.394070 A    
C29   C30   1.381442 A    
C23   C24   1.389761 A    
N9    O21   1.301663 A    
N12   O27   1.300814 A    
C43   H8    1.084216 S    
Zn1   O7    2.016220 S    
C16   C17   1.385309 A    
C25   C26   1.435319 A    
C36   N2    1.356153 A    
C18   C19   1.404396 A    
C41   C45   1.413901 A    
O4    C2    1.303031 A    
O7    C4    1.299577 A    
N7    O18   1.301188 A    
C5    C6    1.400560 A    
C43   C44   1.381695 A    
C46   N7    1.431662 S    
C8    C9    1.408793 A    
C35   H9    1.084736 S    
N4    O12   1.300035 A    
O5    C3    1.318410 A    
N3    O10   1.301063 A    
C9    C10   1.422137 A    
C6    C7    1.385034 A    
C30   H4    1.084689 S    
C13   C14   1.422759 A    
C19   C20   1.385217 A    
C11   C12   1.401339 A    
C12   N11   1.436315 S    
N13   O29   1.301366 A    
O3    Zn1   2.007682 S    
C38   H10   1.070870 S    
N12   O28   1.301320 A    
C40   N2    1.357922 A    
C39   C41   1.426651 A    
C21   H5    1.084644 S    
C37   C38   1.399474 A    
C31   N6    1.429441 S    
C5    C10   1.402920 A    
C36   H3    1.081439 S    
C44   H11   1.062261 S    
C38   C39   1.413336 A    
C22   C32   1.397386 A    
C14   C15   1.413363 A    
N5    O14   1.300376 A    
N10   O23   1.301068 A    
C40   C44   1.393731 A    
N7    O17   1.298143 A    
C27   C31   1.424163 A    
C15   C16   1.396939 A    
C17   H13   1.082110 S    
O1    C1    1.318695 A    
N11   O26   1.301631 A    
N6    O15   1.302004 A    
N3    O9    1.298181 A    
N10   O24   1.300905 A    
N8    O19   1.301228 A    
Zn2   O8    2.007682 S    
C7    C8    1.385322 A    
N11   O25   1.301196 A    
C22   C33   1.412691 A    
C13   C18   1.412903 A    
N13   O30   1.301401 A    
N6    O16   1.295955 A    
C37   N9    1.440322 S    
C27   C34   1.417905 A    
O3    C2    1.306925 A    
C28   C29   1.418755 A    
N8    O20   1.297794 A    
O8    C4    1.313353 A    
N9    O22   1.301708 A    
C7    H1    1.076974 S    
C4    C6    1.432525 S    
C30   C31   1.384516 A    
C39   C40   1.409917 A    
N1    C46   1.369954 A    
C35   C42   1.388570 A    
C11   N10   1.435289 S    
C15   C20   1.380109 A    
Zn1   O5    1.932801 S    
C41   C42   1.415910 A    
C24   C25   1.411465 A    
O1    Zn1   1.976617 S    
O2    Zn2   1.932802 S    
N5    O13   1.301660 A    
O6    C3    1.312788 A    
O4    Zn2   2.016220 S    
N1    C45   1.365628 A    
C10   C17   1.403184 A    
C1    C34   1.469882 S    
C21   C29   1.399166 A    
Zn1   N1    2.068283 S    
O2    C1    1.311384 A    
C3    C22   1.466763 S    
C45   N8    1.424601 S    
Zn2   N2    2.055748 S    
C26   C28   1.428848 A    
C26   C27   1.414947 A    
C23   H7    1.081972 S    
C5    N3    1.436300 S    
C9    C14   1.399319 A    
N4    O11   1.301698 A    
C33   N13   1.436216 S    
C35   C46   1.387132 A    
C28   C32   1.391058 A    
C2    C19   1.428767 S    
Zn2   O6    1.976618 S    
C36   C37   1.394063 A    
C12   C13   1.421496 A    
C32   H6    1.071286 S    
C23   C34   1.395562 A    
C24   N5    1.438969 S    
C16   H12   1.084156 S    
