data_mof_unit_53442.cif
_audit_creation_date              2012-12-10T17:17:31-0500
_audit_creation_method            fapswitch 2.2
_symmetry_space_group_name_H-M    P1
_symmetry_Int_Tables_number       1
_space_group_crystal_system       triclinic
_cell_length_a                    10.193543
_cell_length_b                    10.711422
_cell_length_c                    12.294005
_cell_angle_alpha                 90.409451
_cell_angle_beta                  109.265755
_cell_angle_gamma                 96.275688
_cell_volume                      1258.24579373

loop_
_atom_site_label
_atom_site_type_symbol
_atom_type_description
_atom_site_fract_x
_atom_site_fract_y
_atom_site_fract_z
_atom_type_partial_charge
C1    C     C_R   0.054375 0.733897 0.495961 0.825013
C2    C     C_R   0.208013 0.528483 0.837663 -0.117577
C3    C     C_2   0.093612 0.869517 0.504981 -0.184357
C4    C     C_R   0.135253 0.516638 0.713804 0.849783
C5    C     C_2   0.024273 0.938025 0.555754 -0.183017
C6    C     C_2   0.929426 0.134987 0.531952 -0.390108
C7    C     C_2   0.041957 0.073196 0.563835 -0.073504
C8    C     C_2   0.432673 0.512671 0.508535 -0.130511
C9    C     C_2   0.566967 0.488677 0.489861 -0.118126
C10   C     C_R   0.950496 0.267280 0.512050 0.946778
C11   C     C_R   0.866229 0.489354 0.286069 0.880326
C12   C     C_R   0.428464 0.527852 0.992415 0.086795
C13   C     C_R   0.793729 0.600503 0.987389 -0.198163
C14   C     C_R   0.797562 0.501648 0.163957 -0.056858
C15   C     C_R   0.134948 0.488648 0.912372 -0.196661
C16   C     C_R   0.207497 0.473278 0.027767 -0.147349
C17   C     C_R   0.353045 0.489670 0.067487 -0.183452
C18   C     C_2   0.202136 0.922075 0.455267 0.389897
C19   C     C_R   0.353828 0.561940 0.880676 0.093472
C20   C     C_R   0.575377 0.533196 0.024263 0.082673
C21   C     C_R   0.647139 0.590939 0.952920 0.181500
C22   C     C_R   0.571713 0.640573 0.849785 -0.253199
C23   C     C_R   0.426623 0.626424 0.813977 -0.203668
C24   C     C_R   0.652789 0.480754 0.124762 -0.248743
C25   C     C_R   0.869270 0.558394 0.094355 -0.203291
H1    H     H_    0.982375 0.576388 0.125163 0.154272
H2    H     H_    0.602908 0.427766 0.177702 0.140830
H3    H     H_    0.022312 0.465057 0.880740 0.163012
H4    H     H_    0.403460 0.474743 0.157679 0.129808
H5    H     H_    0.151164 0.442948 0.085553 0.147981
H6    H     H_    0.371812 0.667781 0.734133 0.152439
H7    H     H_    0.147028 0.122279 0.585733 0.219535
H8    H     H_    0.266325 0.859369 0.432020 0.075591
H9    H     H_    0.943213 0.893466 0.586959 0.171796
H10   H     H_    0.824239 0.087182 0.513739 0.156067
H11   H     H_    0.563985 0.414779 0.427947 0.160841
H12   H     H_    0.435407 0.587982 0.568906 0.155500
H13   H     H_    0.684965 0.622735 0.603222 0.153428
H14   H     H_    0.315324 0.375855 0.398173 0.181539
H15   H     H_    0.624675 0.688637 0.795931 0.134068
H16   H     H_    0.849690 0.645516 0.934258 0.139999
N1    N     N_2   0.313640 0.446500 0.454900 -0.184271
N2    N     N_2   0.686360 0.553430 0.545150 -0.189111
O1    O     O_R   0.936910 0.692950 0.509080 -0.595075
O2    O     O_R   0.138320 0.658600 0.480130 -0.628692
O3    O     O_R   0.002900 0.525670 0.675280 -0.611386
O4    O     O_R   0.204310 0.491320 0.646330 -0.602260
O5    O     O_R   0.861680 0.341400 0.519870 -0.606411
O6    O     O_R   0.063090 0.307050 0.490920 -0.574952
O7    O     O_R   0.795690 0.508680 0.353670 -0.604020
O8    O     O_R   0.997100 0.474330 0.324720 -0.608523
O9    O     O_2   0.218541 0.033218 0.435851 -0.571515
Zn1   Zn    Zn3+2 0.865520 0.522940 0.519330 0.939439
Zn2   Zn    Zn3+2 0.134480 0.477060 0.480670 0.952417

loop_
_geom_bond_atom_site_label_1
_geom_bond_atom_site_label_2
_ccdc_geom_bond_type
C12   C17   A    
C6    C10   S    
C9    H11   S    
C19   C23   A    
C6    C7    D    
C17   H4    S    
C1    O1    A    
C2    C4    S    
C24   H2    S    
O8    Zn2   S    
C1    O2    A    
C5    H9    S    
C12   C20   A    
C13   H16   S    
C2    C19   A    
C18   O9    D    
H13   N2    S    
C11   O7    A    
C4    O3    A    
C21   C22   A    
N1    Zn2   S    
C2    C15   A    
C13   C25   A    
C15   H3    S    
O4    Zn2   S    
C12   C19   A    
C11   C14   S    
C8    N1    D    
O2    Zn2   S    
H14   N1    S    
C14   C25   A    
C10   O5    A    
O5    Zn1   S    
C18   H8    S    
C9    N2    D    
O7    Zn1   S    
C11   O8    A    
C8    H12   S    
C16   H5    S    
O6    Zn2   S    
C20   C24   A    
C13   C21   A    
C6    H10   S    
O3    Zn1   S    
C3    C18   S    
C20   C21   A    
C14   C24   A    
C5    C7    S    
C22   H15   S    
C16   C17   A    
C7    H7    S    
C3    C5    D    
C25   H1    S    
C22   C23   A    
C10   O6    A    
O1    Zn1   S    
N2    Zn1   S    
C15   C16   A    
C8    C9    S    
C1    C3    S    
C4    O4    A    
C23   H6    S    
