data_mof_unit_16624.cif
_audit_creation_date              2012-12-10T19:52:16-0500
_audit_creation_method            fapswitch 2.2
_symmetry_space_group_name_H-M    P1
_symmetry_Int_Tables_number       1
_space_group_crystal_system       triclinic
_cell_length_a                    14.79434
_cell_length_b                    14.253748
_cell_length_c                    10.596841
_cell_angle_alpha                 90.023507
_cell_angle_beta                  91.122056
_cell_angle_gamma                 88.627135
_cell_volume                      2233.53684679

loop_
_atom_site_label
_atom_site_type_symbol
_atom_type_description
_atom_site_fract_x
_atom_site_fract_y
_atom_site_fract_z
_atom_type_partial_charge
C1    C     C_R   0.327853 0.500692 0.502217 0.897484
C2    C     C_3   0.559992 0.586064 0.929144 -0.399403
C3    C     C_R   0.082379 0.545736 0.455265 0.012056
C4    C     C_R   0.108335 0.450325 0.646849 0.010145
C5    C     C_R   0.174754 0.545090 0.436053 -0.247825
C6    C     C_R   0.200682 0.453269 0.626466 -0.264890
C7    C     C_R   0.232842 0.501037 0.522392 -0.045136
C8    C     C_R   0.049135 0.498238 0.561539 -0.016799
C9    C     C_R   0.912565 0.416364 0.500191 -0.146449
C10   C     C_R   0.900931 0.559663 0.624331 -0.191849
C11   C     C_R   0.820084 0.419599 0.478642 -0.203387
C12   C     C_R   0.808684 0.563925 0.600967 -0.198890
C13   C     C_R   0.768732 0.495142 0.525478 -0.011515
C14   C     C_R   0.952742 0.487879 0.569867 0.141731
C15   C     C_R   0.452989 0.102541 0.419513 -0.312765
C16   C     C_R   0.428911 0.900647 0.472063 -0.306209
C17   C     C_R   0.505355 0.499970 0.258131 0.840239
C18   C     C_R   0.446050 0.200932 0.420393 0.130567
C19   C     C_R   0.426871 0.802391 0.462108 0.129785
C20   C     C_R   0.558404 0.206581 0.581919 -0.010497
C21   C     C_R   0.575775 0.790487 0.545795 -0.009657
C22   C     C_R   0.563403 0.107396 0.587691 -0.282833
C23   C     C_R   0.581382 0.889471 0.550399 -0.286203
C24   C     C_R   0.509341 0.053179 0.506204 0.131926
C25   C     C_R   0.507216 0.946797 0.511386 0.131903
C26   C     C_R   0.672589 0.498808 0.503555 0.842990
C27   C     C_R   0.504721 0.499922 0.742135 0.823011
C28   C     C_3   0.410059 0.506708 0.069829 -0.406568
C29   C     C_3   0.556729 0.409827 0.073240 -0.396949
C30   C     C_3   0.409399 0.504592 0.925510 -0.410650
C31   C     C_3   0.556015 0.409342 0.929107 -0.405694
C32   C     C_3   0.561312 0.585728 0.073681 -0.402102
C33   C     C_3   0.508423 0.500401 0.121655 0.185770
C34   C     C_3   0.507662 0.500023 0.878617 0.197800
H1    H     H_    0.376528 0.572701 0.102245 0.165175
H2    H     H_    0.627718 0.405716 0.110091 0.158264
H3    H     H_    0.789170 0.365345 0.421939 0.142580
H4    H     H_    0.768800 0.621001 0.640726 0.131445
H5    H     H_    0.412459 0.065232 0.350776 0.141746
H6    H     H_    0.368371 0.940684 0.445878 0.141047
H7    H     H_    0.600810 0.247030 0.644786 0.130483
H8    H     H_    0.633266 0.748221 0.578044 0.130948
H9    H     H_    0.608250 0.073922 0.656802 0.133032
H10   H     H_    0.643813 0.920340 0.582636 0.131585
H11   H     H_    0.370312 0.447924 0.106110 0.186974
H12   H     H_    0.522446 0.346445 0.106277 0.186251
H13   H     H_    0.371763 0.442462 0.891347 0.161398
H14   H     H_    0.520569 0.345763 0.895158 0.181821
H15   H     H_    0.373272 0.568471 0.888092 0.166830
H16   H     H_    0.626650 0.404756 0.894802 0.160857
H17   H     H_    0.530522 0.652894 0.107303 0.177024
H18   H     H_    0.632437 0.582061 0.110034 0.162966
H19   H     H_    0.527121 0.652779 0.895388 0.186009
H20   H     H_    0.630536 0.583969 0.894303 0.154416
H21   H     H_    0.201658 0.576390 0.352299 0.165256
H22   H     H_    0.247799 0.417659 0.691137 0.138143
H23   H     H_    0.953436 0.361534 0.456908 0.121407
H24   H     H_    0.932698 0.615267 0.677523 0.114663
N1    N     N_R   0.499980 0.252470 0.500000 -0.108952
N2    N     N_R   0.499980 0.747530 0.500000 -0.109600
O1    O     O_R   0.369070 0.579480 0.500010 -0.606165
O2    O     O_R   0.369070 0.420520 0.500010 -0.619082
O3    O     O_R   0.499990 0.579480 0.314790 -0.632093
O4    O     O_R   0.499990 0.420520 0.314790 -0.618361
O5    O     O_R   0.630940 0.579480 0.499990 -0.630953
O6    O     O_R   0.630940 0.420520 0.499990 -0.624475
O7    O     O_R   0.500020 0.579480 0.685200 -0.628003
O8    O     O_R   0.500020 0.420520 0.685200 -0.635922
Zn1   Zn    Zn3+2 0.500010 0.606140 0.500000 0.932590
Zn2   Zn    Zn3+2 0.500010 0.393860 0.500000 0.932311
C35   C     C_R   0.375438 0.244231 0.337696 0.163927
C36   C     C_R   0.385435 0.242615 0.206285 -0.179831
C37   C     C_R   0.314290 0.272811 0.126196 -0.161922
C38   C     C_R   0.232307 0.303851 0.176769 -0.137474
C39   C     C_R   0.220235 0.301227 0.307143 -0.162067
C40   C     C_R   0.290695 0.269027 0.387025 -0.100041
H25   H     H_    0.447496 0.215607 0.166047 0.115607
H26   H     H_    0.322810 0.272372 0.024966 0.134704
H27   H     H_    0.177716 0.328383 0.114875 0.145592
H28   H     H_    0.155967 0.322942 0.346207 0.133856
H29   H     H_    0.279352 0.263792 0.487461 0.122583
C41   C     C_R   0.345972 0.764469 0.399535 0.172227
C42   C     C_R   0.350010 0.737826 0.272228 -0.124592
C43   C     C_R   0.270490 0.728798 0.200021 -0.205708
C44   C     C_R   0.186585 0.748002 0.253779 -0.121446
C45   C     C_R   0.181962 0.773547 0.380856 -0.136913
C46   C     C_R   0.261117 0.780892 0.453818 -0.175820
H30   H     H_    0.414545 0.730504 0.226686 0.127066
H31   H     H_    0.273980 0.710329 0.101145 0.132780
H32   H     H_    0.125248 0.743038 0.197093 0.151627
H33   H     H_    0.117267 0.789652 0.422372 0.133022
H34   H     H_    0.256664 0.805104 0.550461 0.122657
C47   C     C_R   0.021946 0.591668 0.359212 0.142437
C48   C     C_R   0.018353 0.556978 0.235160 -0.173696
C49   C     C_R   0.962346 0.601202 0.144207 -0.155623
C50   C     C_R   0.909592 0.679896 0.176324 -0.122682
C51   C     C_R   0.913467 0.715277 0.299167 -0.143141
C52   C     C_R   0.969854 0.671810 0.390094 -0.143495
H35   H     H_    0.058771 0.495861 0.209125 0.124482
H36   H     H_    0.959899 0.574869 0.048632 0.121775
H37   H     H_    0.866213 0.713838 0.105776 0.119228
H38   H     H_    0.873327 0.776845 0.323711 0.125588
H39   H     H_    0.973936 0.701529 0.483941 0.112826
C53   C     C_R   0.076058 0.392317 0.752447 0.128668
C54   C     C_R   0.020304 0.431415 0.845563 -0.140331
C55   C     C_R   0.990982 0.375898 0.944909 -0.159310
C56   C     C_R   0.017958 0.281478 0.952973 -0.126360
C57   C     C_R   0.074335 0.242301 0.861752 -0.139912
C58   C     C_R   0.103325 0.297334 0.761872 -0.172384
H40   H     H_    0.000468 0.504886 0.842097 0.112575
H41   H     H_    0.947575 0.405967 0.016056 0.127663
H42   H     H_    0.995535 0.238805 0.030255 0.122785
H43   H     H_    0.095513 0.169232 0.868341 0.127782
H44   H     H_    0.146649 0.265818 0.691477 0.120543

loop_
_geom_bond_atom_site_label_1
_geom_bond_atom_site_label_2
_ccdc_geom_bond_type
C15   C18   A    
C54   H40   S    
C47   C48   A    
C56   H42   S    
C49   C50   A    
C4    C8    A    
C1    O2    A    
C51   C52   A    
O6    Zn2   S    
C44   C45   A    
C29   H2    S    
C42   C43   A    
N2    Zn1   S    
C10   H24   S    
C45   H33   S    
C17   O4    A    
C35   C40   A    
C55   C56   A    
C41   C46   A    
C29   C33   S    
C18   C35   S    
C57   C58   A    
O2    Zn2   S    
C2    C32   S    
C37   C38   A    
C11   H3    S    
C32   H18   S    
C27   O8    A    
O3    Zn1   S    
C28   H1    S    
C56   C57   A    
O4    Zn2   S    
C19   C41   S    
C39   H28   S    
C51   H38   S    
C2    C34   S    
C42   H30   S    
C46   H34   S    
C17   C33   S    
C53   C54   A    
C20   H7    S    
C55   H41   S    
C27   C34   S    
C28   H11   S    
C38   C39   A    
C30   C34   S    
C26   O6    A    
C30   H13   S    
C43   C44   A    
C21   N2    A    
C4    C6    A    
C3    C8    A    
C2    H20   S    
C5    C7    A    
C9    C14   A    
C49   H36   S    
C23   H10   S    
O7    Zn1   S    
C57   H43   S    
C39   C40   A    
C32   H17   S    
C36   H25   S    
C22   H9    S    
C37   H26   S    
C50   C51   A    
C31   C34   S    
C3    C47   S    
C24   C25   S    
C20   N1    A    
C9    C11   A    
C15   H5    S    
C10   C12   A    
C58   H44   S    
C16   H6    S    
C15   C24   A    
C30   H15   S    
C20   C22   A    
C28   C33   S    
C31   H14   S    
C21   C23   A    
C10   C14   A    
C22   C24   A    
C13   C26   S    
C43   H31   S    
C31   H16   S    
C45   C46   A    
O1    Zn1   S    
C16   C25   A    
C8    C14   S    
C1    C7    S    
C26   O5    A    
C5    H21   S    
C6    H22   S    
C36   C37   A    
C3    C5    A    
C2    H19   S    
C1    O1    A    
C40   H29   S    
C44   H32   S    
C6    C7    A    
C19   N2    A    
C54   C55   A    
C29   H12   S    
C38   H27   S    
C32   C33   S    
C28   C30   S    
C35   C36   A    
C29   C31   S    
C17   O3    A    
C11   C13   A    
C53   C58   A    
C48   H35   S    
C16   C19   A    
O5    Zn1   S    
C4    C53   S    
C9    H23   S    
C23   C25   A    
C12   H4    S    
C48   C49   A    
C27   O7    A    
N1    Zn2   S    
C21   H8    S    
C18   N1    A    
C12   C13   A    
O8    Zn2   S    
C41   C42   A    
C50   H37   S    
C47   C52   A    
C52   H39   S    
