data_mof_unit_55243.cif
_audit_creation_date              2012-12-10T17:24:42-0500
_audit_creation_method            fapswitch 2.2
_symmetry_space_group_name_H-M    P1
_symmetry_Int_Tables_number       1
_space_group_crystal_system       triclinic
_cell_length_a                    23.539108
_cell_length_b                    10.844356
_cell_length_c                    9.611478
_cell_angle_alpha                 91.803174
_cell_angle_beta                  90.277764
_cell_angle_gamma                 95.77057
_cell_volume                      2439.76699897

loop_
_atom_site_label
_atom_site_type_symbol
_atom_type_description
_atom_site_fract_x
_atom_site_fract_y
_atom_site_fract_z
_atom_type_partial_charge
C1    C     C_R   0.503236 0.263265 0.498472 0.802442
C2    C     C_R   0.963459 0.269278 0.468341 -0.140071
C3    C     C_R   0.022842 0.274646 0.466124 -0.151154
C4    C     C_R   0.056438 0.386932 0.496160 -0.008692
C5    C     C_R   0.029887 0.494931 0.529449 -0.073276
C6    C     C_R   0.063338 0.607811 0.562732 -0.126990
C7    C     C_R   0.035886 0.716094 0.591831 0.495611
C8    C     C_R   0.976101 0.709366 0.591107 -0.232954
C9    C     C_R   0.116144 0.394221 0.492552 0.641952
C10   C     C_R   0.123272 0.608485 0.563342 0.571902
C11   C     C_R   0.237141 0.541572 0.393001 0.412024
C12   C     C_R   0.390988 0.502306 0.499638 0.896194
C13   C     C_R   0.296796 0.541032 0.384196 0.196223
C14   C     C_R   0.328286 0.507317 0.501071 -0.226116
C15   C     C_R   0.299145 0.477742 0.624946 -0.347763
C16   C     C_R   0.240084 0.481540 0.634913 0.473905
C17   C     C_R   0.209020 0.509263 0.517421 0.142257
C18   C     C_R   0.761774 0.455624 0.389053 0.444336
C19   C     C_R   0.701901 0.450456 0.381738 0.171719
C20   C     C_R   0.670751 0.479542 0.502313 -0.247691
C21   C     C_R   0.699884 0.497076 0.630548 -0.263029
C22   C     C_R   0.758642 0.493985 0.639290 0.293194
C23   C     C_R   0.495902 0.737016 0.502904 0.822168
C24   C     C_R   0.790140 0.476397 0.518228 0.133702
C25   C     C_R   0.553840 0.137240 0.729357 -0.190054
C26   C     C_R   0.556675 0.086699 0.859808 -0.222099
C27   C     C_R   0.528669 0.968260 0.883815 0.561373
C28   C     C_R   0.502502 0.899801 0.770742 -0.154440
C29   C     C_R   0.505409 0.945241 0.634026 0.047905
C30   C     C_R   0.522714 0.071861 0.619634 0.084285
C31   C     C_R   0.506907 0.129746 0.497502 -0.099546
C32   C     C_R   0.485617 0.057688 0.382131 -0.176462
C33   C     C_R   0.480330 0.929632 0.387014 -0.204367
C34   C     C_R   0.608548 0.491701 0.499854 0.883171
C35   C     C_R   0.491582 0.871409 0.510805 -0.096455
C36   C     C_R   0.585173 0.646901 0.156442 -0.204488
C37   C     C_R   0.637664 0.689040 0.098150 0.466271
C38   C     C_R   0.642648 0.675553 0.956577 -0.207679
C39   C     C_R   0.595072 0.639833 0.872015 0.204703
C40   C     C_R   0.544167 0.572176 0.929239 0.136727
C41   C     C_R   0.542294 0.573145 0.079287 0.113288
C42   C     C_R   0.461101 0.426419 0.069122 0.379350
C43   C     C_R   0.460434 0.429188 0.922097 -0.074434
C44   C     C_R   0.883055 0.590931 0.553751 0.602738
C45   C     C_R   0.876686 0.373480 0.499495 0.639261
C46   C     C_R   0.936411 0.376422 0.498902 -0.022017
C47   C     C_R   0.969704 0.489668 0.529068 -0.015784
C48   C     C_R   0.942850 0.597494 0.558570 -0.092295
Cu1   Cu    Cu3+1 0.500000 0.499990 0.640660 0.978428
Cu2   Cu    Cu3+1 0.500000 0.500010 0.359340 1.027259
H1    H     H_    0.938864 0.181167 0.444792 0.188576
H2    H     H_    0.677079 0.512736 0.725732 0.221223
H3    H     H_    0.473177 0.100174 0.287710 0.206810
H4    H     H_    0.576035 0.228321 0.715698 0.181544
H5    H     H_    0.578775 0.143472 0.941542 0.165938
H6    H     H_    0.479208 0.812075 0.793522 0.188917
H7    H     H_    0.466834 0.875889 0.293594 0.212708
H8    H     H_    0.042311 0.190505 0.440790 0.169320
H9    H     H_    0.579398 0.670417 0.262170 0.196599
H10   H     H_    0.682682 0.713447 0.911761 0.224521
H11   H     H_    0.428362 0.370340 0.863512 0.167161
H12   H     H_    0.955926 0.792598 0.616593 0.205140
H13   H     H_    0.322085 0.449023 0.714321 0.203962
N1    N     N_R   0.851294 0.480008 0.525257 -0.437398
N2    N     N_R   0.148006 0.503924 0.524467 -0.424976
N3    N     N_R   0.500540 0.501210 0.147910 -0.198260
N4    N     N_R   0.500560 0.501290 0.852040 -0.210483
O1    O     O_R   0.500000 0.319640 0.618810 -0.593819
O2    O     O_2   0.844194 0.265233 0.474356 -0.489311
O3    O     O_2   0.142303 0.292633 0.457459 -0.519597
O4    O     O_2   0.156848 0.712442 0.601150 -0.510130
O5    O     O_R   0.500000 0.319660 0.381240 -0.546661
O6    O     O_R   0.417880 0.499950 0.618810 -0.599795
O7    O     O_R   0.417880 0.499980 0.381240 -0.499716
O8    O     O_R   0.500000 0.680340 0.618760 -0.555355
O9    O     O_R   0.500000 0.680360 0.381190 -0.603191
O10   O     O_R   0.582120 0.500020 0.618760 -0.561673
O11   O     O_R   0.582120 0.500050 0.381190 -0.571016
O12   O     O_2   0.856772 0.694758 0.575877 -0.515992
Br1   Br    Br    0.665705 0.392517 0.208069 -0.459328
Br2   Br    Br    0.794337 0.512253 0.819339 -0.459784
O13   O     O_3   0.523510 0.915663 0.014087 -0.594255
C49   C     C_3   0.568624 0.959291 0.105521 -0.301196
H14   H     H_    0.563326 0.054344 0.146344 0.182805
H15   H     H_    0.611080 0.954663 0.056130 0.198948
H16   H     H_    0.566809 0.898900 0.196076 0.183680
Br3   Br    Br    0.406912 0.307810 0.151919 -0.452761
O14   O     O_3   0.685553 0.747033 0.169443 -0.580571
C50   C     C_3   0.676198 0.780491 0.309696 -0.242045
H17   H     H_    0.665975 0.697700 0.372516 0.170372
H18   H     H_    0.642893 0.845537 0.319768 0.147590
H19   H     H_    0.716338 0.829449 0.353081 0.221227
Br4   Br    Br    0.608680 0.741148 0.711597 -0.555690
O15   O     O_3   0.067043 0.827619 0.628045 -0.526590
C51   C     C_3   0.067503 0.906241 0.513767 -0.205700
H20   H     H_    0.084545 0.862064 0.418641 0.146018
H21   H     H_    0.096101 0.991680 0.539350 0.219189
H22   H     H_    0.024258 0.934676 0.492761 0.132227
O16   O     O_3   0.205570 0.561012 0.275249 -0.554485
C52   C     C_3   0.200431 0.689008 0.264637 -0.218198
H23   H     H_    0.163695 0.715627 0.326309 0.171288
H24   H     H_    0.191553 0.707742 0.154252 0.185629
H25   H     H_    0.239860 0.749171 0.296361 0.180068
Br5   Br    Br    0.332053 0.590589 0.210945 -0.470572
O17   O     O_3   0.211169 0.446357 0.754704 -0.555428
C53   C     C_3   0.226530 0.534299 0.863147 -0.183941
H26   H     H_    0.221371 0.630503 0.831454 0.172284
H27   H     H_    0.270849 0.527587 0.900331 0.189153
H28   H     H_    0.197697 0.514180 0.952327 0.222960
O18   O     O_3   0.792725 0.432454 0.270921 -0.526524
C54   C     C_3   0.808915 0.546360 0.208250 -0.158202
H29   H     H_    0.832765 0.614521 0.281604 0.136608
H30   H     H_    0.771074 0.586239 0.165230 0.224075
H31   H     H_    0.837918 0.529412 0.120736 0.221573

loop_
_geom_bond_atom_site_label_1
_geom_bond_atom_site_label_2
_ccdc_geom_bond_type
Cu1   O1    S    
C12   O7    A    
C37   O14   S    
C51   H20   S    
C23   O9    A    
C36   H9    S    
C26   H5    S    
C28   H6    S    
C51   H22   S    
C7    C8    A    
C31   C32   A    
C45   C46   A    
C44   N1    A    
C5    C47   A    
C26   C27   A    
C29   C30   A    
C18   C24   A    
C36   C37   A    
Cu2   O7    S    
C34   O10   A    
C5    C6    A    
C53   H26   S    
C15   C16   A    
C1    C31   S    
C1    O1    A    
C11   O16   S    
C18   C19   A    
Cu2   O5    S    
O18   C54   S    
C39   Br4   S    
C11   C17   A    
C49   H14   S    
C16   C17   A    
C40   N4    A    
C47   C48   A    
Cu1   O8    S    
C13   C14   A    
C50   H18   S    
C20   C34   S    
C10   O4    S    
C24   N1    S    
C12   O6    A    
C36   C41   A    
C19   Br1   S    
Cu2   O11   S    
C27   O13   S    
C1    O5    A    
C45   O2    S    
C22   Br2   S    
C25   H4    S    
C39   C40   A    
C25   C26   A    
C52   H25   S    
C2    C46   A    
C13   Br5   S    
C8    C48   A    
C37   C38   A    
Cu2   O9    S    
O16   C52   S    
C30   C31   A    
C20   C21   A    
C52   H24   S    
C54   H30   S    
C9    O3    S    
C50   H19   S    
Cu2   N3    S    
C6    C7    A    
C16   O17   S    
C38   H10   S    
C40   C41   A    
C49   H15   S    
C12   C14   S    
O13   C49   S    
C23   C35   S    
C22   C24   A    
C42   C43   A    
C3    C4    A    
C32   H3    S    
C43   H11   S    
C10   N2    A    
C25   C30   A    
C7    O15   S    
C46   C47   A    
C28   C29   A    
C33   H7    S    
Cu1   N4    S    
C54   H29   S    
C44   O12   S    
C18   O18   S    
C23   O8    A    
C4    C5    A    
C6    C10   A    
C51   H21   S    
C41   N3    A    
O17   C53   S    
C29   C35   A    
C45   N1    A    
C17   N2    S    
C32   C33   A    
C19   C20   A    
C2    C3    A    
C4    C9    A    
C34   O11   A    
C11   C13   A    
C38   C39   A    
C53   H27   S    
C52   H23   S    
C33   C35   A    
Cu1   O10   S    
C54   H31   S    
Cu1   O6    S    
O15   C51   S    
C9    N2    A    
C2    H1    S    
C3    H8    S    
C49   H16   S    
O14   C50   S    
C43   N4    A    
Cu1   Cu2   S    
C27   C28   A    
C42   N3    A    
C15   H13   S    
C14   C15   A    
C42   Br3   S    
C50   H17   S    
C21   C22   A    
C21   H2    S    
C44   C48   A    
C8    H12   S    
C53   H28   S    
