data_mof_unit_62545.cif
_audit_creation_date              2012-12-10T20:15:53-0500
_audit_creation_method            fapswitch 2.2
_symmetry_space_group_name_H-M    P1
_symmetry_Int_Tables_number       1
_space_group_crystal_system       triclinic
_cell_length_a                    16.831888
_cell_length_b                    18.42309
_cell_length_c                    19.335157
_cell_angle_alpha                 90.003934
_cell_angle_beta                  89.937698
_cell_angle_gamma                 85.226494
_cell_volume                      5974.94283513

loop_
_atom_site_label
_atom_site_type_symbol
_atom_type_description
_atom_site_fract_x
_atom_site_fract_y
_atom_site_fract_z
_atom_type_partial_charge
C1    C     C_R   0.499842 0.499986 0.634383 0.872898
C2    C     C_R   0.500066 0.500012 0.365615 0.870870
C3    C     C_R   0.500375 0.565928 0.254366 -0.177859
C4    C     C_R   0.498599 0.434085 0.745601 -0.175249
C5    C     C_R   0.500254 0.565863 0.182741 -0.160162
C6    C     C_R   0.498207 0.434165 0.817231 -0.157721
C7    C     C_R   0.499901 0.499929 0.146843 0.108383
C8    C     C_R   0.498504 0.500095 0.853148 0.104175
C9    C     C_R   0.499818 0.434005 0.182780 -0.161432
C10   C     C_R   0.498936 0.566002 0.817223 -0.156445
C11   C     C_R   0.499997 0.433982 0.254408 -0.173321
C12   C     C_R   0.499288 0.566009 0.745602 -0.164448
C13   C     C_R   0.500174 0.499974 0.290516 -0.043149
C14   C     C_R   0.499272 0.500022 0.709476 -0.047906
C15   C     C_R   0.445774 0.459600 0.036050 -0.166282
C16   C     C_R   0.552527 0.540423 0.963953 -0.164941
C17   C     C_R   0.445378 0.459683 0.964416 -0.167995
C18   C     C_R   0.552915 0.540347 0.035576 -0.169681
C19   C     C_R   0.498752 0.500102 0.928255 0.099120
C20   C     C_R   0.499542 0.499937 0.071740 0.098850
C21   C     C_R   0.541813 0.270542 0.450864 0.027319
C22   C     C_R   0.556303 0.722011 0.463271 0.032233
C23   C     C_R   0.653062 0.490000 0.497567 0.877866
C24   C     C_R   0.346972 0.510000 0.502687 0.879876
C25   C     C_R   0.542181 0.194398 0.450056 -0.229181
C26   C     C_R   0.557211 0.798054 0.462936 -0.228789
C27   C     C_R   0.499583 0.158808 0.500465 0.111955
C28   C     C_R   0.499419 0.841271 0.500265 0.111185
C29   C     C_R   0.456628 0.201357 0.550774 0.131045
C30   C     C_R   0.441742 0.806372 0.537888 0.131153
C31   C     C_R   0.457745 0.277493 0.549306 -0.011387
C32   C     C_R   0.443470 0.730013 0.536947 -0.017135
C33   C     C_R   0.552163 0.034546 0.544334 -0.070227
C34   C     C_R   0.448619 0.965395 0.454842 -0.070103
C35   C     C_R   0.552641 0.957338 0.543809 -0.075204
C36   C     C_R   0.449193 0.042524 0.454454 -0.075072
C37   C     C_R   0.500271 0.922651 0.499599 -0.062898
C38   C     C_R   0.500354 0.077303 0.499716 -0.062526
C39   C     C_R   0.738384 0.484107 0.486189 -0.040453
C40   C     C_R   0.261958 0.515883 0.515657 -0.043605
C41   C     C_R   0.773548 0.542703 0.455796 -0.175950
C42   C     C_R   0.227751 0.457560 0.547493 -0.166721
C43   C     C_R   0.855264 0.539063 0.446702 -0.119130
C44   C     C_R   0.146326 0.461241 0.558438 -0.112995
C45   C     C_R   0.901930 0.477339 0.468897 0.165801
C46   C     C_R   0.098970 0.522707 0.536615 0.163025
C47   C     C_R   0.867088 0.416969 0.495445 -0.112570
C48   C     C_R   0.133019 0.582931 0.508829 -0.112235
C49   C     C_R   0.784917 0.420139 0.503719 -0.184109
C50   C     C_R   0.214927 0.579748 0.498744 -0.183246
C51   C     C_2   0.986651 0.481573 0.475952 0.043930
C52   C     C_2   0.014276 0.517824 0.530127 0.044184
H1    H     H_    0.738121 0.591785 0.440289 0.150131
H2    H     H_    0.263667 0.408624 0.562670 0.163337
H3    H     H_    0.403614 0.428891 0.063614 0.145710
H4    H     H_    0.594722 0.571107 0.936404 0.146373
H5    H     H_    0.402938 0.429018 0.937229 0.144882
H6    H     H_    0.595374 0.570997 0.062757 0.143034
H7    H     H_    0.574990 0.297772 0.412133 0.130737
H8    H     H_    0.600662 0.688909 0.434138 0.123911
H9    H     H_    0.575696 0.163347 0.410598 0.159227
H10   H     H_    0.602421 0.823121 0.433547 0.158295
H11   H     H_    0.424590 0.310480 0.587549 0.135710
H12   H     H_    0.399616 0.702864 0.565950 0.144383
H13   H     H_    0.240947 0.625596 0.475207 0.163947
H14   H     H_    0.758228 0.374143 0.526299 0.168728
H15   H     H_    0.903705 0.369439 0.513106 0.158396
H16   H     H_    0.095864 0.630235 0.491400 0.154980
H17   H     H_    0.119589 0.414510 0.579558 0.157727
H18   H     H_    0.882629 0.585871 0.426468 0.150954
H19   H     H_    0.500409 0.617493 0.281283 0.168729
H20   H     H_    0.498604 0.382524 0.718665 0.165328
H21   H     H_    0.499545 0.617209 0.155341 0.144933
H22   H     H_    0.498643 0.382830 0.844617 0.144771
H23   H     H_    0.500386 0.382650 0.155404 0.141734
H24   H     H_    0.498313 0.617358 0.844603 0.147719
H25   H     H_    0.500082 0.382429 0.281357 0.161101
H26   H     H_    0.499503 0.617549 0.718670 0.174147
N1    N     N_R   0.499990 0.310560 0.500020 -0.107364
N2    N     N_R   0.500010 0.689440 0.499980 -0.108191
O1    O     O_R   0.500000 0.439160 0.601820 -0.629150
O2    O     O_R   0.500000 0.560840 0.398180 -0.622691
O3    O     O_R   0.500030 0.560790 0.601820 -0.615743
O4    O     O_R   0.499970 0.439210 0.398180 -0.623983
O5    O     O_R   0.615780 0.432000 0.500010 -0.617200
O6    O     O_R   0.384220 0.568000 0.499990 -0.623477
O7    O     O_R   0.615820 0.553620 0.500010 -0.619573
O8    O     O_R   0.384180 0.446380 0.499990 -0.611232
Zn1   Zn    Zn3+2 0.499980 0.418790 0.500000 0.968710
Zn2   Zn    Zn3+2 0.500020 0.581210 0.500000 0.968309
I1    I     I_    0.388187 0.154179 0.628282 -0.256371
I2    I     I_    0.352808 0.865549 0.597706 -0.242678
C53   C     C_2   0.603975 0.070903 0.593652 0.979026
O9    O     O_2   0.644797 0.118570 0.573471 -0.614102
O10   O     O_R   0.605788 0.050478 0.663319 -0.760962
H27   H     H_    0.643109 0.079004 0.691709 0.355825
C54   C     C_2   0.391587 0.929431 0.410071 0.977991
O11   O     O_2   0.414713 0.876913 0.374570 -0.618754
O12   O     O_R   0.311267 0.955810 0.408761 -0.757760
H28   H     H_    0.278415 0.926953 0.376474 0.356085
C55   C     C_2   0.609921 0.912562 0.588226 0.968262
O13   O     O_2   0.586878 0.863900 0.624209 -0.591583
O14   O     O_R   0.690361 0.926352 0.588795 -0.784456
H29   H     H_    0.723369 0.892547 0.621013 0.359687
C56   C     C_2   0.397718 0.086861 0.404981 0.967383
O15   O     O_2   0.356288 0.140377 0.425164 -0.585228
O16   O     O_R   0.396744 0.067084 0.335186 -0.789837
H30   H     H_    0.359427 0.101203 0.306713 0.356515
I3    I     I_    0.940818 0.567905 0.609424 -0.333150
I4    I     I_    0.060073 0.431508 0.396589 -0.326970

loop_
_geom_bond_atom_site_label_1
_geom_bond_atom_site_label_2
_ccdc_geom_bond_type
C53   O9    D    
C27   C29   A    
C34   C37   A    
C2    O4    A    
O10   H27   S    
C4    H20   S    
C54   O11   D    
C39   C41   A    
C56   O16   S    
C55   O13   D    
C52   I3    S    
C35   C37   A    
C21   H7    S    
C22   H8    S    
C33   C35   A    
C23   C39   S    
C45   C51   S    
C27   C38   S    
C1    O1    A    
C46   C52   S    
C34   C54   S    
C15   C17   A    
C2    C13   S    
C11   H25   S    
C17   C19   A    
C10   H24   S    
C18   H6    S    
C43   H18   S    
C12   H26   S    
O16   H30   S    
C18   C20   A    
C3    C13   A    
O1    Zn1   S    
C40   C42   A    
C55   O14   S    
C23   O7    A    
C5    H21   S    
C41   C43   A    
C42   C44   A    
C47   H15   S    
C54   O12   S    
C44   C46   A    
C6    H22   S    
C45   C47   A    
C15   C20   A    
C46   C48   A    
C8    C19   S    
C49   H14   S    
C51   C52   D    
C31   H11   S    
C32   H12   S    
C4    C6    A    
O6    Zn2   S    
C5    C7    A    
O5    Zn1   S    
C6    C8    A    
C35   C55   S    
C15   H3    S    
C3    H19   S    
C16   H4    S    
C32   N2    A    
C43   C45   A    
O12   H28   S    
C21   N1    A    
C44   H17   S    
C25   H9    S    
C48   H16   S    
C48   C50   A    
C9    C11   A    
C41   H1    S    
C10   C12   A    
C30   I2    S    
C39   C49   A    
C12   C14   A    
C51   I4    S    
C23   O5    A    
C2    O2    A    
C1    O3    A    
O4    Zn1   S    
C29   I1    S    
C7    C9    A    
O3    Zn2   S    
C21   C25   A    
C36   C56   S    
C24   O8    A    
C8    C10   A    
C3    C5    A    
C33   C53   S    
C31   N1    A    
C25   C27   A    
C56   O15   D    
C26   C28   A    
C33   C38   A    
O2    Zn2   S    
C36   C38   A    
C26   H10   S    
C22   N2    A    
C29   C31   A    
C4    C14   A    
C47   C49   A    
C42   H2    S    
C30   C32   A    
C11   C13   A    
C53   O10   S    
C28   C37   S    
C16   C19   A    
C40   C50   A    
C28   C30   A    
C24   C40   S    
C34   C36   A    
N2    Zn2   S    
C50   H13   S    
N1    Zn1   S    
O8    Zn1   S    
C16   C18   A    
C7    C20   S    
C22   C26   A    
O7    Zn2   S    
O14   H29   S    
C1    C14   S    
C9    H23   S    
C24   O6    A    
C17   H5    S    
