data_mof_unit_61515.cif
_audit_creation_date              2013-03-05T15:59:58-0500
_audit_creation_method            fapswitch 2.2
_symmetry_space_group_name_H-M    P1
_symmetry_Int_Tables_number       1
_space_group_crystal_system       triclinic
_cell_length_a                    18.688199
_cell_length_b                    18.797064
_cell_length_c                    18.723444
_cell_angle_alpha                 109.72491
_cell_angle_beta                  109.385239
_cell_angle_gamma                 109.596886
_cell_volume                      5044.70720459

loop_
_atom_site_label
_atom_site_type_symbol
_atom_site_description
_atom_site_fract_x
_atom_site_fract_y
_atom_site_fract_z
_atom_type_partial_charge
O1    O     O_R   0.408340 0.551690 0.460080 -0.630956
O2    O     O_R   0.408400 0.448280 0.356690 -0.589115
C1    C     C_R   0.381397 0.501121 0.379888 0.907620
O3    O     O_R   0.591580 0.643330 0.551700 -0.636088
O4    O     O_R   0.591640 0.539920 0.448310 -0.566885
C2    C     C_R   0.622021 0.620005 0.501875 1.022044
Zn1   Zn    Zn3+2 0.499960 0.569050 0.569040 0.975568
Zn2   Zn    Zn3+2 0.500040 0.430950 0.430960 1.034757
O5    O     O_R   0.591600 0.551720 0.643310 -0.626815
O6    O     O_R   0.591660 0.448310 0.539920 -0.617705
O7    O     O_R   0.408360 0.460080 0.551690 -0.627418
O8    O     O_R   0.408420 0.356670 0.448300 -0.628182
C3    C     C_R   0.619975 0.499663 0.620511 0.908425
C4    C     C_R   0.379794 0.379771 0.500069 0.840783
C5    C     C_R   0.670458 0.741644 0.478086 0.076489
C6    C     C_R   0.689143 0.684767 0.501935 -0.203866
C7    C     C_R   0.766383 0.682313 0.510967 0.295404
C8    C     C_R   0.827946 0.745336 0.506539 -0.263553
H1    H     H_    0.889644 0.747567 0.517937 0.199015
C9    C     C_R   0.812470 0.809052 0.493560 -0.174932
C10   C     C_R   0.731147 0.802791 0.473165 0.135853
C11   C     C_3   0.710173 0.871344 0.512335 -0.250456
C12   C     C_3   0.642627 0.803194 0.517407 -0.502373
H2    H     H_    0.765977 0.927471 0.577561 0.123633
H3    H     H_    0.659496 0.819741 0.585885 0.212766
H4    H     H_    0.573076 0.780937 0.473101 0.223303
C13   C     C_R   0.230858 0.458219 0.293821 -0.198842
H5    H     H_    0.213535 0.424019 0.327250 0.133263
C14   C     C_R   0.166009 0.457452 0.230504 -0.161668
H6    H     H_    0.098817 0.422583 0.215407 0.161306
C15   C     C_R   0.188288 0.501850 0.187703 -0.060524
C16   C     C_R   0.275577 0.547426 0.208584 -0.205676
H7    H     H_    0.292062 0.581180 0.174574 0.199332
C17   C     C_R   0.341490 0.547709 0.271212 -0.034019
C18   C     C_R   0.317550 0.502337 0.313550 -0.074988
C19   C     C_R   0.322289 0.242620 0.500227 -0.178159
H8    H     H_    0.378083 0.236880 0.500202 0.147892
C20   C     C_R   0.259164 0.179471 0.501851 -0.179361
H9    H     H_    0.265657 0.124415 0.502238 0.149434
C21   C     C_R   0.186911 0.186747 0.500882 -0.012220
C22   C     C_R   0.177928 0.257308 0.499854 -0.179616
H10   H     H_    0.121934 0.262867 0.499451 0.148422
C23   C     C_R   0.242400 0.321815 0.500953 -0.182788
H11   H     H_    0.235978 0.376952 0.500726 0.144457
C24   C     C_R   0.313870 0.313763 0.500378 -0.004180
C25   C     C_R   0.746181 0.478699 0.670032 -0.096249
H12   H     H_    0.743826 0.462734 0.607733 0.194393
C26   C     C_R   0.811011 0.480295 0.734524 -0.187706
H13   H     H_    0.858390 0.465454 0.722074 0.146760
C27   C     C_R   0.813310 0.499431 0.814228 -0.006897
C28   C     C_R   0.752287 0.517948 0.830817 -0.178840
H14   H     H_    0.754674 0.532738 0.893031 0.141553
C29   C     C_R   0.689109 0.519196 0.767371 -0.187993
H15   H     H_    0.642143 0.534338 0.780416 0.155774
C30   C     C_R   0.686038 0.499336 0.686959 -0.026477
O9    O     O_R   0.051710 0.908420 0.460050 -0.623558
O10   O     O_R   0.948260 0.908480 0.356680 -0.615592
C31   C     C_R   0.999780 0.879786 0.379617 0.857057
O11   O     O_R   0.960120 0.908380 0.551680 -0.623721
O12   O     O_R   0.856660 0.908440 0.448310 -0.584071
C32   C     C_R   0.879510 0.879464 0.499312 0.896742
Zn3   Zn    Zn3+2 0.069080 0.999990 0.569020 0.975256
Zn4   Zn    Zn3+2 0.930920 0.000070 0.430980 1.001479
O13   O     O_R   0.051740 0.091590 0.643330 -0.618637
O14   O     O_R   0.948290 0.091650 0.539960 -0.620129
O15   O     O_R   0.143330 0.091630 0.551690 -0.621436
O16   O     O_R   0.039880 0.091690 0.448320 -0.622519
C33   C     C_R   0.000003 0.120075 0.620384 0.848384
C34   C     C_R   0.120419 0.120357 0.500277 0.853562
O17   O     O_R   0.948270 0.540000 0.091680 -0.622576
O18   O     O_R   0.051700 0.643420 0.091650 -0.616120
C35   C     C_R   0.999876 0.620298 0.120216 0.858794
O19   O     O_R   0.039910 0.448390 0.091720 -0.627161
O20   O     O_R   0.143340 0.551810 0.091690 -0.622755
C36   C     C_R   0.120756 0.500667 0.120883 0.876507
Zn5   Zn    Zn3+2 0.930940 0.431040 0.000110 0.971074
Zn6   Zn    Zn3+2 0.069060 0.569140 0.000070 0.985453
O21   O     O_R   0.948300 0.356760 0.908530 -0.618730
O22   O     O_R   0.051730 0.460180 0.908500 -0.620893
O23   O     O_R   0.856660 0.448370 0.908490 -0.619840
O24   O     O_R   0.960090 0.551790 0.908450 -0.613504
C37   C     C_R   0.999995 0.379830 0.879823 0.859231
C38   C     C_R   0.879669 0.500064 0.880199 0.857562
C39   C     C_R   0.999011 0.821132 0.241504 -0.177577
H16   H     H_    0.999211 0.876537 0.235467 0.147425
C40   C     C_R   0.000513 0.757893 0.178304 -0.178307
H17   H     H_    0.001058 0.763912 0.122897 0.148990
C41   C     C_R   0.999577 0.686314 0.186158 -0.013690
C42   C     C_R   0.998286 0.677872 0.257104 -0.171159
H18   H     H_    0.997871 0.622371 0.263062 0.149324
C43   C     C_R   0.999487 0.742449 0.321653 -0.168714
H19   H     H_    0.999290 0.736601 0.377238 0.152285
C44   C     C_R   0.999285 0.813451 0.313227 -0.011585
C45   C     C_R   0.920042 0.176817 0.678894 -0.175255
H20   H     H_    0.858165 0.120199 0.623823 0.154609
C46   C     C_R   0.920068 0.240318 0.743394 -0.172587
H21   H     H_    0.858167 0.233182 0.737911 0.153482
C47   C     C_R   0.000031 0.313606 0.813701 -0.017102
C48   C     C_R   0.080000 0.323297 0.820886 -0.174649
H22   H     H_    0.141886 0.380011 0.875768 0.149054
C49   C     C_R   0.080039 0.258498 0.757766 -0.176054
H23   H     H_    0.141906 0.265436 0.763311 0.147195
C50   C     C_R   0.000051 0.185997 0.686742 -0.012889
N1    N     N_R   0.786498 0.621926 0.531673 0.212703
O25   O     O_R   0.768586 0.603377 0.586749 -0.438980
O26   O     O_R   0.834059 0.595406 0.505777 -0.387421
C51   C     C_2   0.433156 0.596062 0.290326 0.859217
O27   O     O_2   0.486094 0.573824 0.316837 -0.630648
O28   O     O_R   0.458377 0.666288 0.275539 -0.798872
H24   H     H_    0.521972 0.693681 0.290409 0.365805
C52   C     C_2   0.669968 0.898696 0.450112 0.976736
O29   O     O_2   0.640432 0.946169 0.471199 -0.621676
O30   O     O_R   0.666990 0.870870 0.369294 -0.785683
H25   H     H_    0.638447 0.894032 0.333956 0.342467

loop_
_geom_bond_atom_site_label_1
_geom_bond_atom_site_label_2
_geom_bond_distance
_ccdc_geom_bond_type
Zn4   O14   2.011647 S    
C49   H23   1.083790 S    
C13   C14   1.377457 A    
O19   C36   1.280908 A    
C22   H10   1.083786 S    
C52   O29   1.222317 D    
C33   C50   1.427730 S    
N1    O26   1.301453 A    
C29   H15   1.083521 S    
Zn1   O7    2.015223 S    
O12   Zn4   2.017567 S    
C17   C51   1.489228 S    
O13   C33   1.277848 A    
C19   H8    1.083769 S    
C7    N1    1.437558 S    
Zn5   O21   2.012960 S    
C8    H1    1.083949 S    
O23   C38   1.275947 A    
O4    C2    1.274322 A    
O7    C4    1.276711 A    
C40   C41   1.397021 A    
O15   C34   1.278250 A    
C5    C6    1.390507 A    
C7    C8    1.396165 A    
C17   C18   1.411300 A    
C12   H4    1.112565 S    
C9    C32   1.426499 S    
O5    C3    1.279567 A    
Zn3   O13   2.015436 S    
O24   C38   1.276241 A    
C48   H22   1.083761 S    
C6    C7    1.414996 A    
O20   Zn6   2.018808 S    
C46   C47   1.397452 A    
C25   C30   1.400078 A    
C51   O27   1.221208 D    
Zn6   O24   2.013464 S    
C42   C43   1.381344 A    
C8    C9    1.399740 A    
C5    C12   1.494659 S    
Zn6   O22   2.013794 S    
C49   C50   1.396678 A    
C10   C11   1.497913 S    
C22   C23   1.381703 A    
O3    Zn1   2.014433 S    
N1    O25   1.300210 A    
C35   C41   1.428052 S    
C27   C38   1.423761 S    
O10   Zn4   2.015221 S    
C4    C24   1.428812 S    
C25   C26   1.380892 A    
C29   C30   1.399399 A    
C20   H9    1.083751 S    
Zn4   O16   2.012223 S    
O11   C32   1.279333 A    
O20   C36   1.279341 A    
Zn3   O15   2.017612 S    
C28   H14   1.083870 S    
C39   H16   1.083777 S    
O3    C2    1.276596 A    
C21   C34   1.429137 S    
C43   H19   1.083855 S    
C40   H17   1.083785 S    
C13   C18   1.394140 A    
O12   C32   1.275657 A    
C28   C29   1.382771 A    
C16   C17   1.387401 A    
C23   H11   1.083817 S    
C14   H6    1.083290 S    
C43   C44   1.396878 A    
O21   C37   1.277219 A    
C15   C36   1.439713 S    
C15   C16   1.400327 A    
C1    C18   1.421474 S    
Zn2   O8    2.014432 S    
O14   C33   1.277276 A    
C46   H21   1.083765 S    
C27   C28   1.395205 A    
C19   C24   1.397139 A    
C52   O30   1.398840 S    
C41   C42   1.396880 A    
C45   C46   1.381807 A    
C23   C24   1.396795 A    
C21   C22   1.397194 A    
C48   C49   1.381951 A    
O8    C4    1.276802 A    
C45   C50   1.396805 A    
C11   C52   1.506162 S    
O17   Zn5   2.013797 S    
O19   Zn5   2.013379 S    
O9    Zn3   2.011434 S    
O4    Zn2   2.015223 S    
O18   Zn6   2.012962 S    
O30   H25   1.013806 S    
O16   C34   1.277600 A    
Zn1   O5    2.017889 S    
C25   H12   1.083225 S    
C26   H13   1.083956 S    
O11   Zn3   2.012136 S    
O1    Zn1   2.014245 S    
C31   C44   1.427731 S    
O2    Zn2   2.017888 S    
Zn5   O23   2.018806 S    
C39   C40   1.381668 A    
O6    C3    1.277819 A    
O22   C37   1.277758 A    
C16   H7    1.083878 S    
C19   C20   1.382193 A    
O2    C1    1.272958 A    
O18   C35   1.277244 A    
C14   C15   1.397097 A    
O28   H24   1.013986 S    
C20   C21   1.396987 A    
O10   C31   1.277736 A    
C51   O28   1.399030 S    
C26   C27   1.393915 A    
O9    C31   1.277398 A    
C11   H2    1.113056 S    
C39   C44   1.396792 A    
C12   H3    1.112088 S    
C45   H20   1.084078 S    
C37   C47   1.429374 S    
C2    C6    1.424499 S    
C5    C10   1.371979 A    
C9    C10   1.390610 A    
Zn2   O6    2.014248 S    
C47   C48   1.397184 A    
C13   H5    1.084578 S    
C11   C12   1.523299 S    
O17   C35   1.277065 A    
O1    C1    1.274820 A    
C42   H18   1.083794 S    
C3    C30   1.436221 S    
