data_mof_unit_50446.cif
_audit_creation_date              2012-10-26T18:26:07-0400
_audit_creation_method            fapswitch 2.2
_symmetry_space_group_name_H-M    P1
_symmetry_Int_Tables_number       1
_space_group_crystal_system       triclinic
_cell_length_a                    13.862649
_cell_length_b                    8.745704
_cell_length_c                    7.52148
_cell_angle_alpha                 103.211537
_cell_angle_beta                  89.552179
_cell_angle_gamma                 94.113007
_cell_volume                      885.437769749

loop_
_atom_site_label
_atom_site_type_symbol
_atom_type_description
_atom_site_fract_x
_atom_site_fract_y
_atom_site_fract_z
_atom_type_partial_charge
C1    C     C_R   0.495348 0.200377 0.454642 0.503289
C2    C     C_1   0.868659 0.484642 0.434825 0.043957
C3    C     C_2   0.479596 0.033577 0.437754 -0.078111
C4    C     C_2   0.520404 0.966423 0.562246 -0.078111
C5    C     C_2   0.988542 0.575922 0.764966 0.596573
C6    C     C_2   0.011458 0.424080 0.235034 0.596572
C7    C     C_2   0.403846 0.950686 0.302100 0.622578
C8    C     C_2   0.596153 0.049314 0.697900 0.622579
C9    C     C_R   0.504652 0.799623 0.545358 0.503289
C10   C     C_R   0.319093 0.503353 0.530850 0.541901
C11   C     C_R   0.680907 0.496647 0.469150 0.541901
C12   C     C_1   0.782676 0.490436 0.448236 0.079692
C13   C     C_1   0.217325 0.509565 0.551764 0.079692
C14   C     C_2   0.971998 0.478045 0.422944 0.021188
C15   C     C_2   0.028002 0.521957 0.577056 0.021188
C16   C     C_1   0.131341 0.515358 0.565175 0.043957
Cu1   Cu    Cu3+1 0.510540 0.517220 0.682700 1.153311
Cu2   Cu    Cu3+1 0.489460 0.482780 0.317300 1.153312
H1    H     H_    0.876296 0.578758 0.938338 0.368716
H2    H     H_    0.123704 0.421245 0.061662 0.368716
H3    H     H_    0.317573 0.884088 0.493080 0.298201
H4    H     H_    0.682427 0.115909 0.506921 0.298201
I1    I     I_    0.363697 0.291618 0.922815 -0.080128
I2    I     I_    0.636303 0.708382 0.077185 -0.080129
N1    N     N_2   0.473570 0.456830 0.042740 -0.023866
N2    N     N_2   0.526430 0.543170 0.957260 -0.023867
O1    O     O_R   0.506850 0.286020 0.618680 -0.499005
O2    O     O_R   0.892918 0.534826 0.805817 -0.651521
O3    O     O_2   0.958451 0.345707 0.113475 -0.459730
O4    O     O_R   0.107082 0.465178 0.194183 -0.651520
O5    O     O_2   0.413024 0.953615 0.141321 -0.390581
O6    O     O_R   0.321358 0.871663 0.355984 -0.621546
O7    O     O_2   0.586974 0.046388 0.858680 -0.390581
O8    O     O_R   0.678642 0.128335 0.644017 -0.621547
O9    O     O_R   0.493150 0.713980 0.381320 -0.499005
O10   O     O_R   0.489050 0.256940 0.310110 -0.457410
O11   O     O_R   0.510950 0.743060 0.689890 -0.457411
O12   O     O_R   0.372320 0.516630 0.676100 -0.500583
O13   O     O_R   0.627680 0.483370 0.323900 -0.500583
O14   O     O_R   0.354510 0.487550 0.367530 -0.466922
O15   O     O_R   0.645490 0.512450 0.632470 -0.466922
O16   O     O_2   0.041550 0.654292 0.886525 -0.459730

loop_
_geom_bond_atom_site_label_1
_geom_bond_atom_site_label_2
_ccdc_geom_bond_type
C5    O16   D    
C6    C14   S    
C5    O2    S    
Cu2   O9    S    
C4    C8    S    
C10   O12   A    
C2    C12   T    
C9    O11   A    
Cu1   Cu2   S    
N1    N2    D    
H2    O4    S    
C11   O13   A    
H1    O2    S    
Cu2   N1    S    
C2    C14   S    
Cu1   N2    S    
C6    O4    S    
I2    N2    S    
C11   O15   A    
C3    C7    S    
Cu1   O12   S    
I1    N1    S    
H4    O8    S    
H3    O6    S    
Cu1   O15   S    
C5    C15   S    
C7    O5    D    
C9    O9    A    
C3    C4    D    
Cu1   O1    S    
C11   C12   S    
C6    O3    D    
C10   O14   A    
C13   C16   T    
C1    O1    A    
Cu2   O13   S    
Cu2   O14   S    
C14   C15   D    
Cu1   O11   S    
C7    O6    S    
C4    C9    S    
C8    O8    S    
Cu2   O10   S    
C15   C16   S    
C1    O10   A    
C8    O7    D    
C1    C3    S    
C10   C13   S    
