data_mof_unit_26905.cif
_audit_creation_date              2012-12-11T14:44:14-0500
_audit_creation_method            fapswitch 2.2
_symmetry_space_group_name_H-M    P1
_symmetry_Int_Tables_number       1
_space_group_crystal_system       triclinic
_cell_length_a                    18.908159
_cell_length_b                    11.041858
_cell_length_c                    18.875897
_cell_angle_alpha                 90.138425
_cell_angle_beta                  89.423754
_cell_angle_gamma                 90.233471
_cell_volume                      3940.68940869

loop_
_atom_site_label
_atom_site_type_symbol
_atom_type_description
_atom_site_fract_x
_atom_site_fract_y
_atom_site_fract_z
_atom_type_partial_charge
C1    C     C_R   0.731500 0.378460 0.147024 0.528140
C2    C     C_R   0.041430 0.992426 0.017950 -0.078805
C3    C     C_R   0.020112 0.773813 0.030040 0.004318
C4    C     C_R   0.485572 0.050571 0.040911 0.032472
C5    C     C_R   0.492745 0.043431 0.966790 0.002532
C6    C     C_R   0.992544 0.555372 0.036099 -0.009637
C7    C     C_R   0.002200 0.547198 0.962692 -0.013875
C8    C     C_2   0.461914 0.943615 0.083868 0.653721
C9    C     C_2   0.492006 0.920170 0.932167 0.586834
C10   C     C_2   0.967170 0.448326 0.077180 0.646370
C11   C     C_2   0.010441 0.426461 0.927617 0.604967
C12   C     C_2   0.890542 0.968262 0.551996 0.606093
C13   C     C_R   0.509856 0.487001 0.958458 -0.082295
C14   C     C_2   0.159718 0.091817 0.419992 0.685323
C15   C     C_2   0.390542 0.468261 0.552003 0.605814
C16   C     C_2   0.659618 0.591645 0.420112 0.685762
C17   C     C_2   0.606386 0.903208 0.453384 0.611035
C18   C     C_2   0.352990 0.792294 0.573568 0.591377
C19   C     C_2   0.106394 0.403180 0.453378 0.611053
C20   C     C_2   0.852998 0.292239 0.573604 0.591602
C21   C     C_2   0.869712 0.026773 0.062527 0.638837
C22   C     C_2   0.171930 0.165520 0.965009 0.561711
C23   C     C_2   0.334908 0.277684 0.103227 0.588041
C24   C     C_R   0.496428 0.491529 0.030814 -0.086191
C25   C     C_2   0.659341 0.640271 0.967294 0.573102
C26   C     C_R   0.678707 0.944942 0.025952 -0.145849
C27   C     C_R   0.292920 0.882483 0.960497 -0.122649
C28   C     C_R   0.207477 0.507713 0.024996 -0.162543
C29   C     C_R   0.798368 0.387440 0.962010 -0.135217
C30   C     C_R   0.685948 0.919170 0.954001 -0.160064
C31   C     C_R   0.288703 0.850612 0.031030 -0.137025
C32   C     C_R   0.214113 0.485998 0.953040 -0.158250
C33   C     C_R   0.270013 0.376777 0.854305 0.541051
C34   C     C_R   0.791481 0.353934 0.032216 -0.139430
C35   C     C_R   0.748378 0.946433 0.918029 -0.016318
C36   C     C_R   0.253868 0.926031 0.079047 0.040923
C37   C     C_R   0.260259 0.396670 0.929432 0.043927
C38   C     C_R   0.756857 0.429277 0.080341 0.008968
C39   C     C_R   0.800716 0.015187 0.953778 0.203375
C40   C     C_R   0.225041 0.036503 0.057272 0.272747
C41   C     C_R   0.301970 0.329895 0.978161 0.226725
C42   C     C_R   0.731167 0.541500 0.058237 0.259469
C43   C     C_R   0.800908 0.013093 0.026980 0.071557
C44   C     C_R   0.230750 0.876905 0.146446 0.534705
C45   C     C_R   0.220659 0.063032 0.984690 0.071139
C46   C     C_R   0.295489 0.352537 0.051047 0.109394
C47   C     C_R   0.720872 0.560549 0.985507 0.065458
C48   C     C_R   0.737480 0.984928 0.064115 -0.036106
C49   C     C_R   0.260110 0.987676 0.935838 -0.036350
C50   C     C_R   0.247301 0.440827 0.073439 0.012425
C51   C     C_R   0.761991 0.488609 0.936435 -0.064744
C52   C     C_R   0.446237 0.129192 0.450997 -0.084627
C53   C     C_R   0.432163 0.127045 0.523339 -0.043701
C54   C     C_R   0.946284 0.629108 0.451019 -0.083382
C55   C     C_R   0.768511 0.883380 0.851850 0.550267
C56   C     C_R   0.932205 0.626970 0.523357 -0.044117
C57   C     C_R   0.484139 0.164197 0.571620 0.089985
C58   C     C_R   0.512082 0.170001 0.427153 0.071339
C59   C     C_R   0.984162 0.664201 0.571635 0.090454
C60   C     C_R   0.012111 0.669994 0.427172 0.070871
C61   C     C_R   0.531033 0.154961 0.147094 0.518830
C62   C     C_R   0.469007 0.153601 0.853302 0.545685
C63   C     C_R   0.033409 0.655746 0.145306 0.556675
C64   C     C_R   0.969931 0.653805 0.852132 0.538230
C65   C     C_R   0.549597 0.207017 0.547867 -0.123989
C66   C     C_R   0.518043 0.375761 0.924700 -0.067167
C67   C     C_R   0.563398 0.210613 0.475369 -0.110945
C68   C     C_R   0.049603 0.707102 0.547884 -0.123785
C69   C     C_R   0.063409 0.710686 0.475386 -0.112319
C70   C     C_R   0.797770 0.024429 0.470297 0.216106
C71   C     C_R   0.193158 0.987977 0.531548 0.156944
C72   C     C_R   0.297780 0.524393 0.470291 0.215960
C73   C     C_R   0.693054 0.487661 0.531619 0.156925
C74   C     C_R   0.813497 0.976763 0.535802 0.064794
C75   C     C_R   0.201406 0.000073 0.458700 0.008219
C76   C     C_R   0.313502 0.476744 0.535799 0.064263
C77   C     C_R   0.494326 0.385048 0.070007 -0.056985
C78   C     C_R   0.701302 0.499840 0.458776 0.007754
C79   C     C_R   0.758263 0.923195 0.576847 -0.057823
C80   C     C_R   0.249919 0.925787 0.422579 -0.069939
C81   C     C_R   0.258267 0.423172 0.576842 -0.058694
C82   C     C_R   0.749864 0.425676 0.422631 -0.069537
C83   C     C_R   0.691221 0.907871 0.548854 -0.151923
C84   C     C_R   0.301910 0.865272 0.460903 -0.180053
C85   C     C_R   0.191230 0.407830 0.548845 -0.151837
C86   C     C_R   0.801878 0.365193 0.460942 -0.180052
C87   C     C_R   0.678293 0.935548 0.478378 -0.017301
C88   C     C_R   0.034217 0.870014 0.913882 -0.073798
C89   C     C_R   0.300275 0.864707 0.535047 -0.020071
C90   C     C_R   0.178305 0.435506 0.478369 -0.016862
C91   C     C_R   0.800251 0.364596 0.535089 -0.019865
C92   C     C_R   0.733198 0.992336 0.437499 -0.006456
C93   C     C_R   0.246783 0.929669 0.571342 -0.030371
C94   C     C_R   0.233210 0.492294 0.437492 -0.006045
C95   C     C_R   0.746736 0.429487 0.571394 -0.030064
C96   C     C_R   0.729628 0.014717 0.139621 0.548794
C97   C     C_R   0.270438 0.017559 0.860428 0.538109
C98   C     C_R   0.240482 0.474154 0.146471 0.605866
C99   C     C_R   0.030982 0.890691 0.060097 -0.041478
C100  C     C_R   0.770716 0.517893 0.860513 0.558454
C101  C     C_R   0.730801 0.381186 0.351676 0.542174
C102  C     C_R   0.272933 0.375176 0.646180 0.555612
C103  C     C_R   0.230815 0.881217 0.351655 0.541887
C104  C     C_R   0.772931 0.875183 0.646181 0.550111
C105  C     C_R   0.532898 0.157559 0.353728 0.521504
C106  C     C_R   0.466841 0.156828 0.646061 0.528814
C107  C     C_R   0.032927 0.657555 0.353746 0.529334
C108  C     C_R   0.966855 0.656831 0.646070 0.527271
C109  C     C_R   0.727260 0.020960 0.361886 0.573325
C110  C     C_R   0.040321 0.982502 0.945063 -0.053956
C111  C     C_R   0.257922 0.971145 0.644991 0.562665
C112  C     C_R   0.227266 0.520940 0.361886 0.571835
C113  C     C_R   0.757910 0.471097 0.645011 0.561029
C114  C     C_R   0.498081 0.153898 0.926406 -0.008813
C115  C     C_R   0.499522 0.161412 0.075743 0.003627
C116  C     C_R   0.004625 0.655302 0.922072 -0.034529
C117  C     C_R   0.008202 0.665792 0.071148 -0.021661
C118  C     C_R   0.507163 0.266112 0.962000 0.018891
C119  C     C_R   0.501736 0.270676 0.036679 0.025859
C120  C     C_R   0.019734 0.766086 0.955057 -0.011247
Cr1   Cr    Cr6+3 0.772000 0.169640 0.250110 1.076630
Cr2   Cr    Cr6+3 0.383330 0.010620 0.749160 1.094833
Cr3   Cr    Cr6+3 0.116670 0.510620 0.250840 1.140116
Cr4   Cr    Cr6+3 0.883330 0.510620 0.749160 1.094135
Cr5   Cr    Cr6+3 0.228000 0.169640 0.749890 1.080691
Cr6   Cr    Cr6+3 0.272000 0.669640 0.250110 1.076874
Cr7   Cr    Cr6+3 0.728000 0.669640 0.749890 1.088421
Cr8   Cr    Cr6+3 0.614960 0.323350 0.249260 1.070661
Cr9   Cr    Cr6+3 0.385040 0.323350 0.750740 1.068637
Cr10  Cr    Cr6+3 0.114960 0.823350 0.249260 1.069930
Cr11  Cr    Cr6+3 0.885040 0.823350 0.750740 1.081439
Cr12  Cr    Cr6+3 0.616670 0.010620 0.250840 1.136691
H1    H     H_    0.649976 0.865934 0.580926 0.199142
H2    H     H_    0.048591 0.080258 0.042176 0.198535
H3    H     H_    0.513094 0.569849 0.928129 0.165615
H4    H     H_    0.488243 0.577812 0.056887 0.185092
H5    H     H_    0.628769 0.927123 0.052424 0.192564
H6    H     H_    0.318984 0.820560 0.924293 0.193530
H7    H     H_    0.171643 0.577948 0.043161 0.114014
H8    H     H_    0.827354 0.327967 0.926663 0.210790
H9    H     H_    0.644540 0.873908 0.927070 0.224124
H10   H     H_    0.309665 0.763938 0.047338 0.156789
H11   H     H_    0.183807 0.539041 0.915976 0.155320
H12   H     H_    0.342004 0.814913 0.432619 0.201517
H13   H     H_    0.810212 0.266769 0.048458 0.192741
H14   H     H_    0.406951 0.096472 0.414122 0.120190
H15   H     H_    0.381043 0.095030 0.541954 0.112923
H16   H     H_    0.907015 0.596315 0.414149 0.122623
H17   H     H_    0.881098 0.594891 0.541971 0.113027
H18   H     H_    0.589632 0.236057 0.584950 0.100760
H19   H     H_    0.615042 0.240482 0.456881 0.097598
H20   H     H_    0.089621 0.736210 0.584968 0.100943
H21   H     H_    0.115041 0.740617 0.456897 0.097227
H22   H     H_    0.399328 0.881699 0.163023 0.339373
H23   H     H_    0.149986 0.365891 0.580916 0.199081
H24   H     H_    0.530634 0.810568 0.855294 0.350286
H25   H     H_    0.900867 0.385505 0.152900 0.344311
H26   H     H_    0.061424 0.329509 0.852367 0.365366
H27   H     H_    0.884049 0.127079 0.466945 0.359309
H28   H     H_    0.116475 0.981710 0.598943 0.337043
H29   H     H_    0.384047 0.627072 0.466947 0.359360
H30   H     H_    0.616444 0.481255 0.599101 0.337297
H31   H     H_    0.985982 0.916194 0.517316 0.331144
H32   H     H_    0.065122 0.024011 0.450584 0.323116
H33   H     H_    0.485981 0.416098 0.517385 0.331308
H34   H     H_    0.842000 0.314919 0.432646 0.201508
H35   H     H_    0.565018 0.523782 0.450622 0.323006
H36   H     H_    0.502469 0.903264 0.473489 0.375644
H37   H     H_    0.455642 0.747943 0.585021 0.385823
H38   H     H_    0.002482 0.403199 0.473504 0.375519
H39   H     H_    0.955661 0.247935 0.585018 0.385788
H40   H     H_    0.836580 0.108619 0.875224 0.337830
H41   H     H_    0.224094 0.108632 0.151704 0.354770
H42   H     H_    0.337437 0.214298 0.908183 0.318993
H43   H     H_    0.733986 0.612981 0.152654 0.347729
H44   H     H_    0.946468 0.140096 0.093353 0.345508
H45   H     H_    0.531959 0.376852 0.869026 0.141338
H46   H     H_    0.112641 0.307533 0.997449 0.371392
H47   H     H_    0.380589 0.263563 0.199101 0.343826
H48   H     H_    0.574516 0.733111 0.002293 0.353774
H49   H     H_    0.482065 0.393655 0.125757 0.172870
H50   H     H_    0.041150 0.865799 0.857020 0.140401
H51   H     H_    0.025116 0.911140 0.115441 0.194827
H52   H     H_    0.043340 0.061920 0.912129 0.197356
O1    O     O_R   0.787540 0.042690 0.170470 -0.474301
O2    O     O_R   0.454130 0.051100 0.669160 -0.485324
O3    O     O_R   0.045870 0.551100 0.330840 -0.493602
O4    O     O_R   0.954130 0.551100 0.669160 -0.486874
O5    O     O_R   0.681340 0.959300 0.325510 -0.435226
O6    O     O_R   0.318660 0.959300 0.674490 -0.467948
O7    O     O_R   0.181340 0.459300 0.325510 -0.440685
O8    O     O_R   0.818660 0.459300 0.674490 -0.469645
O9    O     O_3   0.667880 0.167870 0.250070 -0.334709
O10   O     O_3   0.332120 0.167870 0.749930 -0.316559
O11   O     O_3   0.167880 0.667870 0.250070 -0.325160
O12   O     O_R   0.212460 0.042690 0.829530 -0.470671
O13   O     O_3   0.832120 0.667870 0.749930 -0.307432
O14   O     O_R   0.765660 0.292160 0.175050 -0.535875
O15   O     O_R   0.234340 0.292160 0.824950 -0.468225
O16   O     O_R   0.265660 0.792160 0.175050 -0.522132
O17   O     O_R   0.734340 0.792160 0.824950 -0.475610
O18   O     O_R   0.670190 0.408980 0.168550 -0.475227
O19   O     O_R   0.329810 0.408980 0.831450 -0.506340
O20   O     O_R   0.170190 0.908980 0.168550 -0.500485
O21   O     O_R   0.829810 0.908980 0.831450 -0.483697
O22   O     O_R   0.556580 0.251450 0.175160 -0.519694
O23   O     O_R   0.287540 0.542690 0.170470 -0.490305
O24   O     O_R   0.443420 0.251450 0.824840 -0.517514
O25   O     O_R   0.056580 0.751450 0.175160 -0.521581
O26   O     O_R   0.943420 0.751450 0.824840 -0.507664
O27   O     O_R   0.545920 0.049510 0.170320 -0.494846
O28   O     O_R   0.454080 0.049510 0.829680 -0.468710
O29   O     O_R   0.045920 0.549510 0.170320 -0.476534
O30   O     O_R   0.954080 0.549510 0.829680 -0.484239
O31   O     O_R   0.681390 0.957840 0.176710 -0.449974
O32   O     O_R   0.318610 0.957840 0.823290 -0.490205
O33   O     O_R   0.181390 0.457840 0.176710 -0.465081
O34   O     O_R   0.712460 0.542690 0.829530 -0.457244
O35   O     O_R   0.818610 0.457840 0.823290 -0.497225
O36   O     O_R   0.787500 0.044280 0.330990 -0.405613
O37   O     O_R   0.212500 0.044280 0.669010 -0.485212
O38   O     O_R   0.287500 0.544280 0.330990 -0.405408
O39   O     O_R   0.712500 0.544280 0.669010 -0.485440
O40   O     O_R   0.765610 0.293630 0.323860 -0.505749
O41   O     O_R   0.234390 0.293630 0.676140 -0.495638
O42   O     O_R   0.265610 0.793630 0.323860 -0.505673
O43   O     O_R   0.734390 0.793630 0.676140 -0.498173
O44   O     O_R   0.670140 0.410570 0.329080 -0.490784
O45   O     O_R   0.556540 0.252920 0.323970 -0.495911
O46   O     O_R   0.329860 0.410570 0.670920 -0.457274
O47   O     O_R   0.170140 0.910570 0.329080 -0.491948
O48   O     O_R   0.829860 0.910570 0.670920 -0.462186
O49   O     O_2   0.493587 0.847597 0.080175 -0.519401
O50   O     O_R   0.407952 0.957835 0.134268 -0.650546
O51   O     O_2   0.448925 0.843290 0.950243 -0.529204
O52   O     O_R   0.537628 0.895052 0.875294 -0.699105
O53   O     O_2   0.999463 0.352774 0.074553 -0.479175
O54   O     O_R   0.910754 0.461988 0.124836 -0.688679
O55   O     O_2   0.968113 0.344545 0.938799 -0.461103
O56   O     O_R   0.443460 0.252920 0.676030 -0.497431
O57   O     O_R   0.064258 0.410898 0.877102 -0.695224
O58   O     O_3   0.847457 0.095465 0.434809 -0.655094
O59   O     O_3   0.134310 0.039713 0.562817 -0.676380
O60   O     O_3   0.347468 0.595432 0.434804 -0.655214
O61   O     O_3   0.634163 0.539230 0.562904 -0.676316
O62   O     O_2   0.916689 0.027203 0.600054 -0.467085
O63   O     O_R   0.934407 0.905716 0.504957 -0.689200
O64   O     O_2   0.190656 0.161671 0.380236 -0.437937
O65   O     O_R   0.085984 0.096117 0.424859 -0.580456
O66   O     O_2   0.416681 0.527232 0.600052 -0.466484
O67   O     O_R   0.056540 0.752920 0.323970 -0.491919
O68   O     O_R   0.434412 0.405680 0.504987 -0.689999
O69   O     O_2   0.690567 0.661574 0.380411 -0.434973
O70   O     O_R   0.585885 0.595956 0.424970 -0.580086
O71   O     O_2   0.597456 0.846169 0.398801 -0.380487
O72   O     O_R   0.548295 0.927323 0.497041 -0.690917
O73   O     O_2   0.334650 0.732493 0.625081 -0.474382
O74   O     O_R   0.423664 0.793842 0.551849 -0.700244
O75   O     O_2   0.097456 0.346177 0.398784 -0.381848
O76   O     O_R   0.048310 0.427267 0.497048 -0.691037
O77   O     O_2   0.834693 0.232472 0.625143 -0.476974
O78   O     O_R   0.943460 0.752920 0.676030 -0.499424
O79   O     O_R   0.923662 0.293802 0.551852 -0.700228
O80   O     O_3   0.855856 0.073405 0.919278 -0.636618
O81   O     O_3   0.197652 0.116690 0.106853 -0.623859
O82   O     O_3   0.348540 0.240934 0.956636 -0.690825
O83   O     O_3   0.710604 0.628923 0.106839 -0.599769
O84   O     O_2   0.890547 0.945077 0.100481 -0.506343
O85   O     O_R   0.908774 0.133504 0.055820 -0.647075
O86   O     O_2   0.148844 0.176127 0.905635 -0.521641
O87   O     O_R   0.147399 0.246764 0.016479 -0.629775
O88   O     O_2   0.349544 0.173064 0.088838 -0.465305
O89   O     O_R   0.545870 0.051100 0.330840 -0.492486
O90   O     O_R   0.354562 0.324605 0.169046 -0.699593
O91   O     O_2   0.641725 0.659082 0.906594 -0.532372
O92   O     O_R   0.616383 0.687193 0.021345 -0.625936

loop_
_geom_bond_atom_site_label_1
_geom_bond_atom_site_label_2
_ccdc_geom_bond_type
Cr11  O48   S    
C22   O87   S    
C83   C87   A    
C17   O72   S    
Cr8   O45   S    
C64   C116  S    
C12   C74   S    
C5    C114  A    
C9    O51   D    
H33   O68   S    
C72   O60   S    
C4    C115  A    
H31   O63   S    
C1    O14   A    
C86   H34   S    
C4    C8    S    
C26   H5    S    
C64   O26   A    
H41   O81   S    
Cr9   O10   S    
C21   O85   S    
C14   O65   S    
Cr4   O30   S    
Cr10  O67   S    
H46   O87   S    
C103  O42   A    
C7    C11   S    
Cr7   O39   S    
Cr12  O27   S    
C91   C95   A    
C5    C9    S    
C2    H2    S    
C96   O31   A    
C30   C35   A    
C101  O44   A    
C10   O53   D    
Cr10  O47   S    
C97   O12   A    
C64   O30   A    
Cr11  O13   S    
C63   O25   A    
C62   C114  S    
C25   O92   S    
C86   C91   A    
Cr8   O44   S    
C20   O79   S    
C111  O37   A    
C20   O77   D    
C34   H13   S    
C92   C109  S    
C104  O48   A    
C73   O61   S    
C15   O68   S    
C33   O15   A    
C11   O55   D    
H36   O72   S    
C107  O3    A    
C53   H15   S    
C61   O27   A    
Cr1   O9    S    
C65   H18   S    
C29   H8    S    
C118  C119  A    
C113  O39   A    
H29   O60   S    
C3    C117  A    
C21   O84   D    
C21   C43   S    
C16   O70   S    
Cr6   O11   S    
C82   C101  S    
C17   O71   D    
C100  O35   A    
C109  O5    A    
C68   C69   A    
C32   H11   S    
C97   O32   A    
C70   C74   A    
C77   H49   S    
C41   C46   A    
C90   C94   A    
C58   C67   A    
C62   O28   A    
C88   C120  A    
C55   O17   A    
C48   C96   S    
C43   C48   A    
C25   C47   S    
C6    C117  A    
C99   H51   S    
C26   C48   A    
C61   O22   A    
C13   C66   A    
Cr11  O78   S    
C88   C110  A    
C40   O81   S    
C24   H4    S    
C15   C76   S    
Cr3   O33   S    
Cr4   O35   S    
C110  H52   S    
C107  O67   A    
H35   O70   S    
C106  O56   A    
C87   C92   A    
C9    O52   S    
Cr7   O43   S    
C13   H3    S    
Cr3   O11   S    
C41   O82   S    
Cr6   O42   S    
C28   H7    S    
Cr8   O22   S    
Cr2   O10   S    
Cr5   O41   S    
C1    O18   A    
Cr7   O13   S    
C28   C32   A    
C62   O24   A    
C20   C91   S    
H44   O85   S    
Cr2   O6    S    
C14   O64   D    
C81   C102  S    
C103  O47   A    
C40   C45   A    
C55   O21   A    
C66   H45   S    
C54   C56   A    
C23   O88   D    
C50   C98   S    
C27   H6    S    
C18   O74   S    
C70   O58   S    
C80   C103  S    
C27   C31   A    
C80   C84   A    
C36   C40   A    
C95   C113  S    
Cr8   O9    S    
C106  O2    A    
Cr10  O11   S    
H43   O83   S    
C19   O76   S    
Cr4   O4    S    
Cr9   O24   S    
C53   C57   A    
C54   C60   A    
H47   O90   S    
C65   C67   A    
C82   C86   A    
C67   H19   S    
Cr4   O13   S    
C33   O19   A    
C35   C55   S    
C33   C37   S    
C116  C120  A    
C13   C24   A    
C89   C93   A    
H26   O57   S    
C105  O45   A    
C7    C116  A    
H40   O80   S    
C35   C39   A    
C61   C115  S    
C68   H20   S    
C75   C80   A    
C47   C51   A    
C59   C68   A    
Cr7   O17   S    
C16   O69   D    
C78   C82   A    
C88   H50   S    
C45   C49   A    
Cr6   O23   S    
C73   C78   A    
Cr9   O19   S    
H22   O50   S    
Cr11  O26   S    
C63   C117  S    
C72   C76   A    
Cr12  O31   S    
C85   H23   S    
C32   C37   A    
C63   O29   A    
C108  O78   A    
C30   H9    S    
C114  C118  A    
C60   C107  S    
C52   C58   A    
C1    C38   S    
C93   C111  S    
C101  O40   A    
C60   C69   A    
C23   C46   S    
C2    C99   A    
C10   O54   S    
C115  C119  A    
C74   C79   A    
Cr3   O29   S    
Cr9   O56   S    
C109  O36   A    
Cr12  O9    S    
C11   O57   S    
Cr1   O36   S    
Cr2   O28   S    
C79   C104  S    
C36   C44   S    
C84   C89   A    
C73   C95   A    
Cr3   O7    S    
Cr11  O21   S    
Cr3   O3    S    
Cr4   O8    S    
Cr10  O20   S    
C52   C53   A    
C104  O43   A    
C54   H16   S    
C29   C51   A    
Cr9   O46   S    
Cr6   O16   S    
C51   C100  S    
C113  O8    A    
C2    C110  A    
C52   H14   S    
H27   O58   S    
C102  O46   A    
C34   C38   A    
C18   C89   S    
C112  O38   A    
C96   O1    A    
C108  O4    A    
C70   C92   A    
C31   H10   S    
C71   C75   A    
C57   C65   A    
C4    C5    A    
C77   C119  A    
C76   C81   A    
C6    C10   S    
C39   C43   A    
C85   C90   A    
Cr6   O38   S    
C44   O16   A    
C6    C7    A    
C71   C93   A    
C15   O66   D    
Cr5   O37   S    
C12   O63   S    
C46   C50   A    
C71   O59   S    
C59   C108  S    
Cr5   O12   S    
C56   C59   A    
H42   O82   S    
C39   O80   S    
C58   C105  S    
C105  O89   A    
C14   C75   S    
H30   O61   S    
H32   O65   S    
C56   H17   S    
C72   C94   A    
C102  O41   A    
C25   O91   D    
C19   C90   S    
C8    O49   D    
C112  O7    A    
C19   O75   D    
C22   O86   D    
H37   O74   S    
Cr5   O10   S    
H24   O52   S    
Cr1   O1    S    
C12   O62   D    
Cr12  O89   S    
C29   C34   A    
C17   C87   S    
C94   C112  S    
C23   O90   S    
Cr1   O40   S    
Cr2   O32   S    
C57   C106  S    
C16   C78   S    
C42   C47   A    
C18   O73   D    
H28   O59   S    
C37   C41   A    
C98   O23   A    
C28   C50   A    
Cr1   O14   S    
C83   H1    S    
C49   C97   S    
Cr2   O2    S    
C3    C120  A    
C100  O34   A    
C79   C83   A    
C38   C42   A    
C3    C99   A    
H25   O54   S    
H39   O79   S    
C22   C45   S    
Cr5   O15   S    
C111  O6    A    
H48   O92   S    
C66   C118  A    
C98   O33   A    
C69   H21   S    
C24   C77   A    
C44   O20   A    
C84   H12   S    
C31   C36   A    
Cr10  O25   S    
H38   O76   S    
C42   O83   S    
Cr8   O18   S    
Cr12  O5    S    
C81   C85   A    
C27   C49   A    
Cr7   O34   S    
C26   C30   A    
C8    O50   S    
