data_mof_unit_5506.cif
_audit_creation_date              2012-10-26T19:51:35-0400
_audit_creation_method            fapswitch 2.2
_symmetry_space_group_name_H-M    P1
_symmetry_Int_Tables_number       1
_space_group_crystal_system       triclinic
_cell_length_a                    19.467274
_cell_length_b                    18.188134
_cell_length_c                    9.081539
_cell_angle_alpha                 89.964
_cell_angle_beta                  91.299815
_cell_angle_gamma                 90.288062
_cell_volume                      3214.66281651

loop_
_atom_site_label
_atom_site_type_symbol
_atom_type_description
_atom_site_fract_x
_atom_site_fract_y
_atom_site_fract_z
_atom_type_partial_charge
C1    C     C_R   0.367329 0.499769 0.501827 0.585308
C2    C     C_R   0.459298 0.201120 0.398678 -0.168414
C3    C     C_R   0.500000 0.838648 0.500123 -0.063841
C4    C     C_R   0.499983 0.161351 0.499895 -0.063758
C5    C     C_R   0.505053 0.961374 0.632766 -0.105293
C6    C     C_R   0.494926 0.038623 0.367252 -0.105289
C7    C     C_R   0.494950 0.961361 0.367314 -0.106475
C8    C     C_R   0.505027 0.038636 0.632705 -0.106477
C9    C     C_R   0.499968 0.078601 0.499945 0.043996
C10   C     C_R   0.500011 0.921396 0.500073 0.043994
C11   C     C_R   0.499887 0.500013 0.220456 0.554068
C12   C     C_R   0.632674 0.500233 0.498183 0.585057
C13   C     C_R   0.500113 0.499987 0.779544 0.554094
C14   C     C_1   0.499963 0.500018 0.065489 -0.066010
C15   C     C_1   0.500036 0.499982 0.934511 -0.065975
C16   C     C_R   0.744411 0.440850 0.432650 0.221515
C17   C     C_R   0.255639 0.559096 0.567762 0.221541
C18   C     C_R   0.253301 0.438314 0.449256 0.225605
C19   C     C_R   0.746683 0.561812 0.550419 0.225634
C20   C     C_R   0.816372 0.443446 0.423740 0.082399
C21   C     C_R   0.183676 0.556531 0.576647 0.082476
C22   C     C_R   0.181368 0.441502 0.439552 0.077669
C23   C     C_R   0.461269 0.720782 0.396851 0.372114
C24   C     C_R   0.818618 0.558683 0.560128 0.077656
C25   C     C_R   0.853303 0.500626 0.493280 -0.062786
C26   C     C_R   0.146716 0.499478 0.506758 -0.062798
C27   C     C_R   0.708828 0.500897 0.494048 -0.022603
C28   C     C_R   0.291184 0.499122 0.505992 -0.022464
C29   C     C_R   0.963899 0.455382 0.597562 -0.055090
C30   C     C_R   0.036125 0.544759 0.402528 -0.055066
C31   C     C_R   0.035444 0.455483 0.601675 -0.054795
C32   C     C_R   0.964580 0.544652 0.398407 -0.054791
C33   C     C_R   0.071593 0.500167 0.504137 0.071494
C34   C     C_R   0.538703 0.279216 0.603193 0.372258
C35   C     C_R   0.928429 0.499966 0.495941 0.071508
C36   C     C_3   0.709028 0.322996 0.468699 -0.054874
C37   C     C_3   0.291127 0.676988 0.532568 -0.054984
C38   C     C_3   0.287067 0.321926 0.502247 -0.043269
C39   C     C_3   0.712799 0.678068 0.496625 -0.043297
C40   C     C_3   0.433735 0.701911 0.152398 -0.116883
C41   C     C_3   0.566266 0.298019 0.847671 -0.117135
C42   C     C_3   0.568519 0.703245 0.847133 -0.093524
C43   C     C_3   0.431542 0.296739 0.152809 -0.093573
C44   C     C_R   0.538816 0.721038 0.603100 0.376752
C45   C     C_R   0.461200 0.278963 0.396872 0.376704
C46   C     C_R   0.459321 0.798554 0.398863 -0.163863
C47   C     C_R   0.540646 0.201443 0.601186 -0.163856
C48   C     C_R   0.540706 0.798882 0.601305 -0.168427
Cu1   Cu    Cu3+1 0.500000 0.573360 0.500000 1.078522
Cu2   Cu    Cu3+1 0.500000 0.426640 0.500000 1.078661
H1    H     H_    0.936110 0.420879 0.673375 0.136131
H2    H     H_    0.492126 0.067083 0.262572 0.097238
H3    H     H_    0.492164 0.932903 0.262669 0.096292
H4    H     H_    0.507812 0.067092 0.737351 0.096292
H5    H     H_    0.669247 0.282702 0.432078 0.147036
H6    H     H_    0.697133 0.339937 0.583090 0.161426
H7    H     H_    0.759241 0.294474 0.469277 0.142738
H8    H     H_    0.302940 0.660238 0.418022 0.161433
H9    H     H_    0.330999 0.717135 0.569397 0.146845
H10   H     H_    0.240967 0.705609 0.532323 0.142840
H11   H     H_    0.318576 0.338499 0.600514 0.114142
H12   H     H_    0.063916 0.579260 0.326713 0.136176
H13   H     H_    0.310305 0.271790 0.455569 0.160541
H14   H     H_    0.234440 0.306717 0.536887 0.124236
H15   H     H_    0.689444 0.728237 0.542887 0.160393
H16   H     H_    0.681356 0.661248 0.398428 0.113931
H17   H     H_    0.765409 0.693329 0.461952 0.124310
H18   H     H_    0.414828 0.657689 0.077537 0.160966
H19   H     H_    0.489744 0.708882 0.133383 0.091546
H20   H     H_    0.405416 0.752764 0.122167 0.104656
H21   H     H_    0.594704 0.247232 0.877833 0.104773
H22   H     H_    0.510274 0.290897 0.866702 0.091496
H23   H     H_    0.062709 0.420851 0.680261 0.136076
H24   H     H_    0.585081 0.342268 0.922571 0.160886
H25   H     H_    0.586418 0.658713 0.921986 0.153977
H26   H     H_    0.513012 0.712111 0.868303 0.084407
H27   H     H_    0.599000 0.753249 0.875300 0.101568
H28   H     H_    0.401040 0.246750 0.124634 0.101511
H29   H     H_    0.487050 0.287836 0.131696 0.084468
H30   H     H_    0.413683 0.341274 0.077923 0.154097
H31   H     H_    0.937315 0.579277 0.319808 0.136063
H32   H     H_    0.425284 0.827427 0.323160 0.107365
H33   H     H_    0.574667 0.172567 0.676917 0.107285
H34   H     H_    0.574758 0.828097 0.676929 0.105954
H35   H     H_    0.425256 0.171907 0.323029 0.105843
H36   H     H_    0.507855 0.932913 0.737445 0.097228
I1    I     I_    0.868675 0.363111 0.296864 -0.308437
I2    I     I_    0.131410 0.636711 0.703965 -0.308410
I3    I     I_    0.126027 0.359033 0.317400 -0.301515
I4    I     I_    0.873906 0.641380 0.681757 -0.301566
N1    N     N_R   0.500000 0.683620 0.500000 -0.202992
N2    N     N_R   0.500000 0.316380 0.500000 -0.202875
O1    O     O_R   0.400190 0.561980 0.499980 -0.450709
O2    O     O_3   0.291761 0.617007 0.631590 -0.535071
O3    O     O_3   0.286462 0.377670 0.393578 -0.491459
O4    O     O_3   0.713496 0.622529 0.605714 -0.491311
O5    O     O_3   0.420308 0.680948 0.298718 -0.547591
O6    O     O_3   0.579638 0.319056 0.701368 -0.547687
O7    O     O_3   0.579936 0.681347 0.700625 -0.493048
O8    O     O_3   0.420107 0.318657 0.299297 -0.493268
O9    O     O_R   0.599810 0.438020 0.500020 -0.450604
O10   O     O_R   0.599810 0.561980 0.500020 -0.457466
O11   O     O_R   0.400190 0.438020 0.499980 -0.457574
O12   O     O_R   0.500000 0.561940 0.288400 -0.484661
O13   O     O_R   0.500000 0.438060 0.711600 -0.484549
O14   O     O_R   0.500000 0.561940 0.711600 -0.464942
O15   O     O_R   0.500000 0.438060 0.288400 -0.464865
O16   O     O_3   0.708330 0.382798 0.369244 -0.534975

loop_
_geom_bond_atom_site_label_1
_geom_bond_atom_site_label_2
_ccdc_geom_bond_type
C7    C10   A    
C21   C26   A    
C36   O16   S    
Cu1   O14   S    
C6    C9    A    
C43   H28   S    
C32   H31   S    
C42   H25   S    
C40   H20   S    
Cu1   N1    S    
C44   O7    S    
C31   H23   S    
C20   C25   A    
C43   H29   S    
C20   I1    S    
C3    C48   A    
C2    H35   S    
C45   N2    A    
C42   H27   S    
C41   H24   S    
C46   H32   S    
C8    C9    A    
C38   O3    S    
Cu2   O13   S    
C31   C33   A    
C11   O12   A    
C47   H33   S    
C19   C27   A    
C1    O11   A    
C37   H8    S    
C41   H21   S    
C38   H11   S    
C16   C27   A    
C21   I2    S    
Cu2   O11   S    
C23   C46   A    
C18   O3    S    
C39   H15   S    
Cu1   O12   S    
C38   H14   S    
C2    C45   A    
C40   H19   S    
C12   C27   S    
C40   H18   S    
C32   C35   A    
C18   C28   A    
C24   C25   A    
C13   O13   A    
C36   H7    S    
C8    H4    S    
C40   O5    S    
C43   H30   S    
C41   O6    S    
C17   C21   A    
C48   H34   S    
C2    C4    A    
C12   O10   A    
C36   H6    S    
C1    C28   S    
C26   C33   S    
C16   C20   A    
C11   C14   S    
C43   O8    S    
C37   H9    S    
C44   N1    A    
C25   C35   S    
C41   H22   S    
C5    H36   S    
Cu2   N2    S    
C23   O5    S    
C30   H12   S    
C11   O15   A    
Cu2   O15   S    
C39   H16   S    
C23   N1    A    
C7    H3    S    
Cu1   O10   S    
C38   H13   S    
C29   H1    S    
C30   C33   A    
C18   C22   A    
C17   C28   A    
C39   H17   S    
C13   O14   A    
C45   O8    S    
C24   I4    S    
C5    C8    A    
C6    C7    A    
C34   C47   A    
C29   C35   A    
C3    C46   A    
C42   H26   S    
Cu1   O1    S    
C13   C15   S    
C19   C24   A    
C12   O9    A    
C29   C31   A    
C3    C10   S    
C42   O7    S    
C30   C32   A    
C34   O6    S    
C22   I3    S    
C37   O2    S    
C34   N2    A    
C39   O4    S    
C37   H10   S    
C16   O16   S    
C5    C10   A    
Cu2   O9    S    
C1    O1    A    
Cu1   Cu2   S    
C22   C26   A    
C36   H5    S    
C14   C15   T    
C17   O2    S    
C6    H2    S    
C4    C9    S    
C19   O4    S    
C44   C48   A    
C4    C47   A    
