data_mof_unit_61942.cif
_audit_creation_date              2012-12-10T16:51:35-0500
_audit_creation_method            fapswitch 2.2
_symmetry_space_group_name_H-M    P1
_symmetry_Int_Tables_number       1
_space_group_crystal_system       triclinic
_cell_length_a                    21.906232
_cell_length_b                    21.909044
_cell_length_c                    47.275958
_cell_angle_alpha                 88.822511
_cell_angle_beta                  90.521856
_cell_angle_gamma                 90.024203
_cell_volume                      22684.1079041

loop_
_atom_site_label
_atom_site_type_symbol
_atom_type_description
_atom_site_fract_x
_atom_site_fract_y
_atom_site_fract_z
_atom_type_partial_charge
C1    C     C_R   0.996091 0.882648 0.000399 0.842600
C2    C     C_R   0.117359 0.996131 0.000313 0.843093
C3    C     C_R   0.003923 0.117350 0.999607 0.842594
C4    C     C_R   0.882643 0.003883 0.999694 0.843002
C5    C     C_R   0.496091 0.382648 0.500399 0.842600
C6    C     C_R   0.617358 0.496131 0.500313 0.843092
C7    C     C_R   0.503923 0.617350 0.499607 0.842594
C8    C     C_R   0.382643 0.503883 0.499694 0.843002
C9    C     C_R   0.042743 0.539824 0.219789 -0.079952
C10   C     C_R   0.460222 0.037958 0.219368 -0.080151
C11   C     C_R   0.958683 0.465135 0.220202 -0.079837
C12   C     C_R   0.534913 0.953934 0.220700 -0.079664
C13   C     C_R   0.542743 0.039825 0.719789 -0.079952
C14   C     C_R   0.960218 0.537955 0.719368 -0.080150
C15   C     C_R   0.458683 0.965134 0.720202 -0.079837
C16   C     C_R   0.034916 0.453937 0.720700 -0.079663
C17   C     C_R   0.000507 0.502759 0.234926 -0.022549
C18   C     C_R   0.497525 0.996093 0.234967 -0.022544
C19   C     C_R   0.500507 0.002759 0.734926 -0.022549
C20   C     C_R   0.997525 0.496093 0.734967 -0.022544
C21   C     C_R   0.086217 0.574860 0.235159 -0.029978
C22   C     C_R   0.425381 0.081751 0.234214 -0.029640
C23   C     C_R   0.914712 0.430746 0.235867 -0.029813
C24   C     C_R   0.569504 0.910322 0.236897 -0.030138
C25   C     C_R   0.586216 0.074862 0.735159 -0.029977
C26   C     C_R   0.925374 0.581745 0.734214 -0.029640
C27   C     C_R   0.414713 0.930744 0.735867 -0.029815
C28   C     C_R   0.069511 0.410328 0.736897 -0.030138
C29   C     C_R   0.583952 0.075538 0.764728 -0.191259
C30   C     C_R   0.925199 0.580218 0.763817 -0.191406
C31   C     C_R   0.416210 0.931083 0.765457 -0.191640
C32   C     C_R   0.069675 0.412565 0.766461 -0.191465
C33   C     C_R   0.083953 0.575537 0.264728 -0.191260
C34   C     C_R   0.425206 0.080224 0.263817 -0.191407
C35   C     C_R   0.916209 0.431084 0.265457 -0.191641
C36   C     C_R   0.569668 0.912559 0.266461 -0.191466
C37   C     C_R   0.541603 0.040054 0.779749 -0.033044
C38   C     C_R   0.960980 0.538296 0.779321 -0.032904
C39   C     C_R   0.458275 0.966962 0.780118 -0.033101
C40   C     C_R   0.034082 0.455014 0.780640 -0.033213
C41   C     C_R   0.041603 0.540053 0.279749 -0.033045
C42   C     C_R   0.460983 0.038300 0.279321 -0.032905
C43   C     C_R   0.958275 0.466963 0.280118 -0.033101
C44   C     C_R   0.534078 0.955011 0.280641 -0.033213
C45   C     C_R   0.500118 0.003276 0.764903 -0.007411
C46   C     C_R   0.997507 0.496448 0.764949 -0.007408
C47   C     C_R   0.000118 0.503276 0.264903 -0.007411
C48   C     C_R   0.497507 0.996448 0.264949 -0.007407
C49   C     C_R   0.540888 0.039379 0.809526 0.548498
C50   C     C_R   0.962121 0.538326 0.809090 0.548213
C51   C     C_R   0.458549 0.968226 0.809864 0.548051
C52   C     C_R   0.033283 0.456030 0.810393 0.548330
C53   C     C_R   0.040889 0.539378 0.309526 0.548498
C54   C     C_R   0.462124 0.038329 0.309090 0.548213
C55   C     C_R   0.958549 0.468227 0.309864 0.548050
C56   C     C_R   0.533279 0.956027 0.310393 0.548331
C57   C     C_R   0.488825 0.056982 0.869251 -0.094709
C58   C     C_R   0.944390 0.487272 0.869643 -0.096209
C59   C     C_R   0.511581 0.948812 0.869757 -0.097838
C60   C     C_R   0.052579 0.509980 0.869418 -0.096272
C61   C     C_R   0.988825 0.556982 0.369251 -0.094710
C62   C     C_R   0.444389 0.987275 0.369643 -0.096210
C63   C     C_R   0.011580 0.448812 0.369757 -0.097838
C64   C     C_R   0.552580 0.009977 0.369418 -0.096272
C65   C     C_R   0.489153 0.056292 0.898826 -0.211679
C66   C     C_R   0.944739 0.488239 0.899185 -0.210691
C67   C     C_R   0.511350 0.947918 0.899296 -0.209445
C68   C     C_R   0.053133 0.510384 0.898965 -0.210399
C69   C     C_R   0.989154 0.556292 0.398826 -0.211680
C70   C     C_R   0.444739 0.988242 0.399185 -0.210689
C71   C     C_R   0.011349 0.447918 0.399296 -0.209446
C72   C     C_R   0.553133 0.010381 0.398965 -0.210400
C73   C     C_R   0.500209 0.001669 0.914152 -0.041382
C74   C     C_R   0.999178 0.499612 0.914161 -0.041450
C75   C     C_R   0.000209 0.501669 0.414152 -0.041382
C76   C     C_R   0.499178 0.999612 0.414161 -0.041451
C77   C     C_2   0.717441 0.045356 0.013355 -0.153066
C78   C     C_2   0.953934 0.717776 0.986782 -0.152253
C79   C     C_2   0.282555 0.954629 0.986663 -0.151918
C80   C     C_2   0.046052 0.282227 0.013236 -0.152645
C81   C     C_2   0.217441 0.545356 0.513355 -0.153066
C82   C     C_2   0.453934 0.217776 0.486782 -0.152254
C83   C     C_2   0.782555 0.454629 0.486663 -0.151918
C84   C     C_2   0.546052 0.782227 0.513236 -0.152645
C85   C     C_R   0.500093 0.003257 0.854509 0.338417
C86   C     C_R   0.998268 0.498235 0.854542 0.338342
C87   C     C_R   0.000093 0.503257 0.354509 0.338417
C88   C     C_R   0.498268 0.998235 0.354542 0.338344
C89   C     C_R   0.055186 0.490046 0.130749 -0.088377
C90   C     C_R   0.510549 0.051086 0.130397 -0.089933
C91   C     C_R   0.946928 0.512427 0.130192 -0.089692
C92   C     C_R   0.488137 0.942832 0.130596 -0.088144
C93   C     C_R   0.555186 0.990046 0.630749 -0.088377
C94   C     C_R   0.010546 0.551086 0.630397 -0.089934
C95   C     C_R   0.446928 0.012426 0.630192 -0.089693
C96   C     C_R   0.988140 0.442831 0.630596 -0.088146
C97   C     C_R   0.055034 0.489858 0.101187 -0.209122
C98   C     C_R   0.510757 0.052030 0.100855 -0.207434
C99   C     C_R   0.946583 0.511667 0.100662 -0.206994
C100  C     C_R   0.488914 0.943583 0.101032 -0.208681
C101  C     C_R   0.555034 0.989859 0.601187 -0.209122
C102  C     C_R   0.010754 0.552030 0.600855 -0.207435
C103  C     C_R   0.446582 0.011667 0.600662 -0.206994
C104  C     C_R   0.988917 0.443582 0.601032 -0.208681
C105  C     C_R   0.000663 0.500494 0.085839 -0.044106
C106  C     C_R   0.499979 0.998275 0.085853 -0.044095
C107  C     C_R   0.500663 0.000494 0.585839 -0.044106
C108  C     C_R   0.999979 0.498275 0.585853 -0.044095
C109  C     C_R   0.001159 0.501437 0.145475 0.332132
C110  C     C_R   0.498985 0.996569 0.145503 0.332159
C111  C     C_R   0.501159 0.001437 0.645475 0.332132
C112  C     C_R   0.998985 0.496569 0.645503 0.332161
C113  C     C_2   0.683318 0.995012 0.009003 0.015933
C114  C     C_2   0.004524 0.683608 0.991235 0.017753
C115  C     C_2   0.316690 0.004981 0.990978 0.016296
C116  C     C_2   0.995468 0.316385 0.008746 0.017070
C117  C     C_2   0.183318 0.495012 0.509003 0.015933
C118  C     C_2   0.504524 0.183608 0.491235 0.017753
C119  C     C_2   0.816690 0.504981 0.490978 0.016296
C120  C     C_2   0.495468 0.816385 0.508746 0.017070
C121  C     C_2   0.784452 0.042188 0.016602 -0.156026
C122  C     C_2   0.956930 0.784836 0.983544 -0.158930
C123  C     C_2   0.215544 0.957801 0.983416 -0.157304
C124  C     C_2   0.043059 0.215167 0.016473 -0.157241
C125  C     C_2   0.284452 0.542188 0.516602 -0.156026
C126  C     C_2   0.456930 0.284836 0.483544 -0.158930
C127  C     C_2   0.715545 0.457801 0.483416 -0.157304
C128  C     C_2   0.543059 0.715167 0.516473 -0.157241
C129  C     C_2   0.816743 0.010604 0.997972 -0.316643
C130  C     C_2   0.989261 0.816758 0.002312 -0.314547
C131  C     C_2   0.183263 0.989447 0.002026 -0.315931
C132  C     C_2   0.010787 0.183237 0.997687 -0.315232
C133  C     C_2   0.316743 0.510604 0.497972 -0.316643
C134  C     C_2   0.489261 0.316758 0.502312 -0.314547
C135  C     C_2   0.683263 0.489447 0.502026 -0.315931
C136  C     C_2   0.510787 0.683237 0.497687 -0.315232
C137  C     C_R   0.500052 0.000544 0.945432 0.799186
C138  C     C_R   0.999751 0.499975 0.945434 0.799476
C139  C     C_R   0.000052 0.500544 0.445432 0.799186
C140  C     C_R   0.499751 0.999975 0.445434 0.799476
C141  C     C_R   0.617573 0.999455 0.002310 0.830938
C142  C     C_R   0.000428 0.617641 0.997744 0.831427
C143  C     C_R   0.382429 0.000544 0.997686 0.831882
C144  C     C_R   0.999571 0.382357 0.002251 0.831147
C145  C     C_R   0.117573 0.499455 0.502310 0.830938
C146  C     C_R   0.500428 0.117641 0.497744 0.831428
C147  C     C_R   0.882429 0.500544 0.497686 0.831883
C148  C     C_R   0.499571 0.882357 0.502251 0.831147
C149  C     C_R   0.500037 0.999450 0.054571 0.800894
C150  C     C_R   0.000234 0.500068 0.054567 0.801219
C151  C     C_R   0.000037 0.499450 0.554570 0.800894
C152  C     C_R   0.500233 0.000068 0.554567 0.801219
C153  C     C_R   0.964017 0.462066 0.190475 0.557756
C154  C     C_R   0.537700 0.958741 0.190849 0.558418
C155  C     C_R   0.038222 0.541756 0.189909 0.558406
C156  C     C_R   0.458016 0.032911 0.189597 0.557752
C157  C     C_R   0.464018 0.962066 0.690475 0.557756
C158  C     C_R   0.037703 0.458743 0.690849 0.558418
C159  C     C_R   0.538221 0.041756 0.689909 0.558405
C160  C     C_R   0.958013 0.532907 0.689597 0.557752
Cu1   Cu    Cu3+1 0.000000 0.000000 0.028140 0.980303
Cu2   Cu    Cu3+1 0.500000 0.500000 0.528140 0.980304
Cu3   Cu    Cu3+1 0.000000 0.000000 0.971860 0.975753
Cu4   Cu    Cu3+1 0.500000 0.500000 0.471860 0.975753
Cu5   Cu    Cu3+1 0.500010 0.061070 0.000000 0.962379
Cu6   Cu    Cu3+1 0.938930 0.500010 0.000000 0.961467
Cu7   Cu    Cu3+1 0.499990 0.938930 0.000000 0.961650
Cu8   Cu    Cu3+1 0.061070 0.499990 0.000000 0.962446
Cu9   Cu    Cu3+1 0.000010 0.561070 0.500000 0.962379
Cu10  Cu    Cu3+1 0.438930 0.000010 0.500000 0.961467
Cu11  Cu    Cu3+1 0.999990 0.438930 0.500000 0.961649
Cu12  Cu    Cu3+1 0.561070 0.999990 0.500000 0.962445
H1    H     H_    0.696254 0.090132 0.013654 0.150777
H2    H     H_    0.909154 0.696535 0.986284 0.151134
H3    H     H_    0.303729 0.909843 0.986405 0.151398
H4    H     H_    0.090824 0.303480 0.013774 0.150851
H5    H     H_    0.196254 0.590132 0.513654 0.150777
H6    H     H_    0.409154 0.196535 0.486284 0.151134
H7    H     H_    0.803729 0.409843 0.486405 0.151398
H8    H     H_    0.590824 0.803480 0.513774 0.150851
H9    H     H_    0.097360 0.480888 0.090374 0.166145
H10   H     H_    0.519731 0.094805 0.089780 0.166617
H11   H     H_    0.904039 0.520317 0.089447 0.167371
H12   H     H_    0.480241 0.901492 0.090074 0.166825
H13   H     H_    0.597361 0.980889 0.590374 0.166145
H14   H     H_    0.019725 0.594806 0.589780 0.166618
H15   H     H_    0.404038 0.020316 0.589447 0.167371
H16   H     H_    0.980246 0.401491 0.590074 0.166826
H17   H     H_    0.806983 0.067500 0.033226 0.168616
H18   H     H_    0.931089 0.807685 0.966719 0.167466
H19   H     H_    0.193005 0.932427 0.966816 0.168404
H20   H     H_    0.068842 0.192327 0.033320 0.168035
H21   H     H_    0.306983 0.567500 0.533226 0.168616
H22   H     H_    0.431089 0.307685 0.466719 0.167466
H23   H     H_    0.693005 0.432427 0.466815 0.168404
H24   H     H_    0.568842 0.692327 0.533320 0.168035
H25   H     H_    0.793920 0.991543 0.979630 0.172532
H26   H     H_    0.008965 0.793641 0.020814 0.174522
H27   H     H_    0.206093 0.008570 0.020351 0.173628
H28   H     H_    0.991142 0.206346 0.979170 0.173548
H29   H     H_    0.293920 0.491543 0.479630 0.172532
H30   H     H_    0.508965 0.293641 0.520814 0.174522
H31   H     H_    0.706093 0.508571 0.520351 0.173628
H32   H     H_    0.491142 0.706346 0.479170 0.173549
H33   H     H_    0.617199 0.102541 0.776118 0.210461
H34   H     H_    0.898353 0.613714 0.774809 0.210274
H35   H     H_    0.382658 0.904482 0.777087 0.210565
H36   H     H_    0.096444 0.379295 0.778493 0.210749
H37   H     H_    0.117201 0.602539 0.276118 0.210461
H38   H     H_    0.398363 0.113722 0.274809 0.210274
H39   H     H_    0.882657 0.404484 0.277087 0.210565
H40   H     H_    0.596434 0.879287 0.278493 0.210749
H41   H     H_    0.479529 0.099281 0.857769 0.154402
H42   H     H_    0.902197 0.477777 0.858461 0.154209
H43   H     H_    0.520776 0.907083 0.858677 0.153451
H44   H     H_    0.094432 0.518943 0.858049 0.153778
H45   H     H_    0.979530 0.599281 0.357769 0.154402
H46   H     H_    0.402196 0.977783 0.358461 0.154208
H47   H     H_    0.020775 0.407083 0.358677 0.153450
H48   H     H_    0.594433 0.018937 0.358049 0.153777
H49   H     H_    0.480189 0.098368 0.909670 0.164045
H50   H     H_    0.902508 0.479513 0.910290 0.165116
H51   H     H_    0.520324 0.905195 0.910487 0.165346
H52   H     H_    0.095718 0.519554 0.909887 0.164362
H53   H     H_    0.980191 0.598368 0.409670 0.164045
H54   H     H_    0.402506 0.979518 0.410289 0.165116
H55   H     H_    0.020323 0.405195 0.410487 0.165346
H56   H     H_    0.595719 0.019549 0.409887 0.164363
H57   H     H_    0.097331 0.481108 0.142241 0.161739
H58   H     H_    0.519433 0.092839 0.141592 0.161284
H59   H     H_    0.904949 0.521682 0.141236 0.161752
H60   H     H_    0.478806 0.900463 0.141942 0.162134
H61   H     H_    0.597331 0.981110 0.642241 0.161739
H62   H     H_    0.019427 0.592840 0.641592 0.161282
H63   H     H_    0.404949 0.021681 0.641236 0.161752
H64   H     H_    0.978812 0.400462 0.641942 0.162133
N1    N     N_R   0.001242 0.501694 0.176012 -0.467813
N2    N     N_R   0.498119 0.995917 0.176041 -0.467812
N3    N     N_R   0.501242 0.001694 0.676012 -0.467813
N4    N     N_R   0.998119 0.495917 0.676041 -0.467812
N5    N     N_R   0.499713 0.003817 0.823999 -0.467602
N6    N     N_R   0.997841 0.497480 0.824044 -0.467592
N7    N     N_R   0.999713 0.503818 0.323999 -0.467602
N8    N     N_R   0.497841 0.997480 0.324044 -0.467592
O1    O     O_R   0.999970 0.911020 0.023770 -0.581542
O2    O     O_R   0.088980 0.999970 0.023770 -0.585537
O3    O     O_R   0.000030 0.088980 0.023770 -0.579383
O4    O     O_R   0.911020 0.000030 0.023770 -0.575561
O5    O     O_R   0.499970 0.411020 0.523770 -0.581542
O6    O     O_R   0.588980 0.499970 0.523770 -0.585537
O7    O     O_R   0.500030 0.588980 0.523770 -0.579383
O8    O     O_R   0.411020 0.500030 0.523770 -0.575561
O9    O     O_R   0.000000 0.911030 0.976240 -0.580433
O10   O     O_R   0.088970 1.000000 0.976240 -0.576537
O11   O     O_R   0.000000 0.088970 0.976240 -0.582663
O12   O     O_R   0.911030 1.000000 0.976240 -0.586822
O13   O     O_R   0.500000 0.411030 0.476240 -0.580433
O14   O     O_R   0.588970 0.500000 0.476240 -0.576537
O15   O     O_R   0.500000 0.588970 0.476240 -0.582663
O16   O     O_R   0.411030 0.500000 0.476240 -0.586822
O17   O     O_R   0.500030 0.051590 0.958940 -0.586566
O18   O     O_R   0.948410 0.500030 0.958940 -0.586637
O19   O     O_R   0.499970 0.948410 0.958940 -0.586373
O20   O     O_R   0.051590 0.499970 0.958940 -0.586166
O21   O     O_R   0.000030 0.551590 0.458940 -0.586566
O22   O     O_R   0.448410 0.000030 0.458940 -0.586638
O23   O     O_R   0.999970 0.448410 0.458940 -0.586373
O24   O     O_R   0.551590 0.999970 0.458940 -0.586166
O25   O     O_R   0.589030 0.051570 0.000000 -0.595475
O26   O     O_R   0.948430 0.589030 0.000000 -0.595894
O27   O     O_R   0.410970 0.948430 0.000000 -0.595660
O28   O     O_R   0.051570 0.410970 0.000000 -0.595285
O29   O     O_R   0.089030 0.551570 0.500000 -0.595475
O30   O     O_R   0.448430 0.089030 0.500000 -0.595894
O31   O     O_R   0.910970 0.448430 0.500000 -0.595660
O32   O     O_R   0.551570 0.910970 0.500000 -0.595285
O33   O     O_R   0.589020 0.948510 0.000000 -0.576706
O34   O     O_R   0.051490 0.589020 0.000000 -0.575855
O35   O     O_R   0.410980 0.051490 0.000000 -0.575786
O36   O     O_R   0.948510 0.410980 0.000000 -0.576601
O37   O     O_R   0.089020 0.448510 0.500000 -0.576707
O38   O     O_R   0.551490 0.089020 0.500000 -0.575855
O39   O     O_R   0.910980 0.551490 0.500000 -0.575787
O40   O     O_R   0.448510 0.910980 0.500000 -0.576601
O41   O     O_R   0.499980 0.051580 0.041060 -0.585325
O42   O     O_R   0.948420 0.499980 0.041060 -0.586004
O43   O     O_R   0.500020 0.948420 0.041060 -0.586226
O44   O     O_R   0.051580 0.500020 0.041060 -0.585486
O45   O     O_R   0.999980 0.551580 0.541060 -0.585326
O46   O     O_R   0.448420 0.999980 0.541060 -0.586004
O47   O     O_R   0.000020 0.448420 0.541060 -0.586227
O48   O     O_R   0.551580 0.000020 0.541060 -0.585486
O49   O     O_2   0.933930 0.418759 0.176050 -0.502312
O50   O     O_2   0.580787 0.928320 0.176632 -0.502367
O51   O     O_2   0.068777 0.584431 0.174737 -0.502061
O52   O     O_2   0.415132 0.063101 0.174210 -0.501997
O53   O     O_2   0.433932 0.918758 0.676050 -0.502312
O54   O     O_2   0.080793 0.428326 0.676632 -0.502368
O55   O     O_2   0.568776 0.084432 0.674737 -0.502060
O56   O     O_2   0.915127 0.563095 0.674210 -0.501997
O57   O     O_2   0.581622 0.073370 0.823893 -0.531122
O58   O     O_2   0.928359 0.579422 0.822964 -0.531570
O59   O     O_2   0.417547 0.934561 0.824536 -0.531238
O60   O     O_2   0.067184 0.415423 0.825556 -0.530817
O61   O     O_2   0.081623 0.573369 0.323893 -0.531121
O62   O     O_2   0.428365 0.079427 0.322964 -0.531569
O63   O     O_2   0.917546 0.434562 0.324536 -0.531238
O64   O     O_2   0.567178 0.915418 0.325555 -0.530817
C161  C     C_3   0.708897 0.930838 0.013692 -0.794634
H65   H     H_    0.677205 0.903096 0.026904 0.238071
H66   H     H_    0.714318 0.908460 0.993010 0.224927
H67   H     H_    0.752939 0.929675 0.025411 0.247982
C162  C     C_3   0.068472 0.709462 0.986856 -0.799301
H68   H     H_    0.095683 0.678278 0.973700 0.234834
H69   H     H_    0.069073 0.753879 0.975217 0.245736
H70   H     H_    0.091761 0.714249 0.007646 0.229170
C163  C     C_3   0.291132 0.069145 0.986232 -0.797253
H71   H     H_    0.322838 0.096820 0.972996 0.235077
H72   H     H_    0.247089 0.070274 0.974513 0.247298
H73   H     H_    0.285718 0.091612 0.006893 0.227887
C164  C     C_3   0.931509 0.290512 0.013071 -0.796580
H74   H     H_    0.904232 0.321684 0.026204 0.237890
H75   H     H_    0.908303 0.285720 0.992262 0.226281
H76   H     H_    0.930875 0.246097 0.024711 0.246435
C165  C     C_3   0.208897 0.430838 0.513692 -0.794635
H77   H     H_    0.177205 0.403096 0.526904 0.238071
H78   H     H_    0.214318 0.408460 0.493010 0.224927
H79   H     H_    0.252939 0.429675 0.525411 0.247983
C166  C     C_3   0.568472 0.209462 0.486856 -0.799300
H80   H     H_    0.595683 0.178278 0.473700 0.234834
H81   H     H_    0.569073 0.253879 0.475217 0.245736
H82   H     H_    0.591761 0.214249 0.507646 0.229170
C167  C     C_3   0.791132 0.569145 0.486231 -0.797253
H83   H     H_    0.822838 0.596820 0.472996 0.235077
H84   H     H_    0.747089 0.570274 0.474513 0.247298
H85   H     H_    0.785718 0.591612 0.506893 0.227887
C168  C     C_3   0.431509 0.790512 0.513071 -0.796579
H86   H     H_    0.404232 0.821684 0.526204 0.237890
H87   H     H_    0.408303 0.785720 0.492262 0.226281
H88   H     H_    0.430875 0.746097 0.524711 0.246435
C169  C     C_2   0.137965 0.607832 0.221856 0.930233
O65   O     O_2   0.170462 0.582094 0.204909 -0.546931
O66   O     O_R   0.151641 0.667303 0.230017 -0.747348
H89   H     H_    0.188579 0.684699 0.219903 0.345809
C170  C     C_2   0.392153 0.133144 0.220231 0.930028
O67   O     O_2   0.417644 0.165385 0.202517 -0.547878
O68   O     O_R   0.332735 0.146809 0.228587 -0.747488
H90   H     H_    0.315148 0.183501 0.217944 0.345447
C171  C     C_2   0.863227 0.397444 0.222712 0.930230
O69   O     O_2   0.831332 0.422619 0.204595 -0.547643
O70   O     O_R   0.849084 0.338362 0.232285 -0.747860
H91   H     H_    0.812380 0.320705 0.222108 0.345541
C172  C     C_2   0.602557 0.858517 0.224422 0.930419
O71   O     O_2   0.577137 0.826319 0.207068 -0.546690
O72   O     O_R   0.661699 0.844449 0.233806 -0.747733
H92   H     H_    0.679170 0.807514 0.224158 0.345867
C173  C     C_2   0.637963 0.107835 0.721856 0.930234
O73   O     O_2   0.670461 0.082097 0.704909 -0.546932
O74   O     O_R   0.651638 0.167306 0.730017 -0.747348
H93   H     H_    0.688575 0.184703 0.719903 0.345808
C174  C     C_2   0.892141 0.633135 0.720231 0.930028
O75   O     O_2   0.917629 0.665379 0.702517 -0.547878
O76   O     O_R   0.832722 0.646795 0.728587 -0.747487
H94   H     H_    0.815132 0.683485 0.717944 0.345447
C175  C     C_2   0.363228 0.897442 0.722712 0.930229
O77   O     O_2   0.331333 0.922617 0.704595 -0.547643
O78   O     O_R   0.349086 0.838360 0.732285 -0.747860
H95   H     H_    0.312383 0.820703 0.722109 0.345542
C176  C     C_2   0.102569 0.358525 0.724422 0.930419
O79   O     O_2   0.077151 0.326325 0.707068 -0.546690
O80   O     O_R   0.161712 0.344462 0.733806 -0.747732
H96   H     H_    0.179187 0.307529 0.724158 0.345867

loop_
_geom_bond_atom_site_label_1
_geom_bond_atom_site_label_2
_ccdc_geom_bond_type
C101  C107  A    
C173  O73   D    
Cu9   Cu11  S    
C7    O15   A    
C34   C42   A    
C104  C108  A    
C66   H50   S    
C168  H86   S    
Cu8   O34   S    
C152  O48   A    
C167  H83   S    
C40   C46   A    
C102  H14   S    
C159  O55   S    
C122  C130  D    
C61   H45   S    
C59   H43   S    
C21   C33   A    
C92   H60   S    
C81   C117  D    
C30   C38   A    
C63   H47   S    
C84   H8    S    
C80   C116  D    
Cu11  O23   S    
Cu6   O36   S    
C97   C105  A    
C161  H66   S    
C149  O43   A    
C25   C173  S    
C114  C162  S    
C104  H16   S    
C2    O10   A    
Cu1   Cu3   S    
Cu2   Cu4   S    
C25   C29   A    
C6    O6    A    
C16   C158  A    
C28   C32   A    
C103  H15   S    
Cu1   O4    S    
C93   C101  A    
C60   C86   A    
C94   H62   S    
C135  H31   S    
C62   C88   A    
C113  C161  S    
Cu3   O10   S    
C142  O26   A    
C31   H35   S    
C127  H23   S    
C108  C151  S    
C74   C138  S    
C15   C27   A    
O72   H92   S    
C125  H21   S    
C16   C20   A    
C172  O72   S    
C82   H6    S    
C2    C131  S    
C14   C26   A    
C67   H51   S    
C27   C175  S    
C147  O39   A    
Cu5   O25   S    
C36   H40   S    
C58   H42   S    
C63   C71   A    
C120  C148  S    
C96   C104  A    
C36   C44   A    
C82   C118  D    
C37   C45   A    
C168  H88   S    
C167  H85   S    
C139  O23   A    
C154  O50   S    
C152  O46   A    
C70   H54   S    
C12   C154  A    
C146  O30   A    
C49   N5    A    
C100  C106  A    
C98   C106  A    
C61   C69   A    
Cu12  O24   S    
C1    O1    A    
C175  O77   D    
C51   O59   S    
C44   C56   A    
C9    C21   A    
C73   C137  S    
C10   C18   A    
C11   C23   A    
C57   C85   A    
Cu6   O18   S    
C21   C169  S    
Cu11  O31   S    
C126  C134  D    
C164  H74   S    
C91   H59   S    
O74   H93   S    
C103  C107  A    
C157  O53   S    
C55   O63   S    
C147  O31   A    
C44   C48   A    
C84   C128  S    
C39   C51   A    
C171  O69   D    
C119  C167  S    
C79   C115  D    
C131  H27   S    
O70   H91   S    
C145  O37   A    
C62   C70   A    
C6    C135  S    
C143  O27   A    
C144  O28   A    
C121  H17   S    
C162  H69   S    
C83   C119  D    
C66   C74   A    
C132  H28   S    
C29   H33   S    
C124  C132  D    
C163  H72   S    
Cu5   O41   S    
C165  H78   S    
C34   H38   S    
C59   C67   A    
C116  C144  S    
C158  O54   S    
C112  N4    S    
C148  O32   A    
C32   H36   S    
C35   C43   A    
Cu7   O33   S    
C99   H11   S    
C39   C45   A    
C56   N8    A    
Cu5   Cu7   S    
Cu4   O13   S    
Cu6   Cu8   S    
C166  H81   S    
C68   H52   S    
C150  O44   A    
C101  H13   S    
C116  C164  S    
C58   C86   A    
C95   C103  A    
C169  O66   S    
C22   C34   A    
C42   C48   A    
Cu12  O48   S    
C7    O7    A    
Cu9   O39   S    
C53   O61   S    
C8    O16   A    
Cu10  O40   S    
C59   C85   A    
Cu1   O1    S    
Cu2   O7    S    
Cu9   O45   S    
C164  H76   S    
C57   C65   A    
C5    O13   A    
C41   C47   A    
Cu7   O19   S    
Cu3   O11   S    
Cu8   O20   S    
C41   C53   A    
C43   C55   A    
C138  O20   A    
C26   C30   A    
C163  H73   S    
C140  O22   A    
Cu12  O32   S    
C8    O8    A    
C81   C125  S    
C17   C47   A    
C57   H41   S    
C18   C48   A    
C19   C45   A    
C12   C24   A    
Cu9   O21   S    
C83   H7    S    
C49   O57   S    
C60   H44   S    
C81   H5    S    
C7    C136  S    
C75   C139  S    
C156  N2    A    
C43   C47   A    
C26   C174  S    
C94   C112  A    
C113  C141  S    
C129  H25   S    
C38   C46   A    
C118  C166  S    
C77   C121  S    
C11   C153  A    
C117  C165  S    
C9    C155  A    
Cu4   O15   S    
C4    O12   A    
C90   H58   S    
C150  O42   A    
C91   C99   A    
C13   C159  A    
C20   C46   A    
C176  O80   S    
C137  O17   A    
C53   N7    A    
C50   O58   S    
C142  O34   A    
C65   H49   S    
C172  O71   D    
C78   C114  D    
C10   C22   A    
C15   C19   A    
C105  C150  S    
C174  O76   S    
C55   N7    A    
C127  C135  D    
Cu1   O3    S    
Cu2   O5    S    
C128  C136  D    
C77   C113  D    
C119  C147  S    
O80   H96   S    
C117  C145  S    
Cu3   O9    S    
C89   C97   A    
C82   C126  S    
Cu7   O43   S    
Cu8   O44   S    
C138  O18   A    
O76   H94   S    
C140  O24   A    
C67   C73   A    
C141  O25   A    
C170  O68   S    
C160  N4    A    
C146  O38   A    
C173  O74   S    
C133  H29   S    
C51   N5    A    
C3    O3    A    
C168  H87   S    
C1    O9    A    
C122  H18   S    
C167  H84   S    
C13   C19   A    
C3    C132  S    
C14   C20   A    
Cu9   O29   S    
Cu6   O42   S    
C1    C130  S    
C83   C127  S    
O68   H90   S    
C93   H61   S    
C161  H65   S    
C27   C31   A    
C155  O51   S    
C98   H10   S    
C5    O5    A    
C37   C49   A    
C126  H22   S    
C84   C120  D    
C110  N2    S    
C24   C36   A    
C93   C111  A    
C137  O19   A    
C23   C35   A    
C123  H19   S    
C115  C163  S    
C114  C142  S    
C124  H20   S    
C80   C124  S    
C154  N2    A    
C11   C17   A    
C77   H1    S    
C123  C131  D    
C121  C129  D    
C69   H53   S    
C88   N8    S    
Cu10  O46   S    
C4    C129  S    
C6    O14   A    
C33   C41   A    
Cu8   O28   S    
C2    O2    A    
C42   C54   A    
C162  H68   S    
Cu10  Cu12  S    
C69   C75   A    
C151  O47   A    
C165  H77   S    
C100  H12   S    
C155  N1    A    
C60   C68   A    
C72   H56   S    
C29   C37   A    
C159  N3    A    
C68   C74   A    
C64   C88   A    
C16   C28   A    
O66   H89   S    
Cu4   O14   S    
Cu10  O22   S    
C166  H80   S    
C52   O60   S    
O78   H95   S    
C72   C76   A    
C92   C110  A    
C169  O65   D    
C96   C112  A    
C54   O62   S    
C62   H46   S    
Cu7   O27   S    
C15   C157  A    
C52   N6    A    
C175  O78   S    
C30   H34   S    
C89   C109  A    
C65   C73   A    
C35   H39   S    
C4    O4    A    
Cu2   O8    S    
C33   H37   S    
C58   C66   A    
C164  H75   S    
C130  H26   S    
C102  C108  A    
C61   C87   A    
C86   N6    S    
Cu12  O38   S    
C32   C40   A    
C171  O70   S    
C106  C149  S    
Cu6   O26   S    
C13   C25   A    
C163  H71   S    
C95   H63   S    
Cu5   O35   S    
C85   N5    S    
C22   C170  S    
C157  N3    A    
C134  H30   S    
C76   C140  S    
C5    C134  S    
C99   C105  A    
C115  C143  S    
C28   C176  S    
C64   H48   S    
C79   H3    S    
C118  C146  S    
C80   H4    S    
C56   O64   S    
C10   C156  A    
C120  C168  S    
C162  H70   S    
C153  O49   S    
C40   C52   A    
C79   C123  S    
C111  N3    S    
C71   H55   S    
C14   C160  A    
C151  O45   A    
C54   N8    A    
C165  H79   S    
C145  O29   A    
C87   N7    S    
C143  O35   A    
C96   H64   S    
C144  O36   A    
C107  C152  S    
C9    C17   A    
Cu4   O16   S    
C70   C76   A    
C166  H82   S    
Cu5   O17   S    
C90   C110  A    
Cu10  O30   S    
C136  H32   S    
C92   C100  A    
C176  O79   D    
C161  H67   S    
C125  C133  D    
C148  O40   A    
C63   C87   A    
C8    C133  S    
C149  O41   A    
C128  H24   S    
C156  O52   S    
C50   N6    A    
C97   H9    S    
C38   C50   A    
C109  N1    S    
C174  O75   D    
C153  N1    A    
C91   C109  A    
C160  O56   S    
C141  O33   A    
Cu1   O2    S    
Cu2   O6    S    
C95   C111  A    
C71   C75   A    
C31   C39   A    
C64   C72   A    
C139  O21   A    
Cu3   O12   S    
C78   C122  S    
C3    O11   A    
C24   C172  S    
C12   C18   A    
C78   H2    S    
C89   H57   S    
C170  O67   D    
Cu11  O37   S    
C90   C98   A    
C23   C171  S    
C94   C102  A    
C158  N4    A    
Cu11  O47   S    
