data_mof_unit_67814.cif
_audit_creation_date              2012-12-10T16:53:59-0500
_audit_creation_method            fapswitch 2.2
_symmetry_space_group_name_H-M    P1
_symmetry_Int_Tables_number       1
_space_group_crystal_system       triclinic
_cell_length_a                    7.919967
_cell_length_b                    8.791327
_cell_length_c                    10.775169
_cell_angle_alpha                 93.456781
_cell_angle_beta                  82.976936
_cell_angle_gamma                 94.009525
_cell_volume                      741.776130063

loop_
_atom_site_label
_atom_site_type_symbol
_atom_type_description
_atom_site_fract_x
_atom_site_fract_y
_atom_site_fract_z
_atom_type_partial_charge
C1    C     C_R   0.545005 0.792589 0.490565 0.851018
C2    C     C_3   0.415734 0.660055 0.951233 0.550872
C3    C     C_3   0.466070 0.672414 0.087877 -0.132951
C4    C     C_3   0.391072 0.359699 0.938805 0.260106
C5    C     C_3   0.680579 0.503012 0.915162 -0.555016
C6    C     C_3   0.492238 0.506950 0.883101 0.057637
C7    C     C_3   0.136746 0.708213 0.882697 0.132426
C8    C     C_3   0.149665 0.881165 0.873774 -0.402818
C9    C     C_3   0.242176 0.924475 0.747054 -0.862097
C10   C     C_3   0.786769 0.008396 0.611010 0.071597
C11   C     C_3   0.817163 0.171059 0.662389 -0.272929
C12   C     C_3   0.507674 0.510912 0.124343 0.089823
C13   C     C_3   0.944651 0.189850 0.754622 -1.047979
C14   C     C_3   0.943983 0.299438 0.294016 0.198662
C15   C     C_3   0.002678 0.143986 0.241421 -0.378131
C16   C     C_3   0.892203 0.074431 0.143388 -1.026297
C17   C     C_3   0.378770 0.381498 0.083234 -0.460767
C18   C     C_3   0.686196 0.483113 0.054857 -0.491343
C19   C     C_2   0.569318 0.954927 0.488472 0.302436
C20   C     C_2   0.436108 0.042042 0.477660 -0.217009
C21   C     C_R   0.497728 0.502905 0.743341 0.857950
C22   C     C_R   0.455642 0.205800 0.496619 0.909943
C23   C     C_R   0.503598 0.505401 0.259230 0.885096
H1    H     H_    0.724317 0.367524 0.071396 0.192928
H2    H     H_    0.144671 0.645540 0.791534 0.181884
H3    H     H_    0.019190 0.921622 0.881211 0.183418
H4    H     H_    0.208738 0.938062 0.953499 0.226103
H5    H     H_    0.353417 0.857589 0.717748 0.284899
H6    H     H_    0.288879 0.045831 0.748836 0.254796
H7    H     H_    0.154460 0.899268 0.675219 0.244219
H8    H     H_    0.408353 0.126474 0.927829 0.169731
H9    H     H_    0.592206 0.214811 0.939195 0.185916
H10   H     H_    0.906159 0.948034 0.599683 0.160372
H11   H     H_    0.694521 0.945749 0.679610 0.096844
H12   H     H_    0.402481 0.272596 0.124058 0.129257
H13   H     H_    0.870332 0.240695 0.584534 0.301251
H14   H     H_    0.694672 0.214294 0.704537 0.240413
H15   H     H_    0.895514 0.131940 0.841305 0.262205
H16   H     H_    0.971821 0.313080 0.775272 0.275910
H17   H     H_    0.065232 0.148118 0.709258 0.303051
H18   H     H_    0.177319 0.021869 0.492965 0.207107
H19   H     H_    0.276452 0.013549 0.345977 0.175046
H20   H     H_    0.963311 0.382987 0.219418 0.110429
H21   H     H_    0.808095 0.281342 0.324558 0.218287
H22   H     H_    0.137291 0.155181 0.199027 0.195936
H23   H     H_    0.987360 0.622039 0.593075 0.125617
H24   H     H_    0.993320 0.064959 0.318784 0.270356
H25   H     H_    0.756196 0.062486 0.183681 0.275038
H26   H     H_    0.933886 0.959187 0.111367 0.271500
H27   H     H_    0.904644 0.147472 0.062039 0.249782
H28   H     H_    0.486085 0.892570 0.949592 0.162170
H29   H     H_    0.614798 0.789193 0.850874 0.114029
H30   H     H_    0.222933 0.680795 0.188656 0.257055
H31   H     H_    0.316086 0.852545 0.147947 0.177046
H32   H     H_    0.131694 0.406390 0.949583 0.212880
H33   H     H_    0.168877 0.227715 0.922843 0.184639
H34   H     H_    0.585230 0.747833 0.089954 0.122371
H35   H     H_    0.248494 0.410148 0.123462 0.193118
H36   H     H_    0.746863 0.410137 0.862418 0.232830
H37   H     H_    0.755474 0.607498 0.886333 0.165270
H38   H     H_    0.785201 0.565836 0.089332 0.197640
H39   H     H_    0.004550 0.680267 0.922294 0.106020
N1    N     N_2   0.950330 0.457950 0.465890 0.068666
N2    N     N_2   0.049670 0.542050 0.534110 -0.095111
N3    N     N_3   0.482514 0.221570 0.896047 -0.486783
N4    N     N_3   0.279949 0.976894 0.435898 -0.438480
N5    N     N_3   0.487659 0.797341 0.886938 -0.482946
N6    N     N_3   0.338712 0.746295 0.179075 -0.431931
N7    N     N_3   0.219254 0.336508 0.899104 -0.442524
O1    O     O_R   0.389250 0.738570 0.508370 -0.623442
O2    O     O_3   0.734571 0.016143 0.490779 -0.642051
O3    O     O_3   0.037031 0.351752 0.392946 -0.539265
O4    O     O_R   0.678390 0.711620 0.486510 -0.624248
O5    O     O_R   0.355430 0.513500 0.696140 -0.619883
O6    O     O_R   0.644580 0.486550 0.674270 -0.667116
O7    O     O_R   0.321610 0.288380 0.513490 -0.572313
O8    O     O_R   0.610750 0.261430 0.491630 -0.624678
O9    O     O_R   0.355420 0.513450 0.325730 -0.571386
O10   O     O_R   0.644570 0.486500 0.303860 -0.685870
O11   O     O_3   0.233561 0.651475 0.969372 -0.677105
Zn1   Zn    Zn3+2 0.306940 0.517990 0.514600 0.988416
Zn2   Zn    Zn3+2 0.693060 0.482010 0.485400 0.930460

loop_
_geom_bond_atom_site_label_1
_geom_bond_atom_site_label_2
_ccdc_geom_bond_type
C8    H3    S    
C19   O2    S    
C19   C20   D    
C15   H24   S    
C16   H25   S    
C7    C8    S    
C12   C23   S    
C18   H1    S    
C20   N4    S    
C11   H13   S    
C16   H27   S    
C5    C6    S    
H31   N6    S    
C15   C16   S    
C11   H14   S    
O1    Zn1   S    
C13   H17   S    
C3    C12   S    
C3    N6    S    
C8    C9    S    
C12   C17   S    
C22   O7    A    
C9    H6    S    
C17   H35   S    
C10   O2    S    
C14   H20   S    
C2    C6    S    
C4    N7    S    
H30   N6    S    
C1    C19   S    
C5    H36   S    
N1    Zn2   S    
C16   H26   S    
C10   H11   S    
C2    N5    S    
C5    C18   S    
C6    C21   S    
C21   O5    A    
H23   N2    S    
C7    H39   S    
O6    Zn2   S    
H28   N5    S    
C13   H15   S    
H32   N7    S    
H29   N5    S    
C9    H7    S    
C4    C17   S    
C3    H34   S    
C4    C6    S    
C20   C22   S    
C15   H22   S    
O5    Zn1   S    
O4    Zn2   S    
C14   H21   S    
H8    N3    S    
C5    H37   S    
C14   O3    S    
C22   O8    A    
O7    Zn1   S    
O10   Zn2   S    
C18   H38   S    
H18   N4    S    
C21   O6    A    
C1    O1    A    
C7    H2    S    
C1    O4    A    
C2    C3    S    
C11   C13   S    
O9    Zn1   S    
C4    N3    S    
O8    Zn2   S    
C10   H10   S    
C23   O9    A    
N2    Zn1   S    
C13   H16   S    
C2    O11   S    
C10   C11   S    
N1    N2    D    
N1    O3    S    
H33   N7    S    
C12   C18   S    
H19   N4    S    
C8    H4    S    
C14   C15   S    
H9    N3    S    
C17   H12   S    
C23   O10   A    
C9    H5    S    
C7    O11   S    
