data_mof_unit_51684.cif
_audit_creation_date              2012-12-11T14:41:13-0500
_audit_creation_method            fapswitch 2.2
_symmetry_space_group_name_H-M    P1
_symmetry_Int_Tables_number       1
_space_group_crystal_system       triclinic
_cell_length_a                    24.62942
_cell_length_b                    17.438255
_cell_length_c                    15.535237
_cell_angle_alpha                 90.009203
_cell_angle_beta                  129.354624
_cell_angle_gamma                 89.986688
_cell_volume                      5159.25688901

loop_
_atom_site_label
_atom_site_type_symbol
_atom_type_description
_atom_site_fract_x
_atom_site_fract_y
_atom_site_fract_z
_atom_type_partial_charge
C1    C     C_R   0.346974 0.364018 0.229179 -0.124214
C2    C     C_R   0.346936 0.635946 0.229090 -0.124742
C3    C     C_R   0.846975 0.864018 0.229179 -0.123976
C4    C     C_R   0.846946 0.135961 0.229124 -0.124019
C5    C     C_R   0.645602 0.367421 0.858820 -0.047833
C6    C     C_R   0.645599 0.632581 0.858826 -0.047687
C7    C     C_R   0.145610 0.867444 0.858840 -0.050407
C8    C     C_R   0.145608 0.132563 0.858841 -0.047395
C9    C     C_R   0.682902 0.378832 0.501917 -0.004683
C10   C     C_R   0.682853 0.621297 0.501930 -0.004607
C11   C     C_R   0.183009 0.879204 0.501793 0.004046
C12   C     C_R   0.182852 0.121298 0.501930 -0.004419
C13   C     C_R   0.355655 0.321295 0.503091 0.027440
C14   C     C_R   0.355914 0.679084 0.502935 0.026749
C15   C     C_R   0.855652 0.821298 0.503092 0.027331
C16   C     C_R   0.855765 0.178839 0.503076 0.026912
C17   C     C_3   0.355189 0.221638 0.617755 -0.399262
C18   C     C_3   0.355899 0.780390 0.616403 -0.398591
C19   C     C_3   0.855185 0.721648 0.617761 -0.399277
C20   C     C_3   0.855320 0.278651 0.617637 -0.399431
C21   C     C_3   0.807332 0.665024 0.616609 -0.367788
C22   C     C_3   0.807443 0.335283 0.616475 -0.367634
C23   C     C_3   0.307334 0.165015 0.616602 -0.368328
C24   C     C_3   0.307926 0.836906 0.615324 -0.380099
C25   C     C_3   0.251544 0.309086 0.485367 -0.409086
C26   C     C_3   0.252893 0.691285 0.488146 -0.502357
C27   C     C_3   0.751537 0.809087 0.485355 -0.406189
C28   C     C_3   0.751751 0.191046 0.485602 -0.405879
C29   C     C_3   0.283418 0.203902 0.411299 -0.397861
C30   C     C_3   0.282256 0.795483 0.409232 -0.394684
C31   C     C_3   0.783423 0.703900 0.411308 -0.398030
C32   C     C_3   0.783375 0.296148 0.411114 -0.398529
C33   C     C_3   0.312857 0.264527 0.504646 0.302835
C34   C     C_3   0.313139 0.736009 0.504420 0.337873
C35   C     C_3   0.812855 0.764530 0.504647 0.301089
C36   C     C_3   0.812960 0.235626 0.504625 0.301628
C37   C     C_3   0.731347 0.670734 0.503899 0.283058
C38   C     C_3   0.731419 0.329415 0.503881 0.283077
C39   C     C_3   0.231347 0.170733 0.503898 0.285310
C40   C     C_3   0.231602 0.829930 0.503622 0.314703
C41   C     C_3   0.703494 0.754249 0.485710 0.411681
C42   C     C_3   0.703701 0.245875 0.485987 0.411453
C43   C     C_3   0.203501 0.254250 0.485724 0.412606
C44   C     C_3   0.204648 0.746349 0.487929 0.417207
C45   C     C_R   0.666196 0.388812 0.797137 -0.124561
C46   C     C_R   0.666191 0.611184 0.797132 -0.124601
C47   C     C_R   0.166201 0.888829 0.797152 -0.114828
C48   C     C_R   0.166194 0.111176 0.797139 -0.125870
C49   C     C_3   0.734042 0.648892 0.409695 -0.495424
C50   C     C_3   0.733961 0.351135 0.409489 -0.495234
C51   C     C_3   0.234035 0.148896 0.409686 -0.496707
C52   C     C_3   0.233060 0.850672 0.407847 -0.515393
C53   C     C_2   0.691484 0.335462 0.972464 0.498095
C54   C     C_2   0.691490 0.664545 0.972472 0.498086
C55   C     C_2   0.191493 0.835489 0.972488 0.497978
C56   C     C_2   0.191500 0.164521 0.972492 0.497583
C57   C     C_2   0.761365 0.341782 0.034254 -0.211776
C58   C     C_2   0.761373 0.658241 0.034227 -0.212240
C59   C     C_2   0.261373 0.841791 0.034265 -0.211606
C60   C     C_2   0.261383 0.158230 0.034238 -0.211730
C61   C     C_2   0.353332 0.747742 0.131889 -0.256225
C62   C     C_2   0.353382 0.252210 0.131965 -0.256345
C63   C     C_2   0.853341 0.247757 0.131918 -0.256387
C64   C     C_2   0.853383 0.752208 0.131968 -0.256016
C65   C     C_2   0.306977 0.790579 0.128328 -0.037214
C66   C     C_2   0.306991 0.209418 0.128332 -0.037227
C67   C     C_2   0.806974 0.290585 0.128334 -0.038103
C68   C     C_2   0.806985 0.709424 0.128326 -0.037440
C69   C     C_R   0.615045 0.394928 0.408500 -0.175571
C70   C     C_R   0.615019 0.605139 0.408502 -0.175608
C71   C     C_R   0.115090 0.895186 0.408454 -0.164518
C72   C     C_R   0.115018 0.105141 0.408502 -0.178646
C73   C     C_R   0.410120 0.361665 0.595028 -0.135561
C74   C     C_R   0.410213 0.638540 0.594926 -0.135268
C75   C     C_R   0.910119 0.861666 0.595028 -0.133340
C76   C     C_R   0.910181 0.138415 0.595015 -0.134809
C77   C     C_R   0.688923 0.396728 0.593628 -0.079970
C78   C     C_R   0.688898 0.603335 0.593641 -0.080122
C79   C     C_R   0.188937 0.896728 0.593546 -0.019092
C80   C     C_R   0.188898 0.103335 0.593640 -0.087057
C81   C     C_R   0.332008 0.362582 0.409163 -0.147588
C82   C     C_R   0.332121 0.637536 0.409111 -0.146458
C83   C     C_R   0.832006 0.862584 0.409163 -0.146457
C84   C     C_R   0.832077 0.137498 0.409160 -0.147190
C85   C     C_R   0.576478 0.390547 0.800051 -0.132376
C86   C     C_R   0.576477 0.609461 0.800057 -0.132619
C87   C     C_R   0.076481 0.890559 0.800060 -0.132242
C88   C     C_R   0.076486 0.109444 0.800073 -0.132878
C89   C     C_R   0.440518 0.361372 0.235173 -0.141940
C90   C     C_R   0.440493 0.638595 0.235129 -0.142031
C91   C     C_R   0.940524 0.861370 0.235182 -0.134821
C92   C     C_R   0.940497 0.138603 0.235144 -0.141757
C93   C     C_R   0.379764 0.322839 0.196916 0.150301
C94   C     C_R   0.379717 0.677114 0.196827 0.150200
C95   C     C_R   0.879767 0.822837 0.196920 0.149510
C96   C     C_R   0.879727 0.177129 0.196861 0.150473
H1    H     H_    0.294888 0.354359 0.201403 0.107656
H2    H     H_    0.294828 0.645592 0.201245 0.107716
H3    H     H_    0.794889 0.854360 0.201402 0.107814
H4    H     H_    0.794844 0.145613 0.201304 0.107896
H5    H     H_    0.400469 0.190715 0.634157 0.160918
H6    H     H_    0.400328 0.811632 0.630488 0.159549
H7    H     H_    0.900469 0.690727 0.634172 0.160907
H8    H     H_    0.900528 0.309586 0.633850 0.160629
H9    H     H_    0.827741 0.605590 0.629482 0.144631
H10   H     H_    0.827755 0.394734 0.629117 0.144625
H11   H     H_    0.327739 0.105579 0.629464 0.144236
H12   H     H_    0.327601 0.896512 0.626430 0.142800
H13   H     H_    0.308995 0.179494 0.687888 0.181734
H14   H     H_    0.310513 0.823160 0.687673 0.183692
H15   H     H_    0.808987 0.679508 0.687888 0.181522
H16   H     H_    0.809216 0.320910 0.687890 0.181465
H17   H     H_    0.272657 0.353754 0.550924 0.193901
H18   H     H_    0.275088 0.647807 0.555462 0.190777
H19   H     H_    0.772645 0.853758 0.550907 0.195245
H20   H     H_    0.772967 0.146444 0.551267 0.195256
H21   H     H_    0.753629 0.731374 0.328147 0.166941
H22   H     H_    0.753564 0.268588 0.328006 0.166995
H23   H     H_    0.253624 0.231380 0.328141 0.166933
H24   H     H_    0.251909 0.767044 0.326652 0.167395
H25   H     H_    0.327330 0.171078 0.425810 0.173071
H26   H     H_    0.325446 0.828313 0.421505 0.170943
H27   H     H_    0.827338 0.671079 0.425827 0.173082
H28   H     H_    0.827212 0.328999 0.425458 0.172844
H29   H     H_    0.752679 0.588772 0.420730 0.182949
H30   H     H_    0.752485 0.411276 0.420298 0.182950
H31   H     H_    0.252667 0.088774 0.420710 0.182728
H32   H     H_    0.251192 0.910840 0.417224 0.183765
H33   H     H_    0.681125 0.652789 0.326679 0.164180
H34   H     H_    0.681017 0.347107 0.326543 0.164164
H35   H     H_    0.181118 0.152798 0.326673 0.164387
H36   H     H_    0.179870 0.846007 0.325455 0.166179
H37   H     H_    0.220062 0.339633 0.403968 0.114795
H38   H     H_    0.221202 0.659462 0.407772 0.129808
H39   H     H_    0.720056 0.839630 0.403954 0.115410
H40   H     H_    0.720246 0.160416 0.404264 0.115416
H41   H     H_    0.718352 0.386860 0.822340 0.086918
H42   H     H_    0.718342 0.613130 0.822321 0.086864
H43   H     H_    0.218358 0.886885 0.822356 0.085835
H44   H     H_    0.218345 0.113120 0.822325 0.086991
H45   H     H_    0.649938 0.758506 0.402630 0.017409
H46   H     H_    0.650110 0.241512 0.402988 0.017430
H47   H     H_    0.149943 0.258512 0.402647 0.016763
H48   H     H_    0.150719 0.741958 0.405722 0.026753
H49   H     H_    0.293479 0.777379 0.181099 0.161524
H50   H     H_    0.293477 0.222634 0.181084 0.161622
H51   H     H_    0.793469 0.277385 0.181097 0.161637
H52   H     H_    0.793469 0.722642 0.181075 0.161724
H53   H     H_    0.784676 0.374107 0.005320 0.088357
H54   H     H_    0.784683 0.625923 0.005269 0.088374
H55   H     H_    0.284685 0.874105 0.005324 0.088367
H56   H     H_    0.284693 0.125922 0.005272 0.088567
H57   H     H_    0.366917 0.760818 0.079174 0.141425
H58   H     H_    0.366984 0.239114 0.079272 0.141292
H59   H     H_    0.866931 0.260833 0.079210 0.141384
H60   H     H_    0.866987 0.739110 0.079278 0.140954
H61   H     H_    0.593164 0.392371 0.322432 0.095946
H62   H     H_    0.593145 0.607717 0.322438 0.095900
H63   H     H_    0.093173 0.892846 0.322361 0.091220
H64   H     H_    0.093145 0.107718 0.322438 0.096483
H65   H     H_    0.437387 0.350417 0.681859 0.091950
H66   H     H_    0.437397 0.649849 0.681719 0.091449
H67   H     H_    0.937387 0.850419 0.681861 0.091704
H68   H     H_    0.937449 0.149687 0.681841 0.092050
H69   H     H_    0.735217 0.396813 0.680271 0.082308
H70   H     H_    0.735193 0.603252 0.680284 0.082204
H71   H     H_    0.235235 0.896654 0.680188 0.067757
H72   H     H_    0.235193 0.103253 0.680283 0.083165
H73   H     H_    0.283703 0.354276 0.325874 0.092466
H74   H     H_    0.283781 0.645715 0.325841 0.092239
H75   H     H_    0.783702 0.854276 0.325873 0.092404
H76   H     H_    0.783771 0.145816 0.325878 0.092629
H77   H     H_    0.548114 0.392865 0.831759 0.091178
H78   H     H_    0.548107 0.607163 0.831757 0.091192
H79   H     H_    0.048115 0.892880 0.831765 0.091404
H80   H     H_    0.048129 0.107127 0.831793 0.091470
H81   H     H_    0.476913 0.346286 0.221192 0.097515
H82   H     H_    0.476885 0.653669 0.221148 0.097470
H83   H     H_    0.976932 0.846281 0.221226 0.097091
H84   H     H_    0.976888 0.153678 0.221160 0.097560
H85   H     H_    0.376072 0.262412 0.687404 0.159489
H86   H     H_    0.378076 0.740589 0.687484 0.158851
H87   H     H_    0.876063 0.762426 0.687404 0.159676
H88   H     H_    0.876312 0.237965 0.687411 0.159742
N1    N     N_R   0.389430 0.421450 0.294590 -0.045765
N2    N     N_R   0.389430 0.578550 0.294590 -0.045785
N3    N     N_R   0.889430 0.921450 0.294590 -0.045807
N4    N     N_R   0.889430 0.078550 0.294590 -0.045990
N5    N     N_R   0.612200 0.424040 0.705410 -0.035576
N6    N     N_R   0.612200 0.575960 0.705410 -0.035589
N7    N     N_R   0.112200 0.924040 0.705410 -0.035656
N8    N     N_R   0.112200 0.075960 0.705410 -0.036140
N9    N     N_R   0.581780 0.422390 0.443390 -0.032443
N10   N     N_R   0.581780 0.577610 0.443390 -0.032428
N11   N     N_R   0.081780 0.922390 0.443390 -0.033006
N12   N     N_R   0.081780 0.077610 0.443390 -0.033288
N13   N     N_R   0.419850 0.423100 0.556610 -0.038539
N14   N     N_R   0.419850 0.576900 0.556610 -0.038514
N15   N     N_R   0.919850 0.923100 0.556610 -0.038517
N16   N     N_R   0.919850 0.076900 0.556610 -0.038659
N17   N     N_R   0.627410 0.423100 0.556610 -0.042059
N18   N     N_R   0.627410 0.576900 0.556610 -0.042031
N19   N     N_R   0.127410 0.923100 0.556610 -0.044651
N20   N     N_R   0.127410 0.076900 0.556610 -0.043526
N21   N     N_R   0.374220 0.422390 0.443390 -0.036790
N22   N     N_R   0.374220 0.577610 0.443390 -0.036899
N23   N     N_R   0.874220 0.922390 0.443390 -0.036735
N24   N     N_R   0.874220 0.077610 0.443390 -0.036931
N25   N     N_R   0.555000 0.424040 0.705410 -0.033361
N26   N     N_R   0.555000 0.575960 0.705410 -0.033421
N27   N     N_R   0.055000 0.924040 0.705410 -0.033206
N28   N     N_R   0.055000 0.075960 0.705410 -0.033635
N29   N     N_R   0.446630 0.421450 0.294590 -0.043126
N30   N     N_R   0.446630 0.578550 0.294590 -0.043089
N31   N     N_R   0.946630 0.921450 0.294590 -0.043388
N32   N     N_R   0.946630 0.078550 0.294590 -0.043391
Ni1   Ni    Ni4+2 0.382890 0.500000 0.370170 0.216571
Ni2   Ni    Ni4+2 0.882890 1.000000 0.370170 0.217825
Ni3   Ni    Ni4+2 0.618740 0.500000 0.629830 0.204731
Ni4   Ni    Ni4+2 0.118740 1.000000 0.629830 0.205760
Ni5   Ni    Ni4+2 0.514090 0.500000 0.370170 0.213700
Ni6   Ni    Ni4+2 0.014090 1.000000 0.370170 0.214200
Ni7   Ni    Ni4+2 0.487550 0.500000 0.629830 0.211398
Ni8   Ni    Ni4+2 0.987550 1.000000 0.629830 0.212628
O1    O     O_3   0.700908 0.776243 0.570356 -0.757500
H89   H     H_    0.652484 0.766229 0.542506 0.317554
O2    O     O_3   0.701274 0.223982 0.570823 -0.757529
H90   H     H_    0.652841 0.233859 0.543030 0.317590
O3    O     O_3   0.200923 0.276240 0.570379 -0.759170
H91   H     H_    0.152498 0.266232 0.542533 0.317252
O4    O     O_3   0.202201 0.726399 0.573243 -0.760117
H92   H     H_    0.171276 0.680753 0.546857 0.315161
O5    O     O_3   0.664079 0.293362 0.012648 -0.773605
H93   H     H_    0.612790 0.287818 0.952695 0.308145
O6    O     O_3   0.664087 0.706631 0.012694 -0.773650
H94   H     H_    0.612791 0.712160 0.952766 0.308123
O7    O     O_3   0.164088 0.793405 0.012685 -0.773598
H95   H     H_    0.112798 0.787866 0.952739 0.308222
O8    O     O_3   0.164097 0.206594 0.012724 -0.773792
H96   H     H_    0.112801 0.212120 0.952800 0.308066

loop_
_geom_bond_atom_site_label_1
_geom_bond_atom_site_label_2
_ccdc_geom_bond_type
C39   C51   S    
C82   H74   S    
C37   C41   S    
C55   C59   D    
N14   N22   A    
C32   H28   S    
C56   O8    S    
C43   H47   S    
O8    H96   S    
C17   H85   S    
C16   C84   A    
C56   C60   D    
N6    Ni3   S    
C25   C43   S    
C90   H82   S    
C52   H32   S    
C26   C44   S    
C84   N24   A    
C42   O2    S    
C2    H2    S    
C13   C33   S    
C29   H23   S    
C14   C82   A    
N21   Ni1   S    
C17   C23   S    
N1    Ni1   S    
N19   Ni4   S    
N20   Ni4   S    
C10   C37   S    
C18   C24   S    
C14   C74   A    
C81   N21   A    
C19   C21   S    
C44   O4    S    
C46   N6    A    
C38   C42   S    
C64   C68   D    
C18   H6    S    
C11   C71   A    
N11   N19   A    
C18   H86   S    
C77   H69   S    
C2    N2    A    
C22   C38   S    
C29   C33   S    
C92   C96   A    
N9    N17   A    
C10   C70   A    
C75   H67   S    
C60   H56   S    
C83   N23   A    
C87   H79   S    
C19   C35   S    
C17   H5    S    
N13   Ni7   S    
N8    N28   A    
C73   H65   S    
C75   N15   A    
C50   H34   S    
C4    C96   A    
C19   H7    S    
C26   C34   S    
C7    C87   A    
C8    C88   A    
C30   H26   S    
N1    N29   A    
C73   N13   A    
C42   H46   S    
C85   H77   S    
O6    H94   S    
C24   H12   S    
C89   H81   S    
N12   N20   A    
C92   H84   S    
O5    H93   S    
C78   N18   A    
C68   H52   S    
C70   N10   A    
C20   H88   S    
C5    C85   A    
N9    Ni5   S    
C32   C36   S    
C12   C72   A    
C60   C66   S    
N16   N24   A    
C16   C76   A    
O7    H95   S    
C89   C93   A    
C77   N17   A    
C8    C56   S    
C31   C49   S    
C17   C33   S    
C54   O6    S    
C6    C54   S    
C16   C36   S    
C15   C35   S    
C21   H15   S    
C90   C94   A    
C41   O1    S    
N22   Ni1   S    
N24   Ni2   S    
C90   N30   A    
C23   H13   S    
N2    Ni1   S    
N3    N31   A    
C25   H37   S    
C78   H70   S    
C28   H20   S    
C62   C66   D    
N16   Ni8   S    
C74   N14   A    
C80   H72   S    
C2    C94   A    
C24   H14   S    
N17   Ni3   S    
N15   N23   A    
C76   N16   A    
C1    H1    S    
C74   H66   S    
C30   C34   S    
C61   C94   S    
C39   C43   S    
N13   N21   A    
C27   C35   S    
C72   N12   A    
C40   C52   S    
C5    C45   A    
C63   C96   S    
C62   H58   S    
C29   H25   S    
C70   H62   S    
C52   H36   S    
N18   Ni3   S    
C8    C48   A    
C26   H18   S    
C63   C67   D    
C41   H45   S    
O3    H91   S    
C26   H38   S    
N30   Ni5   S    
C25   H17   S    
N2    N30   A    
C27   C41   S    
C71   N11   A    
O2    H90   S    
C44   H48   S    
C13   C81   A    
C23   H11   S    
C69   N9    A    
O1    H89   S    
C9    C77   A    
C55   O7    S    
C61   H57   S    
C91   N31   A    
C18   C34   S    
C32   C50   S    
C37   C49   S    
N29   Ni5   S    
C11   C79   A    
C69   H61   S    
N10   Ni5   S    
C50   H30   S    
C7    C55   S    
C31   H21   S    
C57   H53   S    
C20   C22   S    
N4    Ni2   S    
N4    N32   A    
C67   H51   S    
N25   Ni7   S    
N28   Ni8   S    
C31   C35   S    
C76   H68   S    
C47   H43   S    
N8    Ni4   S    
C9    C69   A    
C19   H87   S    
N31   Ni6   S    
C53   O5    S    
C6    C86   A    
C82   N22   A    
C66   H50   S    
C71   H63   S    
C5    C53   S    
C89   N29   A    
C45   H41   S    
C29   C51   S    
C45   N5    A    
C30   C52   S    
N23   Ni2   S    
C51   H35   S    
N26   Ni7   S    
C6    C46   A    
C28   H40   S    
C87   N27   A    
N12   Ni6   S    
C86   N26   A    
C64   C95   S    
C48   H44   S    
C84   H76   S    
C3    N3    A    
N7    Ni4   S    
C14   C34   S    
N11   Ni6   S    
C15   C83   A    
C43   O3    S    
C38   C50   S    
C59   H55   S    
C49   H29   S    
C64   H60   S    
C22   H16   S    
C54   C58   D    
C72   H64   S    
C46   H42   S    
C27   H19   S    
C15   C75   A    
C79   N19   A    
C27   H39   S    
C1    N1    A    
C4    N4    A    
C12   C39   S    
C4    H4    S    
N14   Ni7   S    
N6    N26   A    
C51   H31   S    
N5    N25   A    
C59   C65   S    
C57   C67   S    
C58   C68   S    
C80   N20   A    
C30   H24   S    
C49   H33   S    
N27   Ni8   S    
C12   C80   A    
C28   C42   S    
C9    C38   S    
C24   C40   S    
C3    C95   A    
C53   C57   D    
C10   C78   A    
C92   N32   A    
C58   H54   S    
C61   C65   D    
C47   N7    A    
C11   C40   S    
N32   Ni6   S    
C48   N8    A    
C22   H10   S    
C20   H8    S    
C31   H27   S    
C20   C36   S    
C3    H3    S    
C88   H80   S    
C40   C44   S    
C21   C37   S    
C85   N25   A    
C28   C36   S    
C91   C95   A    
C1    C93   A    
C88   N28   A    
C62   C93   S    
C25   C33   S    
O4    H92   S    
C79   H71   S    
C32   H22   S    
C83   H75   S    
N15   Ni8   S    
C13   C73   A    
C86   H78   S    
N7    N27   A    
C65   H49   S    
C81   H73   S    
C23   C39   S    
C63   H59   S    
C21   H9    S    
N5    Ni3   S    
C7    C47   A    
C91   H83   S    
N3    Ni2   S    
N10   N18   A    
