data_mof_unit_21738.cif
_audit_creation_date              2013-03-05T16:48:41-0500
_audit_creation_method            fapswitch 2.2
_symmetry_space_group_name_H-M    P1
_symmetry_Int_Tables_number       1
_space_group_crystal_system       triclinic
_cell_length_a                    27.748337
_cell_length_b                    8.934986
_cell_length_c                    8.098971
_cell_angle_alpha                 89.999759
_cell_angle_beta                  90.007143
_cell_angle_gamma                 89.998922
_cell_volume                      2007.98598423

loop_
_atom_site_label
_atom_site_type_symbol
_atom_site_description
_atom_site_fract_x
_atom_site_fract_y
_atom_site_fract_z
_atom_type_partial_charge
O1    O     O_R   0.500000 0.285350 0.636850 -0.613143
O2    O     O_R   0.500000 0.714650 0.363150 -0.613149
O3    O     O_R   0.500000 0.714650 0.636850 -0.613154
O4    O     O_R   0.500000 0.285350 0.363150 -0.613139
C1    C     C_R   0.500000 0.217965 0.500000 0.943332
C2    C     C_R   0.500000 0.782035 0.500000 0.943291
O5    O     O_R   0.428760 0.500000 0.636860 -0.619713
O6    O     O_R   0.571240 0.500000 0.363140 -0.619704
O7    O     O_R   0.571240 0.500000 0.636860 -0.619755
O8    O     O_R   0.428760 0.500000 0.363140 -0.619749
C3    C     C_R   0.405781 0.500014 0.499988 0.890906
C4    C     C_R   0.594219 0.500013 0.500011 0.890910
Zn1   Zn    Zn3+2 0.500000 0.500000 0.682780 1.017714
Zn2   Zn    Zn3+2 0.500000 0.500000 0.317220 1.017724
C5    C     C_R   0.177232 0.368888 0.472825 0.621052
C6    C     C_R   0.822759 0.632112 0.473082 0.622735
C7    C     C_R   0.177245 0.631970 0.526731 0.621793
C8    C     C_R   0.822763 0.369023 0.526951 0.620000
O9    O     O_2   0.202279 0.241882 0.444815 -0.529335
O10   O     O_2   0.797702 0.759108 0.445103 -0.529093
O11   O     O_2   0.202307 0.758944 0.554768 -0.529244
O12   O     O_2   0.797712 0.242031 0.554981 -0.529426
N1    N     N_R   0.201118 0.500413 0.499792 -0.321609
N2    N     N_R   0.798882 0.500576 0.500081 -0.321625
C9    C     C_R   0.277807 0.548908 0.357202 -0.006088
C10   C     C_R   0.722223 0.451761 0.357448 -0.005757
C11   C     C_R   0.277774 0.451687 0.642540 -0.005951
C12   C     C_R   0.722195 0.549065 0.642745 -0.006234
C13   C     C_R   0.328157 0.547041 0.359687 -0.217698
C14   C     C_R   0.671874 0.453304 0.359846 -0.217477
C15   C     C_R   0.328124 0.453307 0.640159 -0.217571
C16   C     C_R   0.671844 0.547127 0.640282 -0.217868
C17   C     C_R   0.252539 0.500367 0.499854 0.165364
C18   C     C_R   0.747460 0.500551 0.500070 0.165394
C19   C     C_R   0.101451 0.500471 0.499745 -0.042888
C20   C     C_R   0.898549 0.500546 0.499897 -0.042892
C21   C     C_R   0.126886 0.365785 0.475902 -0.014393
C22   C     C_R   0.873106 0.635229 0.476101 -0.014486
C23   C     C_R   0.126899 0.635131 0.523599 -0.014425
C24   C     C_R   0.873108 0.365878 0.523766 -0.014362
C25   C     C_R   0.101630 0.231828 0.454812 -0.135112
C26   C     C_R   0.898357 0.769192 0.454993 -0.135127
C27   C     C_R   0.101655 0.769115 0.544658 -0.135102
C28   C     C_R   0.898357 0.231897 0.544787 -0.135063
C29   C     C_R   0.353195 0.500114 0.499946 -0.081577
C30   C     C_R   0.646804 0.500139 0.500047 -0.081518
H1    H     H_    0.348090 0.416933 0.747963 0.199837
H2    H     H_    0.651846 0.583406 0.748037 0.199931
H3    H     H_    0.348151 0.583321 0.251924 0.199894
H4    H     H_    0.651913 0.416863 0.252056 0.199724
H5    H     H_    0.120398 0.127517 0.432402 0.189392
H6    H     H_    0.879583 0.873501 0.432619 0.189349
H7    H     H_    0.120433 0.873410 0.567061 0.189395
H8    H     H_    0.879585 0.127598 0.567210 0.189436
C31   C     C_R   0.974659 0.362844 0.508263 0.049413
C32   C     C_R   0.025343 0.638180 0.508232 0.049404
C33   C     C_R   0.974664 0.638197 0.491328 0.049409
C34   C     C_R   0.025333 0.362828 0.491275 0.049418
C35   C     C_R   0.949441 0.500529 0.499826 0.072191
C36   C     C_R   0.050559 0.500494 0.499746 0.072187
C37   C     C_R   0.948318 0.229996 0.535751 -0.213343
C38   C     C_R   0.051691 0.771025 0.535684 -0.213280
C39   C     C_R   0.948322 0.771061 0.463896 -0.213244
C40   C     C_R   0.051668 0.229965 0.463786 -0.213308
H9    H     H_    0.965692 0.123850 0.557107 0.134388
H10   H     H_    0.034323 0.877174 0.557060 0.134381
H11   H     H_    0.965696 0.877194 0.442496 0.134362
H12   H     H_    0.034288 0.123835 0.442395 0.134379
C41   C     C_1   0.500000 0.065181 0.500000 -0.167041
C42   C     C_1   0.500000 0.934819 0.500000 -0.167036
N3    N     N_1   0.500000 0.500000 0.073640 -0.024570
N4    N     N_1   0.500000 0.500000 0.926360 -0.024570
C43   C     C_2   0.252820 0.397801 0.795053 0.985945
O13   O     O_2   0.275688 0.331386 0.901500 -0.599843
O14   O     O_R   0.203576 0.422484 0.819075 -0.824566
H13   H     H_    0.191063 0.375371 0.924559 0.366753
C44   C     C_2   0.747104 0.602998 0.795365 0.985672
O15   O     O_2   0.724130 0.668393 0.902283 -0.600150
O16   O     O_R   0.796428 0.579526 0.818957 -0.824484
H14   H     H_    0.808883 0.626589 0.924561 0.367055
C45   C     C_2   0.252896 0.602848 0.204597 0.985915
O17   O     O_2   0.275834 0.668740 0.097958 -0.600034
O18   O     O_R   0.203613 0.578812 0.180704 -0.824519
H15   H     H_    0.191144 0.625908 0.075135 0.366873
C46   C     C_2   0.747181 0.397783 0.205003 0.986004
O19   O     O_2   0.724374 0.330538 0.099033 -0.599599
O20   O     O_R   0.796360 0.423330 0.180510 -0.824537
H16   H     H_    0.808901 0.376069 0.075146 0.366633

loop_
_geom_bond_atom_site_label_1
_geom_bond_atom_site_label_2
_geom_bond_distance
_ccdc_geom_bond_type
C9    C45   1.495800 S    
O20   H16   1.013741 S    
C31   C35   1.416948 A    
C43   O14   1.397745 S    
Zn2   N3    1.972747 S    
C20   C35   1.412157 A    
C45   O17   1.223851 D    
C13   H3    1.083848 S    
C44   O15   1.223837 D    
C11   C17   1.419390 A    
C5    O9    1.349919 S    
C7    N1    1.366786 A    
O1    C1    1.261324 A    
C40   H12   1.077861 S    
C19   C21   1.408421 A    
C22   C26   1.397473 A    
C7    C23   1.397530 A    
C33   C35   1.416942 A    
C34   C36   1.416940 A    
O7    Zn1   2.011515 S    
C32   C33   1.412868 A    
C43   O13   1.223874 D    
C8    C24   1.397491 A    
C5    C21   1.397499 A    
C1    C41   1.365119 S    
C27   H7    1.082964 S    
N1    C17   1.426861 S    
C8    N2    1.366766 A    
C24   C28   1.397464 A    
O3    Zn1   1.953634 S    
C6    O10   1.349916 S    
O3    C2    1.261322 A    
C5    N1    1.366770 A    
C14   H4    1.083880 S    
C12   C18   1.419433 A    
C6    N2    1.366790 A    
C15   H1    1.083857 S    
C21   C25   1.397464 A    
C16   H2    1.083844 S    
O2    C2    1.261324 A    
C45   O18   1.397734 S    
C10   C18   1.419324 A    
C33   C39   1.411687 A    
C44   O16   1.397717 S    
C9    C13   1.397373 A    
C39   H11   1.077856 S    
C38   H10   1.077857 S    
C46   O20   1.397771 S    
C11   C15   1.397367 A    
C12   C16   1.397418 A    
C4    C30   1.459169 S    
O8    Zn2   2.011517 S    
C23   C27   1.397476 A    
C34   C40   1.411683 A    
C46   O19   1.223922 D    
C7    O11   1.349914 S    
C32   C36   1.416954 A    
C13   C29   1.395959 A    
C19   C36   1.412157 A    
C19   C23   1.408413 A    
O14   H13   1.013754 S    
C28   H8    1.082961 S    
O5    C3    1.278750 A    
O18   H15   1.013758 S    
C20   C24   1.408411 A    
O6    C4    1.278747 A    
C12   C44   1.495871 S    
C10   C14   1.397306 A    
C32   C38   1.411687 A    
C3    C29   1.459183 S    
O1    Zn1   1.953638 S    
C2    C42   1.365118 S    
O6    Zn2   2.011423 S    
C8    O12   1.349924 S    
C16   C30   1.395985 A    
C14   C30   1.395906 A    
O4    C1    1.261322 A    
Zn1   N4    1.972747 S    
C28   C37   1.388389 A    
C20   C22   1.408423 A    
N3    N4    1.192816 T    
C10   C46   1.495583 S    
C31   C37   1.411678 A    
O4    Zn2   1.953635 S    
C41   C42   1.164783 T    
O2    Zn2   1.953637 S    
O7    C4    1.278725 A    
N2    C18   1.426872 S    
C9    C17   1.419397 A    
O8    C3    1.278720 A    
O16   H14   1.013766 S    
C37   H9    1.077855 S    
O5    Zn1   2.011426 S    
C15   C29   1.395923 A    
C31   C34   1.412840 A    
C6    C22   1.397534 A    
C25   C40   1.388392 A    
C11   C43   1.495724 S    
C26   C39   1.388420 A    
C25   H5    1.082961 S    
C27   C38   1.388417 A    
C26   H6    1.082959 S    
