data_mof_unit_12116.cif
_audit_creation_date              2012-12-10T17:07:01-0500
_audit_creation_method            fapswitch 2.2
_symmetry_space_group_name_H-M    P1
_symmetry_Int_Tables_number       1
_space_group_crystal_system       triclinic
_cell_length_a                    18.402614
_cell_length_b                    18.329293
_cell_length_c                    18.406206
_cell_angle_alpha                 120.272283
_cell_angle_beta                  120.276546
_cell_angle_gamma                 59.531986
_cell_volume                      4356.25933023

loop_
_atom_site_label
_atom_site_type_symbol
_atom_type_description
_atom_site_fract_x
_atom_site_fract_y
_atom_site_fract_z
_atom_type_partial_charge
C1    C     C_R   0.140190 0.858639 0.638526 0.924980
C2    C     C_R   0.725843 0.152915 0.814851 0.260594
C3    C     C_R   0.735536 0.206629 0.787118 0.042552
C4    C     C_R   0.762073 0.164093 0.712123 0.013644
C5    C     C_R   0.722110 0.299682 0.830643 -0.179450
C6    C     C_R   0.778793 0.332663 0.833147 0.035499
C7    C     C_R   0.834852 0.275359 0.779290 0.043960
C8    C     C_R   0.815782 0.196434 0.709064 -0.182892
C9    C     C_R   0.788205 0.416805 0.894524 -0.155813
C10   C     C_R   0.851169 0.443782 0.903193 -0.190380
C11   C     C_R   0.911944 0.384684 0.857955 -0.210610
C12   C     C_R   0.864770 0.140153 0.360282 0.853193
C13   C     C_R   0.908545 0.298600 0.800497 0.255765
C14   C     C_R   0.857348 0.330507 0.425388 0.210813
C15   C     C_R   0.823320 0.422991 0.471751 0.122737
C16   C     C_R   0.736920 0.474904 0.430297 0.160992
C17   C     C_R   0.689578 0.435554 0.341764 -0.212653
C18   C     C_R   0.725355 0.344400 0.293227 -0.043464
C19   C     C_R   0.800867 0.289676 0.341466 0.006813
C20   C     C_R   0.815502 0.196451 0.304381 -0.094998
C21   C     C_R   0.771663 0.158022 0.214071 -0.307014
C22   C     C_R   0.710641 0.210613 0.160196 0.209737
C23   C     C_R   0.140420 0.140085 0.643955 0.804529
C24   C     C_R   0.688043 0.304975 0.198906 -0.100915
C25   C     C_R   0.897940 0.704814 0.405997 -0.186198
C26   C     C_R   0.917315 0.629851 0.423111 -0.169105
C27   C     C_R   0.869872 0.571230 0.362776 -0.155028
C28   C     C_R   0.800610 0.589063 0.286616 -0.151676
C29   C     C_R   0.776381 0.667417 0.269909 0.053782
C30   C     C_R   0.828617 0.724222 0.328336 0.102647
C31   C     C_R   0.810875 0.796834 0.305759 -0.115307
C32   C     C_R   0.741420 0.813294 0.228883 -0.280259
C33   C     C_R   0.686770 0.761112 0.174078 0.194776
C34   C     C_R   0.862737 0.857310 0.360411 0.798185
C35   C     C_R   0.702729 0.689200 0.195274 -0.135049
C36   C     C_R   0.162281 0.663511 0.561573 0.229874
C37   C     C_R   0.164381 0.575640 0.531996 -0.205606
C38   C     C_R   0.211065 0.527540 0.590140 -0.185972
C39   C     C_R   0.257571 0.565736 0.678516 -0.145633
C40   C     C_R   0.254519 0.655388 0.712030 0.025070
C41   C     C_R   0.203606 0.706888 0.654117 0.009767
C42   C     C_R   0.197386 0.798695 0.691067 -0.177091
C43   C     C_R   0.243148 0.836586 0.781681 0.150549
C44   C     C_R   0.295543 0.784329 0.837282 0.146252
C45   C     C_R   0.141039 0.857339 0.360623 0.787304
C46   C     C_R   0.302619 0.693777 0.802000 -0.148455
C47   C     C_R   0.322139 0.721006 0.420639 -0.199648
C48   C     C_R   0.400377 0.651032 0.442302 -0.148942
C49   C     C_R   0.443120 0.587938 0.380143 -0.124460
C50   C     C_R   0.410015 0.596886 0.297469 -0.168581
C51   C     C_R   0.333710 0.670701 0.275913 0.103651
C52   C     C_R   0.284714 0.730638 0.335694 0.102964
C53   C     C_R   0.200043 0.795895 0.306836 -0.085794
C54   C     C_R   0.169220 0.802202 0.222849 -0.212605
C55   C     C_R   0.221431 0.748945 0.168683 -0.216041
C56   C     C_R   0.861039 0.140662 0.641697 0.846371
C57   C     C_R   0.304164 0.685120 0.195355 -0.082311
C58   C     C_R   0.336980 0.068212 0.738084 -0.203630
C59   C     C_R   0.427278 0.025352 0.748831 -0.256681
C60   C     C_R   0.473887 0.066766 0.749840 0.193596
C61   C     C_R   0.432746 0.157688 0.754269 0.216322
C62   C     C_R   0.344726 0.205973 0.760189 0.018208
C63   C     C_R   0.292555 0.155826 0.733782 0.065155
C64   C     C_R   0.198059 0.195375 0.703936 -0.077218
C65   C     C_R   0.159048 0.288410 0.722644 -0.233769
C66   C     C_R   0.212582 0.341193 0.770100 -0.215413
C67   C     C_R   0.739275 0.086879 0.646802 -0.131249
C68   C     C_R   0.305724 0.301305 0.791127 -0.084614
C69   C     C_R   0.641230 0.638604 0.139820 0.815531
C70   C     C_R   0.360323 0.359353 0.854926 0.820151
C71   C     C_R   0.636280 0.360052 0.140535 0.797169
C72   C     C_R   0.359833 0.639978 0.860305 0.813587
C73   C     C_R   0.359988 0.637189 0.139731 0.791513
C74   C     C_R   0.648000 0.359260 0.868238 0.820109
C75   C     C_R   0.716294 0.040204 0.668074 -0.165689
C76   C     C_R   0.716418 0.069665 0.754063 -0.234182
H1    H     H_    0.965775 0.403938 0.872238 0.134125
H2    H     H_    0.727622 0.869170 0.212424 0.163523
H3    H     H_    0.938609 0.746062 0.454982 0.170100
H4    H     H_    0.970446 0.616451 0.482906 0.147981
H5    H     H_    0.886635 0.511726 0.375065 0.140219
H6    H     H_    0.768099 0.539473 0.240618 0.147693
H7    H     H_    0.295675 0.523948 0.720095 0.137330
H8    H     H_    0.105483 0.851334 0.200187 0.166148
H9    H     H_    0.293722 0.765660 0.472718 0.184058
H10   H     H_    0.502215 0.531901 0.396020 0.140342
H11   H     H_    0.197748 0.759080 0.106203 0.166199
H12   H     H_    0.087066 0.320780 0.702319 0.166616
H13   H     H_    0.303120 0.032327 0.734506 0.182776
H14   H     H_    0.459333 0.957052 0.749414 0.155989
H15   H     H_    0.710057 0.027491 0.773965 0.159104
H16   H     H_    0.751762 0.460984 0.940791 0.167329
H17   H     H_    0.857220 0.508506 0.950482 0.149803
H18   H     H_    0.783361 0.086470 0.184863 0.175451
O1    O     O_3   0.000000 0.000000 0.500000 -0.475065
O2    O     O_R   0.055100 0.176520 0.615800 -0.653354
O3    O     O_R   0.884180 0.884200 0.444920 -0.659381
O4    O     O_R   0.176510 0.884190 0.615800 -0.646724
O5    O     O_R   0.884210 0.055080 0.323480 -0.656789
O6    O     O_3   0.499970 0.500030 0.999970 -0.480034
O7    O     O_R   0.615800 0.615830 0.055050 -0.628541
O8    O     O_R   0.444880 0.323510 0.884180 -0.624997
O9    O     O_R   0.615760 0.444950 0.176490 -0.674076
O10   O     O_R   0.323460 0.615830 0.884170 -0.645678
O11   O     O_R   0.444880 0.615840 0.176480 -0.649370
O12   O     O_R   0.055060 0.884200 0.615800 -0.640738
O13   O     O_R   0.615800 0.444940 0.884180 -0.654858
O14   O     O_R   0.323440 0.615840 0.055040 -0.641871
O15   O     O_R   0.615780 0.323500 0.884180 -0.617273
O16   O     O_R   0.615760 0.323500 0.055050 -0.604592
O17   O     O_R   0.444910 0.615830 0.884180 -0.639880
O18   O     O_R   0.615780 0.615830 0.176490 -0.653716
O19   O     O_R   0.323430 0.444950 0.884170 -0.653366
O20   O     O_R   0.884210 0.176520 0.444920 -0.633162
O21   O     O_R   0.176540 0.055080 0.615800 -0.644538
O22   O     O_R   0.884190 0.884200 0.323480 -0.637957
O23   O     O_R   0.176540 0.884190 0.444930 -0.658306
O24   O     O_R   0.884180 0.055090 0.615790 -0.646704
O25   O     O_R   0.055100 0.884190 0.323490 -0.637661
O26   O     O_R   0.884190 0.176530 0.615790 -0.625226
Zn1   Zn    Zn3+2 0.956630 0.130130 0.543370 0.968113
Zn2   Zn    Zn3+2 0.130140 0.956620 0.543380 0.959565
Zn3   Zn    Zn3+2 0.956630 0.956620 0.369870 0.963734
Zn4   Zn    Zn3+2 0.956610 0.956630 0.543370 0.965612
Zn5   Zn    Zn3+2 0.543340 0.369890 0.956600 0.968272
Zn6   Zn    Zn3+2 0.543340 0.543410 0.130100 0.934891
Zn7   Zn    Zn3+2 0.369830 0.543410 0.956590 0.957847
Zn8   Zn    Zn3+2 0.543370 0.543400 0.956600 0.955040
N1    N     N_2   0.950158 0.280932 0.458216 -0.271885
H19   H     H_    0.982432 0.306068 0.525540 0.263512
C77   C     C_3   0.002023 0.254761 0.405269 -0.828783
H20   H     H_    0.002205 0.315368 0.405383 0.238616
H21   H     H_    0.974412 0.213363 0.335537 0.244257
H22   H     H_    0.072033 0.214003 0.434061 0.239341
N2    N     N_2   0.877276 0.463197 0.558297 -0.324919
H23   H     H_    0.869853 0.527903 0.571479 0.234192
C78   C     C_3   0.875957 0.452370 0.630268 -0.830105
H24   H     H_    0.925161 0.479026 0.693899 0.238836
H25   H     H_    0.894265 0.380341 0.618204 0.261436
H26   H     H_    0.808448 0.489672 0.636933 0.240609
N3    N     N_2   0.696025 0.566505 0.476445 -0.317749
H27   H     H_    0.717979 0.584698 0.544874 0.231277
C79   C     C_3   0.687732 0.630994 0.447013 -0.758065
H28   H     H_    0.755062 0.629125 0.462060 0.237953
H29   H     H_    0.650105 0.699520 0.482674 0.236562
H30   H     H_    0.650660 0.616832 0.374243 0.270362
H31   H     H_    0.622039 0.476295 0.314242 0.192758
N4    N     N_2   0.670225 0.167758 0.067794 -0.278793
H32   H     H_    0.711140 0.104674 0.040873 0.207979
C80   C     C_3   0.582026 0.168836 0.044577 -0.748283
H33   H     H_    0.586104 0.128338 0.076343 0.220165
H34   H     H_    0.553365 0.139674 0.970992 0.233806
H35   H     H_    0.536613 0.238683 0.066464 0.236373
H36   H     H_    0.741597 0.060292 0.580296 0.154012
N5    N     N_2   0.612595 0.784223 0.099802 -0.296170
H37   H     H_    0.573849 0.851267 0.116435 0.212774
C81   C     C_3   0.635761 0.754926 0.022688 -0.732244
H38   H     H_    0.673360 0.681612 0.002931 0.259178
H39   H     H_    0.573680 0.768692 0.965796 0.227587
H40   H     H_    0.677116 0.791693 0.037373 0.217616
N6    N     N_2   0.234564 0.928873 0.817132 -0.307113
H41   H     H_    0.215639 0.964862 0.873130 0.241813
C82   C     C_3   0.310075 0.944147 0.828750 -0.779080
H42   H     H_    0.323926 0.910420 0.765023 0.250026
H43   H     H_    0.370671 0.918137 0.880821 0.247745
H44   H     H_    0.294819 0.017391 0.850287 0.224238
N7    N     N_2   0.126342 0.703028 0.495811 -0.326362
H45   H     H_    0.072877 0.685657 0.442686 0.210006
C83   C     C_3   0.192779 0.686087 0.464216 -0.791327
H46   H     H_    0.161868 0.724623 0.418801 0.229924
H47   H     H_    0.218544 0.613448 0.426814 0.239191
H48   H     H_    0.249385 0.707052 0.521346 0.245515
H49   H     H_    0.132506 0.542975 0.462209 0.140027
H50   H     H_    0.213588 0.459105 0.565914 0.145899
N8    N     N_2   0.340504 0.824233 0.929178 -0.309780
H51   H     H_    0.407104 0.787602 0.952423 0.243773
C84   C     C_3   0.293132 0.856087 0.988487 -0.810088
H52   H     H_    0.328770 0.893447 0.056644 0.238437
H53   H     H_    0.290022 0.798760 0.991506 0.243036
H54   H     H_    0.224111 0.902092 0.965691 0.242855
H55   H     H_    0.426887 0.644787 0.507228 0.138583
H56   H     H_    0.704399 0.978090 0.619727 0.151071
H57   H     H_    0.443848 0.543869 0.250323 0.139783
N9    N     N_2   0.561007 0.015602 0.743658 -0.337789
H58   H     H_    0.601041 0.978742 0.786392 0.216829
C85   C     C_3   0.561110 0.960398 0.653277 -0.804913
H59   H     H_    0.630967 0.920840 0.653458 0.228682
H60   H     H_    0.528646 0.003173 0.611501 0.257378
H61   H     H_    0.525441 0.912596 0.623627 0.248826
N10   N     N_2   0.475830 0.196771 0.744071 -0.264797
H62   H     H_    0.544058 0.166573 0.759344 0.260766
C86   C     C_3   0.432254 0.218094 0.662855 -0.800457
H63   H     H_    0.469845 0.250169 0.662986 0.236129
H64   H     H_    0.362961 0.265843 0.657967 0.236031
H65   H     H_    0.430674 0.155966 0.603772 0.236545
H66   H     H_    0.180738 0.413496 0.789928 0.176231
N11   N     N_2   0.734870 0.176323 0.904951 -0.265492
H67   H     H_    0.712338 0.142407 0.915668 0.225839
C87   C     C_3   0.815256 0.194727 0.974500 -0.764155
H68   H     H_    0.796194 0.260738 0.025871 0.237331
H69   H     H_    0.857190 0.196264 0.948432 0.232744
H70   H     H_    0.856139 0.142104 0.006526 0.221761
N12   N     N_2   0.985118 0.233974 0.774577 -0.282598
H71   H     H_    0.021432 0.261027 0.772937 0.224824
C88   C     C_3   0.041745 0.169024 0.820762 -0.810478
H72   H     H_    0.096275 0.118641 0.792436 0.233533
H73   H     H_    0.002992 0.133089 0.812588 0.243687
H74   H     H_    0.071903 0.203086 0.892959 0.235208

loop_
_geom_bond_atom_site_label_1
_geom_bond_atom_site_label_2
_ccdc_geom_bond_type
O1    Zn4   S    
C60   N9    S    
C79   H30   S    
C66   C68   A    
N12   H71   S    
N10   H62   S    
O22   Zn3   S    
N5    C81   S    
C2    N11   S    
C83   H47   S    
C41   C42   A    
C50   H57   S    
C44   N8    S    
C4    C8    A    
C77   H22   S    
C8    C56   S    
C74   O15   A    
C54   H8    S    
N6    H41   S    
N2    H23   S    
N7    C83   S    
C88   H72   S    
C23   O2    A    
C40   C46   A    
N12   C88   S    
C26   C27   A    
C81   H38   S    
O2    Zn1   S    
C67   H36   S    
C18   C24   A    
C5    C6    A    
C47   H9    S    
C28   C29   A    
C17   H31   S    
N4    C80   S    
O13   Zn8   S    
O3    Zn4   S    
N3    C79   S    
C30   C31   A    
C69   O18   A    
C38   H50   S    
C15   N2    S    
C21   H18   S    
C34   O22   A    
C79   H28   S    
O6    Zn7   S    
C71   O16   A    
C58   C63   A    
O7    Zn8   S    
N9    H58   S    
O4    Zn2   S    
C18   C19   A    
C83   H46   S    
C57   C73   S    
C5    C74   S    
N11   C87   S    
O9    Zn6   S    
C12   O5    A    
C11   H1    S    
C74   O13   A    
O20   Zn1   S    
C34   O3    A    
C47   C48   A    
O23   Zn2   S    
C16   C17   A    
C84   H53   S    
C80   H35   S    
C87   H70   S    
C51   C57   A    
C29   C30   A    
C9    C10   A    
C46   C72   S    
C1    O12   A    
C45   O25   A    
C72   O17   A    
C45   C53   S    
C59   C60   A    
C81   H39   S    
O21   Zn2   S    
N2    C78   S    
C21   C22   A    
C56   O26   A    
C36   C41   A    
C61   C62   A    
C56   O24   A    
C6    C9    A    
C14   C19   A    
C9    H16   S    
N6    C82   S    
C44   C46   A    
C17   C18   A    
C12   O20   A    
C88   H73   S    
C70   O19   A    
C38   C39   A    
C78   H26   S    
N5    H37   S    
C28   H6    S    
O6    Zn5   S    
C86   H65   S    
C23   C64   S    
C27   H5    S    
C82   H44   S    
N4    H32   S    
N8    C84   S    
N7    H45   S    
C73   O14   A    
C72   O10   A    
C10   H17   S    
C3    C5    A    
C58   C59   A    
C53   C54   A    
C23   O21   A    
C36   N7    S    
C26   H4    S    
C13   N12   S    
C60   C61   A    
C59   H14   S    
C86   H64   S    
C76   H15   S    
C75   C76   A    
C37   C38   A    
O6    Zn6   S    
C78   H25   S    
C73   O11   A    
C31   C32   A    
C14   C15   A    
C7    C13   A    
C84   H54   S    
C12   C20   S    
C62   C63   A    
C33   N5    S    
C50   C51   A    
C31   C34   S    
O24   Zn4   S    
C52   C53   A    
C47   C52   A    
C43   N6    S    
O1    Zn2   S    
O15   Zn5   S    
C40   C41   A    
C32   H2    S    
C22   N4    S    
C65   C66   A    
C81   H40   S    
O25   Zn3   S    
C55   C57   A    
C43   C44   A    
C61   N10   S    
C83   H48   S    
C22   C24   A    
C67   C75   A    
C42   C43   A    
C85   H60   S    
C3    C4    A    
O17   Zn8   S    
C2    C76   A    
O26   Zn1   S    
C65   H12   S    
O5    Zn3   S    
N1    H19   S    
C88   H74   S    
C45   O23   A    
C25   C30   A    
C79   H29   S    
C71   O9    A    
C54   C55   A    
C36   C37   A    
N10   C86   S    
C82   H43   S    
O6    Zn8   S    
O18   Zn6   S    
C49   H10   S    
C77   H21   S    
C77   H20   S    
C25   H3    S    
C1    O4    A    
C4    C67   A    
C66   H66   S    
C70   O8    A    
C6    C7    A    
O19   Zn7   S    
C69   O7    A    
O11   Zn6   S    
C78   H24   S    
C29   C35   A    
O8    Zn5   S    
C62   C68   A    
C86   H63   S    
C19   C20   A    
C49   C50   A    
C2    C3    A    
C25   C26   A    
C39   H7    S    
C51   C52   A    
N8    H51   S    
N3    H27   S    
C32   C33   A    
C11   C13   A    
O1    Zn1   S    
C48   H55   S    
O10   Zn7   S    
C85   H61   S    
C48   C49   A    
C64   C65   A    
C33   C35   A    
N9    C85   S    
C16   N3    S    
C80   H34   S    
O14   Zn7   S    
C55   H11   S    
N11   H67   S    
C58   H13   S    
C82   H42   S    
C7    C8    A    
C10   C11   A    
O16   Zn5   S    
C37   H49   S    
C63   C64   A    
C39   C40   A    
C1    C42   S    
C87   H68   S    
C20   C21   A    
C35   C69   S    
C68   C70   S    
C84   H52   S    
O12   Zn4   S    
C27   C28   A    
C87   H69   S    
C80   H33   S    
C85   H59   S    
C75   H56   S    
C15   C16   A    
C24   C71   S    
O1    Zn3   S    
N1    C77   S    
C14   N1    S    
