data_mof_unit_21651.cif
_audit_creation_date              2012-12-11T16:24:12-0500
_audit_creation_method            fapswitch 2.2
_symmetry_space_group_name_H-M    P1
_symmetry_Int_Tables_number       1
_space_group_crystal_system       triclinic
_cell_length_a                    14.723303
_cell_length_b                    14.738958
_cell_length_c                    33.271516
_cell_angle_alpha                 96.027888
_cell_angle_beta                  96.10718
_cell_angle_gamma                 61.199256
_cell_volume                      6279.10414043

loop_
_atom_site_label
_atom_site_type_symbol
_atom_type_description
_atom_site_fract_x
_atom_site_fract_y
_atom_site_fract_z
_atom_type_partial_charge
Br1   Br    Br    0.516302 0.172552 0.096690 -0.382027
Br2   Br    Br    0.759964 0.580088 0.620113 -0.399126
Br3   Br    Br    0.137566 0.846684 0.785517 -0.431446
Br4   Br    Br    0.157556 0.520508 0.408290 -0.383643
Br5   Br    Br    0.875678 0.494895 0.335121 -0.355443
Br6   Br    Br    0.778780 0.150855 0.317401 -0.393492
Br7   Br    Br    0.557729 0.778759 0.425912 -0.378381
Br8   Br    Br    0.507780 0.870693 0.073028 -0.318200
Br9   Br    Br    0.164862 0.551053 0.569661 -0.308231
Br10  Br    Br    0.534830 0.149824 0.579002 -0.351247
Br11  Br    Br    0.124027 0.536463 0.663277 -0.292556
Br12  Br    Br    0.804029 0.165277 0.575742 -0.377023
C1    C     C_R   0.391059 0.699687 0.445918 0.561698
C2    C     C_1   0.312954 0.344419 0.228818 0.048475
C3    C     C_1   0.319638 0.347336 0.265106 0.147910
C4    C     C_R   0.405122 0.385734 0.434169 0.573253
C5    C     C_R   0.289633 0.296747 0.101691 0.023582
C6    C     C_R   0.757286 0.372346 0.410267 -0.042352
C7    C     C_R   0.795181 0.431105 0.394386 -0.081729
C8    C     C_R   0.826747 0.409335 0.354894 0.143687
C9    C     C_R   0.820199 0.327958 0.330685 0.045066
C10   C     C_R   0.790976 0.263106 0.347858 0.138442
C11   C     C_R   0.760337 0.285383 0.387464 -0.106201
C12   C     C_R   0.332172 0.348083 0.308432 0.092987
C13   C     C_R   0.840725 0.303247 0.205601 0.370429
C14   C     C_R   0.830859 0.319252 0.286981 0.386061
C15   C     C_R   0.839912 0.384062 0.143865 -0.154925
C16   C     C_R   0.700908 0.409889 0.447519 0.550488
C17   C     C_R   0.868773 0.375603 0.104616 -0.136518
C18   C     C_R   0.912364 0.194124 0.098905 -0.114195
C19   C     C_R   0.884393 0.201571 0.138659 0.261497
C20   C     C_R   0.852312 0.296433 0.161850 0.073985
C21   C     C_R   0.909539 0.279531 0.082503 -0.010001
C22   C     C_R   0.371679 0.750774 0.407584 -0.006943
C23   C     C_R   0.426983 0.276719 0.326404 0.206088
C24   C     C_R   0.285783 0.759987 0.381844 -0.141176
C25   C     C_R   0.277871 0.779624 0.340994 0.246861
C26   C     C_R   0.356698 0.791656 0.325762 0.041384
C27   C     C_R   0.435772 0.794900 0.352293 -0.122143
C28   C     C_R   0.393147 0.701794 0.561159 0.546882
C29   C     C_R   0.444006 0.774822 0.392999 0.145092
C30   C     C_R   0.361633 0.802107 0.201090 0.353394
C31   C     C_R   0.360004 0.794843 0.281961 0.374950
C32   C     C_R   0.250694 0.841887 0.137274 0.217269
C33   C     C_R   0.227774 0.879752 0.098673 -0.169470
C34   C     C_R   0.445591 0.285616 0.368298 -0.151265
C35   C     C_R   0.399450 0.864881 0.098767 0.205701
C36   C     C_R   0.424359 0.824943 0.137283 0.227699
C37   C     C_R   0.347562 0.818928 0.157534 0.027245
C38   C     C_R   0.298605 0.897223 0.080015 -0.056170
C39   C     C_R   0.367277 0.366094 0.584387 -0.037011
C40   C     C_R   0.405910 0.387805 0.548687 0.580565
C41   C     C_R   0.272770 0.441523 0.601047 0.134368
C42   C     C_R   0.253558 0.435316 0.640937 0.135855
C43   C     C_R   0.327847 0.354489 0.664333 0.012793
C44   C     C_R   0.415222 0.272871 0.646425 0.224814
C45   C     C_R   0.396051 0.276307 0.164637 -0.055530
C46   C     C_R   0.431510 0.275530 0.605655 0.118936
C47   C     C_R   0.314414 0.351586 0.788991 0.350279
C48   C     C_R   0.317123 0.355242 0.707972 0.395037
C49   C     C_R   0.220987 0.411760 0.852211 0.224512
C50   C     C_R   0.210528 0.389369 0.890996 -0.142752
C51   C     C_R   0.385900 0.246523 0.892088 -0.059540
C52   C     C_R   0.703070 0.412729 0.562595 0.578352
C53   C     C_R   0.398571 0.267919 0.853910 0.202570
C54   C     C_R   0.313382 0.347377 0.832791 0.064408
C55   C     C_R   0.290772 0.303478 0.910074 -0.060211
C56   C     C_R   0.388684 0.256190 0.122730 0.168899
C57   C     C_R   0.758764 0.378148 0.602893 -0.001117
C58   C     C_R   0.772390 0.449312 0.631964 0.132607
C59   C     C_R   0.796350 0.426695 0.672511 -0.129989
C60   C     C_R   0.808193 0.334545 0.685237 0.018946
C61   C     C_R   0.805387 0.258347 0.657034 0.271436
C62   C     C_R   0.784950 0.278228 0.615299 0.117333
C63   C     C_R   0.879262 0.211432 0.824052 -0.084930
C64   C     C_R   0.370427 0.364381 0.392500 -0.031258
C65   C     C_R   0.908665 0.201291 0.865335 -0.114878
C66   C     C_R   0.872556 0.380886 0.872916 -0.114280
C67   C     C_R   0.201111 0.364085 0.123009 -0.149223
C68   C     C_R   0.842942 0.390852 0.831682 -0.104124
C69   C     C_R   0.849123 0.305386 0.807037 0.031693
C70   C     C_1   0.833153 0.312251 0.763960 0.020298
C71   C     C_1   0.821984 0.320368 0.727952 0.073471
C72   C     C_R   0.909012 0.284989 0.889913 0.017990
C73   C     C_R   0.374975 0.756518 0.601657 -0.017380
C74   C     C_R   0.282280 0.784590 0.619728 -0.111967
C75   C     C_R   0.273474 0.814141 0.660849 -0.131528
C76   C     C_R   0.270246 0.428941 0.374693 0.129262
C77   C     C_R   0.356750 0.816512 0.684462 0.073797
C78   C     C_R   0.209510 0.383469 0.164653 -0.107158
C79   C     C_R   0.447461 0.795757 0.666549 0.265986
C80   C     C_R   0.455747 0.766333 0.624878 -0.101897
C81   C     C_R   0.402172 0.871840 0.832849 -0.126449
C82   C     C_R   0.384416 0.898668 0.874224 0.233657
C83   C     C_R   0.221326 0.892654 0.861705 -0.139550
C84   C     C_R   0.239611 0.866157 0.820807 0.162603
C85   C     C_R   0.328766 0.858950 0.806158 0.009443
C86   C     C_1   0.342599 0.844003 0.763516 0.065666
C87   C     C_1   0.350520 0.832524 0.727544 0.093378
C88   C     C_R   0.252191 0.422343 0.331977 0.232993
C89   C     C_R   0.306430 0.336915 0.185581 -0.000443
C90   C     C_R   0.290748 0.913291 0.888517 0.026364
C91   C     C_R   0.963746 0.263974 0.045681 0.552204
C92   C     C_R   0.272982 0.260148 0.059894 0.560429
C93   C     C_R   0.259835 0.958590 0.043641 0.563041
C94   C     C_R   0.962446 0.267610 0.930741 0.546742
C95   C     C_R   0.270991 0.264078 0.945301 0.547458
C96   C     C_R   0.256503 0.964612 0.928938 0.570771
Cr1   Cr    Cr6+3 0.576280 0.580550 0.506370 1.136918
Cr2   Cr    Cr6+3 0.346780 0.572400 0.496520 1.137017
Cr3   Cr    Cr6+3 0.576960 0.347070 0.497150 1.124439
Cr4   Cr    Cr6+3 0.087320 0.083240 0.984860 1.034261
Cr5   Cr    Cr6+3 0.087720 0.316210 0.996740 1.034717
Cr6   Cr    Cr6+3 0.317350 0.090340 0.995890 1.153900
H1    H     H_    0.732066 0.238553 0.399299 0.171326
H2    H     H_    0.449734 0.181550 0.906827 0.187528
H3    H     H_    0.936850 0.126245 0.877420 0.145727
H4    H     H_    0.884372 0.144832 0.805144 0.164276
H5    H     H_    0.819613 0.463934 0.818702 0.131231
H6    H     H_    0.872041 0.446671 0.890979 0.141094
H7    H     H_    0.521732 0.234068 0.381576 0.158497
H8    H     H_    0.802827 0.483205 0.694602 0.173521
H9    H     H_    0.471641 0.864387 0.821201 0.136858
H10   H     H_    0.527191 0.745826 0.611196 0.170042
H11   H     H_    0.218552 0.778157 0.602654 0.191413
H12   H     H_    0.864851 0.442906 0.092514 0.161560
H13   H     H_    0.149506 0.902555 0.871946 0.169851
H14   H     H_    0.203212 0.830635 0.674640 0.179989
H15   H     H_    0.139848 0.430921 0.180747 0.157246
H16   H     H_    0.123986 0.396915 0.108005 0.150757
H17   H     H_    0.795543 0.497219 0.411873 0.202320
H18   H     H_    0.914766 0.057003 0.135396 0.331832
H19   H     H_    0.147405 0.774598 0.330840 0.347484
H20   H     H_    0.112915 0.854085 0.138648 0.333836
H21   H     H_    0.538448 0.746791 0.176041 0.338523
H22   H     H_    0.553759 0.159027 0.658672 0.372810
H23   H     H_    0.814378 0.457876 0.161065 0.164380
H24   H     H_    0.563088 0.156647 0.319621 0.366077
H25   H     H_    0.080383 0.527302 0.849238 0.330443
H26   H     H_    0.499417 0.240542 0.814693 0.344487
H27   H     H_    0.797260 0.129232 0.650713 0.377098
H28   H     H_    0.515671 0.901494 0.885536 0.331787
H29   H     H_    0.585674 0.783446 0.673202 0.360857
H30   H     H_    0.115087 0.545149 0.330627 0.384210
H31   H     H_    0.942265 0.119869 0.081800 0.123262
H32   H     H_    0.227535 0.745361 0.392720 0.160908
H33   H     H_    0.150983 0.901976 0.084367 0.140835
H34   H     H_    0.471459 0.241825 0.181052 0.180895
H35   H     H_    0.494690 0.807675 0.340903 0.185156
H36   H     H_    0.137184 0.434666 0.904929 0.132959
N1    N     N_R   0.778119 0.395322 0.224852 -0.221310
N2    N     N_R   0.398305 0.851195 0.267296 -0.206601
N3    N     N_R   0.398309 0.855409 0.227522 -0.185896
N4    N     N_R   0.292096 0.440738 0.772363 -0.137172
N5    N     N_R   0.294277 0.442233 0.732526 -0.170924
N6    N     N_R   0.338074 0.266675 0.724729 -0.123229
N7    N     N_R   0.336651 0.264922 0.764494 -0.196072
N8    N     N_R   0.772742 0.402966 0.264787 -0.170715
N9    N     N_R   0.893923 0.227274 0.267871 -0.137343
N10   N     N_R   0.899018 0.219580 0.227896 -0.108715
N11   N     N_R   0.326189 0.743523 0.215829 -0.129457
N12   N     N_R   0.325772 0.739686 0.255506 -0.124728
O1    O     O_R   0.679450 0.499830 0.463150 -0.479281
O2    O     O_R   0.340240 0.172500 0.045430 -0.440568
O3    O     O_R   0.309670 0.000990 0.032050 -0.450468
O4    O     O_R   0.480650 0.664000 0.464630 -0.452300
O5    O     O_R   0.168330 0.982130 0.939200 -0.534869
O6    O     O_R   0.000140 0.178170 0.944610 -0.500376
O7    O     O_R   0.983010 0.336750 0.948660 -0.512215
O8    O     O_R   0.181800 0.312190 0.959860 -0.501706
O9    O     O_R   0.338500 0.175680 0.956950 -0.488291
O10   O     O_R   0.308050 0.003930 0.950020 -0.424310
O11   O     O_3   0.164130 0.163270 0.992500 -0.270098
O12   O     O_R   0.356040 0.477400 0.534170 -0.459921
O13   O     O_R   0.323930 0.675950 0.455370 -0.502540
O14   O     O_R   0.354700 0.475360 0.451930 -0.452564
O15   O     O_R   0.494470 0.320860 0.448390 -0.509995
O16   O     O_R   0.662580 0.357570 0.460050 -0.500787
O17   O     O_R   0.680900 0.502040 0.551870 -0.455241
O18   O     O_R   0.481990 0.666040 0.546870 -0.490548
O19   O     O_R   0.325370 0.678160 0.544080 -0.486203
O20   O     O_3   0.890371 0.117018 0.155599 -0.627458
O21   O     O_3   0.195262 0.785084 0.315385 -0.621647
O22   O     O_3   0.176645 0.834048 0.156837 -0.626662
O23   O     O_R   0.495910 0.323070 0.537100 -0.445844
O24   O     O_3   0.523882 0.794005 0.154345 -0.610874
O25   O     O_3   0.484685 0.192777 0.669968 -0.630229
O26   O     O_3   0.501935 0.201923 0.302205 -0.644267
O27   O     O_3   0.139488 0.490581 0.831581 -0.640664
O28   O     O_3   0.493817 0.206647 0.837778 -0.664668
O29   O     O_3   0.822658 0.166303 0.671412 -0.646358
O30   O     O_3   0.455572 0.914099 0.900561 -0.656927
O31   O     O_3   0.527906 0.800508 0.690447 -0.659449
O32   O     O_3   0.158948 0.487139 0.311999 -0.646142
O33   O     O_R   0.663920 0.359620 0.542290 -0.460867
O34   O     O_3   0.500010 0.500010 0.500010 -0.298745
O35   O     O_R   0.170070 0.978950 0.027680 -0.523560
O36   O     O_R   0.001760 0.175230 0.026640 -0.499518
O37   O     O_R   0.984760 0.333570 0.037150 -0.512004
O38   O     O_R   0.183410 0.309240 0.041890 -0.515961

loop_
_geom_bond_atom_site_label_1
_geom_bond_atom_site_label_2
_ccdc_geom_bond_type
C32   C37   A    
C9    C14   S    
C51   C53   A    
C81   C82   A    
Br12  C62   S    
C15   C17   A    
H26   O28   S    
C61   C62   A    
C59   H8    S    
C66   H6    S    
C83   C84   A    
H27   O29   S    
C43   C44   A    
C34   C64   A    
N11   N12   A    
C30   N11   A    
C18   H31   S    
C27   C29   A    
Br5   C8    S    
C95   O9    A    
C41   C42   A    
C4    O15   A    
C53   C54   A    
Cr6   O10   S    
C63   H4    S    
C15   H23   S    
C50   C55   A    
C77   C87   S    
N6    N7    A    
Br10  C46   S    
C5    C92   S    
C65   H3    S    
C80   H10   S    
C47   C54   S    
C26   C27   A    
C79   O31   S    
C66   C68   A    
H30   O32   S    
Cr4   O6    S    
C52   O33   A    
C17   C21   A    
C5    C67   A    
Br1   C56   S    
Cr1   O34   S    
C6    C7    A    
C67   C78   A    
C1    C22   S    
H18   O20   S    
C28   O18   A    
C78   H15   S    
C49   C54   A    
C47   N4    A    
Cr6   O11   S    
C7    C8    A    
Cr2   O19   S    
C44   C46   A    
C23   O26   S    
C38   C93   S    
C72   C94   S    
C34   H7    S    
C90   C96   S    
C58   C59   A    
C77   C79   A    
C32   O22   S    
H21   O24   S    
C83   C90   A    
Cr3   O34   S    
C4    O14   A    
C13   C20   S    
C93   O35   A    
Cr4   O11   S    
C68   H5    S    
C4    C64   S    
C43   C48   S    
C74   H11   S    
C49   O27   S    
C92   O38   A    
N9    N10   A    
C49   C50   A    
C22   C29   A    
Cr4   O5    S    
Cr4   O36   S    
C75   H14   S    
C73   C80   A    
H19   O21   S    
C85   C86   S    
C35   C38   A    
Cr2   O12   S    
C7    H17   S    
Cr6   O9    S    
C51   C55   A    
Cr3   O23   S    
C12   C23   A    
C6    C11   A    
N1    N8    A    
C57   C62   A    
C30   N3    A    
C6    C16   S    
Cr1   O1    S    
C79   C80   A    
C52   O17   A    
C74   C75   A    
C63   C69   A    
C2    C89   S    
Cr5   O7    S    
C65   C72   A    
H25   O27   S    
C73   C74   A    
C67   H16   S    
C69   C70   S    
C39   C40   S    
C39   C41   A    
C91   O36   A    
C94   O6    A    
C28   C73   S    
H24   O26   S    
C48   N6    A    
C78   C89   A    
C36   O24   S    
C25   C26   A    
C83   H13   S    
Cr3   O16   S    
Cr1   O17   S    
C81   C85   A    
Cr6   O2    S    
C19   C20   A    
C2    C3    T    
C44   O25   S    
H28   O30   S    
C84   C85   A    
C13   N10   A    
Cr5   O37   S    
C14   N9    A    
C39   C46   A    
C91   O37   A    
C52   C57   S    
C8    C9    A    
C63   C65   A    
C21   C91   S    
N4    N5    A    
C76   C88   A    
Br11  C42   S    
C51   H2    S    
C24   H32   S    
C36   C37   A    
C96   O5    A    
C86   C87   T    
Cr2   O14   S    
C96   O10   A    
C19   O20   S    
Cr2   O34   S    
C94   O7    A    
C68   C69   A    
C45   H34   S    
Br9   C41   S    
C40   O23   A    
C45   C56   A    
C40   O12   A    
Cr4   O35   S    
C32   C33   A    
Cr6   O3    S    
Cr5   O11   S    
C28   O19   A    
C1    O13   A    
C64   C76   A    
C42   C43   A    
C3    C12   S    
C5    C56   A    
Br6   C10   S    
C50   H36   S    
C18   C21   A    
C15   C20   A    
C12   C88   A    
C81   H9    S    
H20   O22   S    
C60   C61   A    
C35   C36   A    
C92   O2    A    
Cr5   O8    S    
Br4   C76   S    
C88   O32   S    
C25   O21   S    
C45   C89   A    
C27   H35   S    
C13   N1    A    
C75   C77   A    
Br8   C35   S    
Cr2   O13   S    
C26   C31   S    
H22   O25   S    
Br2   C58   S    
C47   N7    A    
Cr1   O18   S    
C55   C95   S    
C1    O4    A    
C18   C19   A    
Br3   C84   S    
C33   C38   A    
Cr5   O38   S    
C93   O3    A    
C14   N8    A    
C22   C24   A    
Br7   C29   S    
C57   C58   A    
C82   O30   S    
C48   N5    A    
C60   C71   S    
Cr1   O4    S    
C30   C37   S    
C11   H1    S    
C31   N12   A    
C66   C72   A    
C59   C60   A    
C53   O28   S    
C82   C90   A    
C24   C25   A    
C70   C71   T    
C33   H33   S    
Cr3   O15   S    
C10   C11   A    
C17   H12   S    
N2    N3    A    
C9    C10   A    
C23   C34   A    
C16   O16   A    
C31   N2    A    
C16   O1    A    
Cr3   O33   S    
C61   O29   S    
C95   O8    A    
H29   O31   S    
