data_mof_unit_44573.cif
_audit_creation_date              2012-12-10T19:09:05-0500
_audit_creation_method            fapswitch 2.2
_symmetry_space_group_name_H-M    P1
_symmetry_Int_Tables_number       1
_space_group_crystal_system       triclinic
_cell_length_a                    17.69887
_cell_length_b                    10.82766
_cell_length_c                    9.537066
_cell_angle_alpha                 90.013667
_cell_angle_beta                  90.249531
_cell_angle_gamma                 91.183137
_cell_volume                      1827.2509466

loop_
_atom_site_label
_atom_site_type_symbol
_atom_type_description
_atom_site_fract_x
_atom_site_fract_y
_atom_site_fract_z
_atom_type_partial_charge
C1    C     C_R   0.501314 0.262456 0.500016 0.804259
C2    C     C_R   0.884276 0.441947 0.531784 -0.130950
C3    C     C_1   0.965223 0.447398 0.529873 0.061506
C4    C     C_1   0.032877 0.454997 0.525216 -0.050084
C5    C     C_R   0.156505 0.466843 0.639748 -0.172203
C6    C     C_R   0.234745 0.478039 0.631759 -0.268141
C7    C     C_R   0.271425 0.485960 0.501165 -0.126380
C8    C     C_R   0.227638 0.478833 0.376118 0.457771
C9    C     C_R   0.148145 0.474101 0.386795 -0.254358
C10   C     C_R   0.113362 0.465350 0.517431 0.076442
C11   C     C_R   0.526573 0.062880 0.616670 -0.025289
C12   C     C_R   0.355155 0.496383 0.499743 0.789324
C13   C     C_R   0.503446 0.129199 0.498629 -0.163109
C14   C     C_R   0.476817 0.065311 0.379805 -0.311703
C15   C     C_R   0.466313 0.937106 0.383340 0.472815
C16   C     C_R   0.490318 0.871019 0.502042 -0.147233
C17   C     C_R   0.517009 0.935879 0.619450 -0.085801
C18   C     C_3   0.483490 0.940561 0.763884 0.248491
C19   C     C_3   0.501578 0.078198 0.766467 0.265267
C20   C     C_R   0.562398 0.538950 0.073354 0.243382
C21   C     C_R   0.441957 0.447784 0.074038 -0.046789
C22   C     C_R   0.441508 0.448747 0.925095 -0.092448
C23   C     C_R   0.495043 0.737329 0.500328 0.812228
C24   C     C_R   0.563593 0.533690 0.926464 0.171584
C25   C     C_3   0.606586 0.651936 0.914731 -0.597954
C26   C     C_3   0.602282 0.662565 0.074085 0.237095
C27   C     C_R   0.644879 0.496771 0.500589 0.862348
C28   C     C_R   0.843314 0.480466 0.649532 0.446084
C29   C     C_R   0.765845 0.498761 0.635028 -0.362675
C30   C     C_R   0.728200 0.481544 0.505834 -0.257501
C31   C     C_R   0.769882 0.442004 0.388495 0.365090
C32   C     C_R   0.846323 0.409096 0.408006 0.301443
Cu1   Cu    Cu3+1 0.500000 0.499980 0.640670 0.913914
Cu2   Cu    Cu3+1 0.500000 0.500020 0.359330 1.004626
N1    N     N_R   0.500470 0.500930 0.147930 -0.169409
N2    N     N_R   0.500480 0.500890 0.852020 -0.176141
O1    O     O_R   0.500000 0.319640 0.618810 -0.605918
O2    O     O_R   0.500010 0.319680 0.381230 -0.585429
O3    O     O_R   0.391250 0.499990 0.618840 -0.598918
O4    O     O_R   0.391260 0.500020 0.381250 -0.546891
O5    O     O_R   0.499990 0.680320 0.618770 -0.601667
O6    O     O_R   0.500000 0.680360 0.381190 -0.498016
O7    O     O_R   0.608740 0.499980 0.618750 -0.595912
O8    O     O_R   0.608750 0.500010 0.381160 -0.542685
O9    O     O_3   0.876436 0.508638 0.778412 -0.619395
C33   C     C_3   0.916332 0.408508 0.837798 0.045833
H1    H     H_    0.932052 0.436263 0.946360 0.168738
H2    H     H_    0.970828 0.393913 0.784618 0.146303
C34   C     C_3   0.870116 0.286683 0.846541 -0.395311
H3    H     H_    0.816456 0.302087 0.903337 0.212200
H4    H     H_    0.856713 0.252379 0.739613 0.222382
C35   C     C_3   0.914917 0.186977 0.920833 -0.919365
H5    H     H_    0.964312 0.161292 0.856385 0.257964
H6    H     H_    0.878402 0.103556 0.936719 0.253071
H7    H     H_    0.935535 0.220612 0.024200 0.265194
O10   O     O_3   0.430809 0.877136 0.272297 -0.579913
C36   C     C_3   0.352392 0.901461 0.274630 0.028848
H8    H     H_    0.331235 0.898049 0.165180 0.159211
H9    H     H_    0.338815 0.995407 0.314222 0.134042
C37   C     C_3   0.309986 0.803022 0.360437 -0.340884
H10   H     H_    0.321959 0.710714 0.316501 0.262406
H11   H     H_    0.329855 0.805952 0.471066 0.210222
C38   C     C_3   0.224902 0.822780 0.357278 -0.906366
H12   H     H_    0.211708 0.915239 0.400126 0.256153
H13   H     H_    0.196056 0.751336 0.422489 0.265083
H14   H     H_    0.203044 0.815324 0.248183 0.258605
O11   O     O_3   0.404461 0.916521 0.760627 -0.628498
C39   C     C_3   0.385606 0.819766 0.854144 0.059533
H15   H     H_    0.400111 0.847418 0.963502 0.175850
H16   H     H_    0.416616 0.734696 0.827177 0.190585
C40   C     C_3   0.300884 0.791144 0.844068 -0.345140
H17   H     H_    0.268945 0.875071 0.871429 0.222457
H18   H     H_    0.286289 0.764161 0.734591 0.229573
C41   C     C_3   0.277527 0.686166 0.942577 -0.893783
H19   H     H_    0.310174 0.602403 0.919401 0.249209
H20   H     H_    0.216430 0.663982 0.928610 0.249790
H21   H     H_    0.287778 0.712856 0.053312 0.276866
H22   H     H_    0.516578 0.889726 0.842950 0.085663
H23   H     H_    0.451222 0.136740 0.780198 0.134040
O12   O     O_3   0.558681 0.101913 0.869818 -0.653964
C42   C     C_3   0.620611 0.175190 0.822510 0.091361
H24   H     H_    0.641503 0.231357 0.912736 0.134913
H25   H     H_    0.604635 0.243748 0.742466 0.185551
C43   C     C_3   0.685339 0.092979 0.773119 -0.357725
H26   H     H_    0.730906 0.093264 0.853710 0.191952
H27   H     H_    0.665214 0.995669 0.760415 0.230812
C44   C     C_3   0.718353 0.137233 0.633822 -0.936777
H28   H     H_    0.675731 0.126949 0.548823 0.265189
H29   H     H_    0.768203 0.081519 0.606774 0.252902
H30   H     H_    0.735996 0.235809 0.640999 0.248540
H31   H     H_    0.395228 0.406139 0.129614 0.161094
H32   H     H_    0.393599 0.408937 0.869343 0.127346
H33   H     H_    0.664873 0.638576 0.877016 0.153385
H34   H     H_    0.575001 0.720793 0.854806 0.216495
H35   H     H_    0.656938 0.658895 0.129664 0.105112
H36   H     H_    0.735161 0.527507 0.726561 0.194901
O13   O     O_3   0.555203 0.758495 0.119255 -0.546238
C45   C     C_3   0.592523 0.874989 0.103786 0.121822
H37   H     H_    0.548170 0.945976 0.100141 0.213035
H38   H     H_    0.624189 0.883516 0.003463 0.124534
C46   C     C_3   0.645931 0.904355 0.227012 -0.383474
H39   H     H_    0.617409 0.884260 0.327895 0.229138
H40   H     H_    0.696562 0.846365 0.220464 0.199426
C47   C     C_3   0.672235 0.039405 0.224753 -0.885824
H41   H     H_    0.702400 0.060737 0.125489 0.249577
H42   H     H_    0.711535 0.056680 0.313662 0.245104
H43   H     H_    0.623408 0.101467 0.235290 0.276044
O14   O     O_3   0.734582 0.433630 0.258051 -0.610705
C48   C     C_3   0.776851 0.492898 0.149323 0.088118
H44   H     H_    0.738245 0.501299 0.058002 0.140195
H45   H     H_    0.822546 0.433486 0.111389 0.186034
C49   C     C_3   0.808884 0.622779 0.188003 -0.412574
H46   H     H_    0.767666 0.672822 0.252794 0.206713
H47   H     H_    0.861299 0.614030 0.251305 0.223817
C50   C     C_3   0.828426 0.699112 0.058265 -0.875671
H48   H     H_    0.873029 0.653408 0.997062 0.294614
H49   H     H_    0.850044 0.791625 0.090730 0.247536
H50   H     H_    0.777781 0.711544 0.991327 0.246859
O15   O     O_3   0.884957 0.345776 0.305878 -0.622193
C51   C     C_3   0.858121 0.221542 0.301033 0.063819
H51   H     H_    0.836151 0.202550 0.193803 0.171039
H52   H     H_    0.810901 0.199261 0.374870 0.132902
C52   C     C_3   0.923202 0.135412 0.333611 -0.344806
H53   H     H_    0.971340 0.156181 0.262407 0.226065
H54   H     H_    0.942601 0.151030 0.443343 0.219175
C53   C     C_3   0.898712 0.000374 0.315878 -0.925489
H55   H     H_    0.851849 0.976600 0.388811 0.256529
H56   H     H_    0.947091 0.939883 0.339085 0.263710
H57   H     H_    0.879634 0.983354 0.206420 0.254729
H58   H     H_    0.129663 0.460108 0.741478 0.133360
H59   H     H_    0.266605 0.478902 0.728718 0.168908
O16   O     O_3   0.263477 0.484933 0.246557 -0.618444
C54   C     C_3   0.236605 0.392966 0.151354 0.046843
H60   H     H_    0.267294 0.407515 0.051246 0.153195
H61   H     H_    0.176216 0.403915 0.123579 0.130235
C55   C     C_3   0.251876 0.260984 0.202863 -0.385340
H62   H     H_    0.311980 0.253548 0.235341 0.214602
H63   H     H_    0.215855 0.239037 0.295040 0.213390
C56   C     C_3   0.234487 0.166176 0.088110 -0.926251
H64   H     H_    0.175060 0.173977 0.051747 0.258803
H65   H     H_    0.242245 0.071642 0.129810 0.250644
H66   H     H_    0.273160 0.180615 0.997863 0.255422
H67   H     H_    0.112721 0.478111 0.294324 0.139595
H68   H     H_    0.458597 0.114953 0.287370 0.169163

loop_
_geom_bond_atom_site_label_1
_geom_bond_atom_site_label_2
_ccdc_geom_bond_type
C44   H28   S    
C38   H13   S    
C25   H33   S    
C53   H55   S    
C11   C13   A    
C31   O14   S    
Cu2   O6    S    
C43   C44   S    
C47   H42   S    
C42   H24   S    
C9    H67   S    
C52   H53   S    
O9    C33   S    
O10   C36   S    
C33   C34   S    
C11   C19   S    
C24   N2    A    
C23   O6    A    
C41   H20   S    
C37   C38   S    
Cu2   O4    S    
C2    C32   A    
C28   C29   A    
C43   H27   S    
C18   C19   S    
C48   H45   S    
C5    C6    A    
C56   H66   S    
C36   H9    S    
C50   H48   S    
Cu1   N2    S    
O14   C48   S    
C37   H11   S    
Cu2   N1    S    
C49   H46   S    
C20   N1    A    
C27   O8    A    
C20   C24   A    
C51   H52   S    
C8    C9    A    
C50   H49   S    
C41   H21   S    
C8    O16   S    
C54   C55   S    
C9    C10   A    
C51   C52   S    
C1    O1    A    
C50   H50   S    
C38   H14   S    
C25   H34   S    
C46   H40   S    
C21   C22   A    
C27   C30   S    
C55   C56   S    
C49   H47   S    
C47   H41   S    
C42   H25   S    
C35   H6    S    
O13   C45   S    
C33   H2    S    
C7    C12   S    
C14   H68   S    
C28   O9    S    
C41   H19   S    
O11   C39   S    
Cu1   O7    S    
C46   H39   S    
C7    C8    A    
Cu2   O8    S    
C24   C25   S    
C55   H63   S    
C48   C49   S    
C40   H18   S    
C39   H15   S    
C36   C37   S    
C53   H57   S    
C34   H4    S    
C18   O11   S    
Cu1   O1    S    
C37   H10   S    
C12   O4    A    
C29   C30   A    
C29   H36   S    
C31   C32   A    
C30   C31   A    
C18   H22   S    
C34   C35   S    
C17   C18   S    
Cu1   O3    S    
C35   H5    S    
C43   H26   S    
O15   C51   S    
C19   H23   S    
C1    O2    A    
C5    H58   S    
C45   H37   S    
C16   C23   S    
C45   H38   S    
C44   H29   S    
C54   H60   S    
C1    C13   S    
C32   O15   S    
C4    C10   S    
C3    C4    T    
C42   C43   S    
C51   H51   S    
C21   H31   S    
C26   H35   S    
C33   H1    S    
C11   C17   A    
C53   H56   S    
Cu2   O2    S    
C6    H59   S    
O12   C42   S    
C52   C53   S    
C40   C41   S    
C56   H64   S    
C35   H7    S    
C6    C7    A    
C21   N1    A    
C46   C47   S    
C45   C46   S    
C22   N2    A    
C23   O5    A    
Cu1   O5    S    
C15   O10   S    
C12   O3    A    
C2    C3    S    
C25   C26   S    
C5    C10   A    
C48   H44   S    
C56   H65   S    
C36   H8    S    
C16   C17   A    
C20   C26   S    
C39   C40   S    
Cu1   Cu2   S    
O16   C54   S    
C47   H43   S    
C19   O12   S    
C52   H54   S    
C26   O13   S    
C38   H12   S    
C27   O7    A    
C40   H17   S    
C39   H16   S    
C34   H3    S    
C44   H30   S    
C54   H61   S    
C22   H32   S    
C14   C15   A    
C55   H62   S    
C2    C28   A    
C13   C14   A    
C49   C50   S    
C15   C16   A    
