data_mof_unit_31472.cif
_audit_creation_date              2012-12-10T16:49:22-0500
_audit_creation_method            fapswitch 2.2
_symmetry_space_group_name_H-M    P1
_symmetry_Int_Tables_number       1
_space_group_crystal_system       triclinic
_cell_length_a                    7.785272
_cell_length_b                    8.66788
_cell_length_c                    12.751275
_cell_angle_alpha                 88.880851
_cell_angle_beta                  88.165737
_cell_angle_gamma                 93.345195
_cell_volume                      858.375222394

loop_
_atom_site_label
_atom_site_type_symbol
_atom_type_description
_atom_site_fract_x
_atom_site_fract_y
_atom_site_fract_z
_atom_type_partial_charge
C1    C     C_R   0.453922 0.205474 0.502321 0.841385
C2    C     C_R   0.625698 0.343995 0.146313 0.126830
C3    C     C_R   0.523807 0.415115 0.870944 -0.306427
C4    C     C_R   0.475311 0.584129 0.129133 -0.310189
C5    C     C_R   0.534899 0.434761 0.977173 0.135026
C6    C     C_R   0.464183 0.564416 0.022931 0.137698
C7    C     C_2   0.425706 0.041889 0.514608 0.174842
C8    C     C_2   0.563915 0.954731 0.525830 0.197469
C9    C     C_3   0.703759 0.223827 0.216802 -0.349160
C10   C     C_3   0.759334 0.077494 0.163202 -0.933580
C11   C     C_3   0.297012 0.776383 0.783382 -0.326809
C12   C     C_R   0.542886 0.793349 0.509572 0.839631
C13   C     C_3   0.242216 0.922998 0.836929 -0.924689
C14   C     C_3   0.073534 0.664756 0.316467 -0.200592
C15   C     C_3   0.946935 0.358722 0.689674 -0.138063
C16   C     C_3   0.152492 0.007824 0.446798 -0.152133
C17   C     C_3   0.775094 0.986256 0.644071 -0.268527
C18   C     C_R   0.466729 0.507751 0.699325 0.831834
C19   C     C_R   0.533210 0.492072 0.300706 0.846685
C20   C     C_R   0.552403 0.474940 0.190099 -0.091260
C21   C     C_R   0.447304 0.524668 0.809953 -0.091600
C22   C     C_R   0.382288 0.672478 0.962385 -0.201997
C23   C     C_R   0.616944 0.326788 0.037746 -0.204857
C24   C     C_R   0.374052 0.655613 0.853803 0.104730
H1    H     H_    0.419785 0.682904 0.165508 0.133555
H2    H     H_    0.135811 0.894916 0.895531 0.253060
H3    H     H_    0.353342 0.982234 0.875154 0.254746
H4    H     H_    0.194939 0.003665 0.777066 0.270805
H5    H     H_    0.393959 0.813392 0.720827 0.196655
H6    H     H_    0.182518 0.722418 0.745512 0.228302
H7    H     H_    0.088087 0.553097 0.276543 0.167486
H8    H     H_    0.198777 0.727391 0.329787 0.178454
H9    H     H_    0.002429 0.738652 0.262969 0.130579
H10   H     H_    0.819043 0.296189 0.693377 0.169010
H11   H     H_    0.940050 0.479449 0.717236 0.141534
H12   H     H_    0.578975 0.316179 0.834587 0.130703
H13   H     H_    0.029750 0.298088 0.744287 0.127239
H14   H     H_    0.223345 0.008149 0.369433 0.082990
H15   H     H_    0.086215 0.116395 0.457195 0.227833
H16   H     H_    0.047563 0.916674 0.446795 0.240522
H17   H     H_    0.775902 0.860583 0.662807 0.166599
H18   H     H_    0.686924 0.041343 0.700647 0.123026
H19   H     H_    0.907916 0.035028 0.655025 0.217141
H20   H     H_    0.328629 0.769952 0.000632 0.149554
H21   H     H_    0.670573 0.229292 0.999507 0.148237
H22   H     H_    0.648347 0.017458 0.125334 0.259342
H23   H     H_    0.865080 0.106124 0.104249 0.258031
H24   H     H_    0.807831 0.997355 0.222970 0.258496
H25   H     H_    0.818328 0.278578 0.254177 0.226110
H26   H     H_    0.607589 0.186541 0.279905 0.189616
N1    N     N_2   0.054030 0.541640 0.471970 0.191709
N2    N     N_2   0.945970 0.458360 0.528030 0.193110
O1    O     O_R   0.609680 0.261530 0.506880 -0.581237
O2    O     O_3   0.020733 0.353886 0.588201 -0.518296
O3    O     O_3   0.257813 0.978349 0.532409 -0.615764
O4    O     O_3   0.730351 0.016247 0.539377 -0.594591
O5    O     O_R   0.390320 0.738470 0.493120 -0.602708
O6    O     O_R   0.323330 0.288220 0.488910 -0.586558
O7    O     O_R   0.676670 0.711780 0.511090 -0.563649
O8    O     O_R   0.619510 0.488830 0.661140 -0.659550
O9    O     O_R   0.380490 0.511170 0.338860 -0.657986
O10   O     O_R   0.333160 0.515520 0.643180 -0.599647
O11   O     O_R   0.666840 0.484480 0.356820 -0.593914
O12   O     O_3   0.976542 0.642809 0.410427 -0.525320
Zn1   Zn    Zn3+2 0.691200 0.482180 0.511990 1.031469
Zn2   Zn    Zn3+2 0.308800 0.517820 0.488010 1.017058

loop_
_geom_bond_atom_site_label_1
_geom_bond_atom_site_label_2
_ccdc_geom_bond_type
C10   H22   S    
N2    Zn1   S    
C17   H19   S    
C13   H4    S    
C23   H21   S    
C18   C21   S    
O1    Zn1   S    
C9    C10   S    
O5    Zn2   S    
C15   H10   S    
C13   H3    S    
C19   C20   S    
C5    C23   A    
C7    O3    S    
C14   H7    S    
C8    C12   S    
C14   O12   S    
C8    O4    S    
C14   H9    S    
O11   Zn1   S    
C4    H1    S    
C16   O3    S    
C7    C8    D    
C1    O6    A    
O7    Zn1   S    
C11   C13   S    
C17   O4    S    
C22   H20   S    
C3    H12   S    
C16   H16   S    
C12   O5    A    
C18   O8    A    
C19   O9    A    
O8    Zn1   S    
C22   C24   A    
C10   H24   S    
C5    C6    A    
C17   H17   S    
C13   H2    S    
C3    C21   A    
C9    H26   S    
C16   H15   S    
C2    C20   A    
N1    N2    D    
C4    C20   A    
C15   O2    S    
C11   C24   S    
C2    C23   A    
C2    C9    S    
C9    H25   S    
C11   H5    S    
C4    C6    A    
C21   C24   A    
C19   O11   A    
C10   H23   S    
C15   H11   S    
O10   Zn2   S    
C17   H18   S    
C15   H13   S    
C1    O1    A    
C16   H14   S    
C1    C7    S    
C12   O7    A    
C14   H8    S    
O9    Zn2   S    
O6    Zn2   S    
C18   O10   A    
N1    O12   S    
C11   H6    S    
N2    O2    S    
C3    C5    A    
N1    Zn2   S    
C6    C22   A    
