data_mof_unit_6077.cif
_audit_creation_date              2012-12-10T17:13:35-0500
_audit_creation_method            fapswitch 2.2
_symmetry_space_group_name_H-M    P1
_symmetry_Int_Tables_number       1
_space_group_crystal_system       triclinic
_cell_length_a                    10.811941
_cell_length_b                    13.128178
_cell_length_c                    11.662048
_cell_angle_alpha                 99.416226
_cell_angle_beta                  93.709987
_cell_angle_gamma                 90.6468
_cell_volume                      1629.19513271

loop_
_atom_site_label
_atom_site_type_symbol
_atom_type_description
_atom_site_fract_x
_atom_site_fract_y
_atom_site_fract_z
_atom_type_partial_charge
C1    C     C_R   0.501886 0.299459 0.479740 0.819221
C2    C     C_3   0.878009 0.499787 0.498911 0.014458
C3    C     C_3   0.929703 0.613009 0.493334 0.250003
C4    C     C_3   0.922333 0.420865 0.393314 -0.195106
C5    C     C_R   0.489759 0.813724 0.532274 -0.137280
C6    C     C_R   0.505344 0.186738 0.471022 -0.114473
C7    C     C_R   0.513714 0.020028 0.349460 -0.197769
C8    C     C_R   0.508305 0.126379 0.360880 -0.182814
C9    C     C_R   0.505230 0.138274 0.571115 -0.054629
C10   C     C_R   0.488064 0.030336 0.557357 0.076407
C11   C     C_R   0.503909 0.970593 0.446852 0.068965
C12   C     C_R   0.260064 0.497102 0.500708 0.800496
C13   C     C_R   0.511809 0.862795 0.435996 0.089689
C14   C     C_R   0.454038 0.872890 0.637181 -0.130841
C15   C     C_R   0.454704 0.980806 0.650293 0.089095
C16   C     C_R   0.383879 0.402872 0.020840 -0.323889
C17   C     C_R   0.395308 0.410459 0.142688 0.170870
C18   C     C_R   0.549051 0.543033 0.157176 0.060392
C19   C     C_R   0.541254 0.536527 0.034393 0.043036
C20   C     C_R   0.456990 0.465945 0.965758 0.057054
C21   C     C_R   0.448794 0.459283 0.843225 0.044804
C22   C     C_R   0.606044 0.588689 0.856045 0.408405
C23   C     C_R   0.498678 0.700680 0.520874 0.816072
C24   C     C_R   0.615779 0.598350 0.978608 -0.350087
C25   C     C_R   0.739997 0.498651 0.499250 0.797785
C26   C     C_3   0.078024 0.468335 0.622181 -0.045865
C27   C     C_3   0.932399 0.463565 0.614451 -0.119213
C28   C     C_3   0.074407 0.607199 0.484539 -0.029311
C29   C     C_3   0.065277 0.417246 0.401365 -0.493556
C30   C     C_3   0.122352 0.498324 0.504616 -0.020670
Cu1   Cu    Cu3+1 0.509350 0.507730 0.615930 0.995728
Cu2   Cu    Cu3+1 0.490650 0.492270 0.384070 0.961501
H1    H     H_    0.095603 0.615039 0.393841 0.149437
H2    H     H_    0.522298 0.977389 0.262918 0.143206
H3    H     H_    0.511109 0.161516 0.283227 0.171685
H4    H     H_    0.383637 0.405393 0.790013 0.146443
H5    H     H_    0.319232 0.347036 0.969256 0.155571
H6    H     H_    0.681547 0.653595 0.029309 0.145351
H7    H     H_    0.613597 0.597405 0.210597 0.147804
H8    H     H_    0.899372 0.517682 0.689280 0.161659
H9    H     H_    0.102187 0.431414 0.318253 0.205035
H10   H     H_    0.094362 0.338157 0.412079 0.196751
H11   H     H_    0.884476 0.342601 0.396823 0.135438
N1    N     N_R   0.523430 0.519360 0.790130 -0.177285
N2    N     N_R   0.476570 0.480640 0.209880 -0.209858
O1    O     O_R   0.506640 0.354460 0.582000 -0.582257
O2    O     O_R   0.490840 0.341410 0.386200 -0.586918
O3    O     O_R   0.325590 0.506510 0.597900 -0.578730
O4    O     O_R   0.309790 0.493450 0.402100 -0.597813
O5    O     O_R   0.509160 0.658590 0.613800 -0.565146
O6    O     O_R   0.493360 0.645540 0.418000 -0.561539
O7    O     O_R   0.690210 0.506550 0.597900 -0.554053
O8    O     O_R   0.674410 0.493490 0.402100 -0.595261
C31   C     C_1   0.121939 0.544970 0.725141 0.260678
N3    N     N_1   0.156235 0.604480 0.805786 -0.254959
C32   C     C_1   0.877775 0.441763 0.276848 0.337121
N4    N     N_1   0.843306 0.457647 0.185520 -0.284721
N5    N     N_3   0.875815 0.650140 0.388787 -0.589646
H12   H     H_    0.781910 0.665409 0.397595 0.228498
H13   H     H_    0.917586 0.721299 0.383156 0.223245
N6    N     N_3   0.546523 0.802853 0.328761 -0.585726
H14   H     H_    0.631518 0.830816 0.307371 0.208382
H15   H     H_    0.478246 0.808567 0.262580 0.224394
C33   C     C_1   0.412037 0.824837 0.731838 0.272613
N7    N     N_1   0.378387 0.786841 0.807448 -0.253415
N8    N     N_3   0.412079 0.040099 0.754683 -0.581201
H16   H     H_    0.320556 0.017718 0.763687 0.235428
H17   H     H_    0.467631 0.024474 0.826271 0.227101
C34   C     C_1   0.540798 0.195500 0.686284 0.344670
N9    N     N_1   0.570254 0.240357 0.778109 -0.281628
C35   C     C_1   0.132805 0.369103 0.643121 0.193374
N10   N     N_1   0.175708 0.291859 0.659239 -0.299276
N11   N     N_3   0.682825 0.652452 0.800551 -0.543114
H18   H     H_    0.664456 0.729575 0.832296 0.202180
H19   H     H_    0.775245 0.639593 0.825314 0.184330
C36   C     C_1   0.321749 0.340131 0.193923 0.288679
N12   N     N_1   0.262680 0.282398 0.233673 -0.318947
N13   N     N_3   0.879184 0.362078 0.626733 -0.575931
H20   H     H_    0.899406 0.348997 0.712004 0.240291
H21   H     H_    0.916545 0.301861 0.570520 0.231161
N14   N     N_3   0.140781 0.692855 0.562418 -0.559178
H22   H     H_    0.233459 0.694120 0.542356 0.202181
H23   H     H_    0.106098 0.762392 0.542450 0.239582
N15   N     N_3   0.898557 0.688468 0.595557 -0.595152
H24   H     H_    0.944540 0.674964 0.672740 0.240069
H25   H     H_    0.803248 0.687646 0.605412 0.220920

loop_
_geom_bond_atom_site_label_1
_geom_bond_atom_site_label_2
_ccdc_geom_bond_type
N8    H17   S    
C29   H10   S    
Cu2   N2    S    
C19   C20   A    
Cu1   O7    S    
C12   O3    A    
C27   N13   S    
C6    C9    A    
C12   O4    A    
C7    C8    A    
C21   H4    S    
C7    C11   A    
C26   C27   S    
C3    C28   S    
C9    C34   S    
C10   C15   A    
N13   H21   S    
C1    O1    A    
N5    H13   S    
C32   N4    T    
C18   C19   A    
N11   H18   S    
N6    H15   S    
C22   N1    A    
C16   C17   A    
Cu1   O1    S    
C17   C36   S    
C24   H6    S    
C2    C27   S    
C9    C10   A    
C5    C13   A    
C4    C29   S    
C16   H5    S    
C12   C30   S    
N8    H16   S    
C4    C32   S    
C26   C35   S    
N11   H19   S    
C34   N9    T    
C26   C31   S    
N14   H23   S    
N14   H22   S    
Cu1   N1    S    
C1    C6    S    
C36   N12   T    
N13   H20   S    
C1    O2    A    
C23   O5    A    
C6    C8    A    
N5    H12   S    
C15   N8    S    
C17   N2    A    
C8    H3    S    
C2    C4    S    
C18   H7    S    
Cu2   O6    S    
C29   C30   S    
C21   N1    A    
C23   O6    A    
Cu1   Cu2   S    
C5    C23   S    
C27   H8    S    
C16   C20   A    
C14   C33   S    
N15   H24   S    
C5    C14   A    
C28   H1    S    
C26   C30   S    
Cu1   O3    S    
Cu2   O2    S    
C22   C24   A    
Cu1   O5    S    
C18   N2    A    
Cu2   O8    S    
C31   N3    T    
C29   H9    S    
C28   N14   S    
N15   H25   S    
C4    H11   S    
C33   N7    T    
C28   C30   S    
C2    C3    S    
C25   O7    A    
C35   N10   T    
C11   C13   A    
C7    H2    S    
C19   C24   A    
C2    C25   S    
N6    H14   S    
Cu2   O4    S    
C10   C11   A    
C3    N5    S    
C13   N6    S    
C20   C21   A    
C3    N15   S    
C14   C15   A    
C22   N11   S    
C25   O8    A    
