data_mof_unit_65222.cif
_audit_creation_date              2012-12-10T19:47:58-0500
_audit_creation_method            fapswitch 2.2
_symmetry_space_group_name_H-M    P1
_symmetry_Int_Tables_number       1
_space_group_crystal_system       triclinic
_cell_length_a                    14.801848
_cell_length_b                    14.318641
_cell_length_c                    10.546642
_cell_angle_alpha                 97.292685
_cell_angle_beta                  87.490674
_cell_angle_gamma                 92.73872
_cell_volume                      2213.06038213

loop_
_atom_site_label
_atom_site_type_symbol
_atom_type_description
_atom_site_fract_x
_atom_site_fract_y
_atom_site_fract_z
_atom_type_partial_charge
C1    C     C_R   0.327640 0.496273 0.488527 0.896269
C2    C     C_R   0.672363 0.503725 0.511457 0.896280
C3    C     C_R   0.045106 0.490371 0.467835 -0.056154
C4    C     C_R   0.954924 0.509543 0.531528 -0.056357
C5    C     C_R   0.519723 0.095572 0.385279 0.321642
C6    C     C_R   0.480276 0.904428 0.614678 0.321626
C7    C     C_R   0.440599 0.110564 0.585664 0.310702
C8    C     C_R   0.559441 0.889410 0.414318 0.310763
C9    C     C_R   0.529308 0.195190 0.392752 -0.043168
C10   C     C_R   0.470656 0.804817 0.607213 -0.043127
C11   C     C_R   0.449763 0.210147 0.591662 -0.028059
C12   C     C_R   0.550303 0.789826 0.408381 -0.028015
C13   C     C_R   0.493532 0.052668 0.495393 -0.005421
C14   C     C_R   0.506485 0.947315 0.504558 -0.005422
C15   C     C_R   0.502930 0.493387 0.258165 0.857183
C16   C     C_R   0.497052 0.506612 0.741836 0.857224
C17   C     C_R   0.345566 0.410699 0.111901 -0.228460
C18   C     C_R   0.654387 0.589298 0.888106 -0.228464
C19   C     C_R   0.324383 0.506968 0.901590 -0.201367
C20   C     C_R   0.675587 0.492995 0.098374 -0.201321
C21   C     C_R   0.259252 0.416858 0.064882 0.330171
C22   C     C_R   0.740712 0.583087 0.935055 0.330177
C23   C     C_R   0.248244 0.468083 0.963476 0.372467
C24   C     C_R   0.751726 0.531848 0.036447 0.372490
C25   C     C_R   0.413339 0.497815 0.945353 -0.011135
C26   C     C_R   0.586625 0.502174 0.054642 -0.011200
C27   C     C_R   0.421945 0.460388 0.060553 -0.019696
C28   C     C_R   0.578014 0.539611 0.939457 -0.019729
C29   C     C_R   0.493841 0.525027 0.879371 -0.090924
C30   C     C_R   0.506124 0.474971 0.120632 -0.090902
C31   C     C_R   0.095322 0.557184 0.403366 0.423747
C32   C     C_R   0.904759 0.442734 0.596089 0.423573
C33   C     C_R   0.915448 0.596415 0.531716 0.426762
C34   C     C_R   0.084597 0.403524 0.467775 0.426800
C35   C     C_R   0.189639 0.558779 0.406186 -0.126018
C36   C     C_R   0.810442 0.441149 0.593448 -0.125814
C37   C     C_R   0.821722 0.597383 0.525339 -0.123365
C38   C     C_R   0.178301 0.402601 0.474480 -0.123445
C39   C     C_R   0.230892 0.486915 0.460862 -0.255201
C40   C     C_R   0.769136 0.513063 0.538970 -0.255266
N1    N     N_R   0.500000 0.252470 0.500000 -0.170962
N2    N     N_R   0.500000 0.747530 0.500000 -0.170998
O1    O     O_R   0.369060 0.579480 0.500010 -0.598780
O2    O     O_R   0.630940 0.420520 0.499990 -0.598818
O3    O     O_R   0.630940 0.579480 0.499990 -0.636920
O4    O     O_R   0.369060 0.420520 0.500010 -0.636908
O5    O     O_R   0.499990 0.579480 0.316780 -0.611021
O6    O     O_R   0.500010 0.420520 0.683220 -0.611054
O7    O     O_R   0.500010 0.579480 0.683220 -0.639177
O8    O     O_R   0.499990 0.420520 0.316780 -0.639175
Zn1   Zn    Zn3+2 0.500000 0.606140 0.500000 0.970324
Zn2   Zn    Zn3+2 0.500000 0.393860 0.500000 0.970314
Cl1   Cl    Cl    0.862270 0.519153 0.088713 -0.352876
Cl2   Cl    Cl    0.137707 0.480723 0.911143 -0.352812
Cl3   Cl    Cl    0.836263 0.640732 0.867365 -0.426462
Cl4   Cl    Cl    0.163702 0.359153 0.132483 -0.426370
C41   C     C_1   0.355127 0.338679 0.193797 0.345641
N3    N     N_1   0.360563 0.279335 0.257574 -0.142844
C42   C     C_1   0.644800 0.661387 0.806332 0.345679
N4    N     N_1   0.639330 0.720789 0.742661 -0.142835
C43   C     C_1   0.305484 0.566588 0.806733 0.296162
N5    N     N_1   0.285201 0.615067 0.733998 -0.126331
C44   C     C_1   0.694482 0.433373 0.193230 0.296230
N6    N     N_1   0.714757 0.384889 0.265964 -0.126418
Cl5   Cl    Cl    0.043025 0.621410 0.295628 -0.391116
Cl6   Cl    Cl    0.957128 0.378534 0.703792 -0.391387
Cl7   Cl    Cl    0.979525 0.703438 0.571217 -0.406268
Cl8   Cl    Cl    0.020587 0.296472 0.428203 -0.406075
C45   C     C_1   0.242471 0.629601 0.345174 0.360056
N7    N     N_1   0.284707 0.686018 0.296171 -0.116694
C46   C     C_1   0.757669 0.370274 0.654451 0.360255
N8    N     N_1   0.715484 0.313809 0.703442 -0.116649
C47   C     C_1   0.783387 0.686311 0.511544 0.403256
N9    N     N_1   0.754606 0.758653 0.501907 -0.103194
C48   C     C_1   0.216600 0.313742 0.488843 0.403264
N10   N     N_1   0.245350 0.241453 0.498978 -0.103126
Cl9   Cl    Cl    0.505329 0.030491 0.231635 -0.446649
Cl10  Cl    Cl    0.494712 0.969500 0.768320 -0.446704
Cl11  Cl    Cl    0.340588 0.061994 0.656020 -0.444827
Cl12  Cl    Cl    0.659441 0.937989 0.343950 -0.444836
C49   C     C_1   0.555485 0.233332 0.276340 0.403606
N11   N     N_1   0.574504 0.259207 0.178720 -0.146119
C50   C     C_1   0.444435 0.766681 0.723613 0.403629
N12   N     N_1   0.425382 0.740809 0.821225 -0.146088
C51   C     C_1   0.394583 0.265080 0.686179 0.404207
N13   N     N_1   0.348946 0.307283 0.762495 -0.173047
C52   C     C_1   0.605640 0.734854 0.314102 0.404109
N14   N     N_1   0.651418 0.692604 0.238016 -0.173041

loop_
_geom_bond_atom_site_label_1
_geom_bond_atom_site_label_2
_ccdc_geom_bond_type
C52   N14   T    
C10   N2    A    
C47   N9    T    
C19   C23   A    
C15   O5    A    
C16   O6    A    
C49   N11   T    
C51   N13   T    
C7    C11   A    
C15   C30   S    
C32   C36   A    
C7    Cl11  S    
C28   C29   A    
C11   C51   S    
C37   C40   A    
C38   C39   A    
C1    O4    A    
C6    Cl10  S    
O3    Zn1   S    
O4    Zn2   S    
C10   C50   S    
C15   O8    A    
C12   N2    A    
C1    O1    A    
C20   C24   A    
C2    O2    A    
O7    Zn1   S    
O8    Zn2   S    
N1    Zn2   S    
C5    C13   A    
C36   C46   S    
N2    Zn1   S    
O2    Zn2   S    
C42   N4    T    
C34   C38   A    
C13   C14   S    
C27   C30   A    
C43   N5    T    
C38   C48   S    
C2    O3    A    
C25   C29   A    
C17   C27   A    
C36   C40   A    
C18   C28   A    
C16   O7    A    
C34   Cl8   S    
O5    Zn1   S    
C3    C34   A    
C24   Cl1   S    
C33   C37   A    
C35   C39   A    
C48   N10   T    
C5    C9    A    
C6    C14   A    
C50   N12   T    
C7    C13   A    
C8    C12   A    
C3    C31   A    
C4    C32   A    
C26   C30   A    
C21   C23   A    
C22   C24   A    
C5    Cl9   S    
C3    C4    S    
C33   Cl7   S    
C23   Cl2   S    
C32   Cl6   S    
C31   Cl5   S    
C37   C47   S    
C4    C33   A    
C8    C14   A    
C12   C52   S    
C18   C22   A    
C9    N1    A    
C6    C10   A    
C21   Cl4   S    
C22   Cl3   S    
C25   C27   A    
C26   C28   A    
C20   C44   S    
C16   C29   S    
C46   N8    T    
O1    Zn1   S    
C41   N3    T    
C20   C26   A    
C19   C43   S    
C11   N1    A    
C31   C35   A    
C45   N7    T    
C19   C25   A    
C17   C21   A    
C1    C39   S    
C44   N6    T    
C2    C40   S    
C18   C42   S    
O6    Zn2   S    
C35   C45   S    
C9    C49   S    
C8    Cl12  S    
C17   C41   S    
