data_mof_unit_37140.cif
_audit_creation_date              2012-12-11T17:47:26-0500
_audit_creation_method            fapswitch 2.2
_symmetry_space_group_name_H-M    P1
_symmetry_Int_Tables_number       1
_space_group_crystal_system       triclinic
_cell_length_a                    14.865716
_cell_length_b                    14.891262
_cell_length_c                    15.140618
_cell_angle_alpha                 110.428639
_cell_angle_beta                  109.012615
_cell_angle_gamma                 108.753778
_cell_volume                      2586.57035934

loop_
_atom_site_label
_atom_site_type_symbol
_atom_type_description
_atom_site_fract_x
_atom_site_fract_y
_atom_site_fract_z
_atom_type_partial_charge
C1    C     C_R   0.973178 0.247226 0.060629 -0.125713
C2    C     C_R   0.064315 0.139788 0.161628 -0.235023
C3    C     C_R   0.144244 0.022502 0.788814 -0.148654
C4    C     C_R   0.909006 0.934000 0.295785 -0.123254
C5    C     C_R   0.113562 0.034597 0.868241 -0.163802
C6    C     C_R   0.990630 0.996386 0.282010 -0.193918
C7    C     C_R   0.609667 0.308822 0.114260 -0.129401
C8    C     C_R   0.326812 0.680026 0.807341 -0.124466
C9    C     C_R   0.697987 0.386652 0.218042 -0.133326
C10   C     C_R   0.222088 0.612072 0.716859 -0.116469
C11   C     C_R   0.743262 0.353051 0.288899 0.116430
C12   C     C_R   0.093147 0.806102 0.008247 -0.145663
C13   C     C_R   0.155723 0.656990 0.687089 0.116434
C14   C     C_R   0.694093 0.240751 0.256459 -0.167935
C15   C     C_R   0.195502 0.770504 0.748826 -0.190785
C16   C     C_R   0.315426 0.758965 0.225012 -0.130348
C17   C     C_R   0.704888 0.194361 0.794355 -0.136657
C18   C     C_R   0.603726 0.163224 0.153234 -0.108519
C19   C     C_R   0.300014 0.838022 0.839626 -0.103525
C20   C     C_R   0.562505 0.197057 0.081625 -0.102222
C21   C     C_R   0.365731 0.792793 0.868828 -0.112855
C22   C     C_R   0.855232 0.436175 0.487717 -0.252459
C23   C     C_R   0.323911 0.787030 0.326990 0.050253
C24   C     C_R   0.035539 0.584192 0.496962 -0.253840
C25   C     C_R   0.953721 0.510159 0.585023 0.074428
C26   C     C_R   0.939327 0.507756 0.398919 0.067284
C27   C     C_R   0.045124 0.585371 0.590222 0.012633
C28   C     C_R   0.846696 0.433853 0.392742 0.021567
C29   C     C_R   0.187184 0.120988 0.975833 0.110702
C30   C     C_R   0.964260 0.991213 0.182114 0.120498
C31   C     C_R   0.320967 0.182450 0.922355 -0.142330
C32   C     C_R   0.772414 0.875371 0.116690 -0.142394
C33   C     C_R   0.223656 0.014095 0.511097 -0.123578
C34   C     C_R   0.703407 0.129667 0.701497 0.065061
C35   C     C_R   0.916207 0.033850 0.607899 -0.140104
C36   C     C_R   0.310962 0.999243 0.508479 -0.128083
C37   C     C_R   0.814033 0.984871 0.599504 -0.148396
C38   C     C_R   0.332362 0.924143 0.534922 0.107184
C39   C     C_R   0.722687 0.974979 0.521093 0.121115
C40   C     C_R   0.214358 0.409389 0.909183 -0.153570
C41   C     C_R   0.775687 0.592440 0.025563 -0.149547
C42   C     C_R   0.268217 0.867460 0.568304 -0.186982
C43   C     C_R   0.733571 0.007733 0.446816 -0.190663
C44   C     C_R   0.177041 0.878000 0.564488 -0.136705
C45   C     C_R   0.307621 0.501992 0.944114 0.030123
C46   C     C_R   0.836187 0.057476 0.456420 -0.119202
C47   C     C_R   0.154669 0.951104 0.535802 -0.122896
C48   C     C_R   0.927687 0.071613 0.537687 -0.126981
C49   C     C_R   0.522562 0.978182 0.624888 -0.229656
C50   C     C_R   0.522594 0.865143 0.435355 -0.245127
C51   C     C_R   0.619642 0.013733 0.621054 0.053844
C52   C     C_R   0.423719 0.851637 0.432442 0.070293
C53   C     C_R   0.621596 0.949008 0.528063 0.028469
C54   C     C_R   0.424286 0.908503 0.530057 0.017667
C55   C     C_R   0.247747 0.097129 0.815787 -0.095803
C56   C     C_R   0.674557 0.500204 0.950826 0.027146
C57   C     C_R   0.799799 0.874506 0.213758 -0.103454
C58   C     C_R   0.050702 0.042639 0.160160 0.019283
C59   C     C_R   0.160537 0.119290 0.060730 0.022349
C60   C     C_R   0.291704 0.194628 0.002917 -0.159771
C61   C     C_R   0.854440 0.932465 0.100254 -0.146254
C62   C     C_R   0.101045 0.988364 0.115136 0.055493
C63   C     C_R   0.099143 0.165484 0.093637 0.061008
C64   C     C_R   0.999847 0.592359 0.300722 -0.176316
C65   C     C_R   0.944000 0.409066 0.685964 -0.142739
C66   C     C_3   0.463559 0.397520 0.880140 -0.165298
C67   C     C_R   0.947065 0.501777 0.305657 0.061473
C68   C     C_3   0.509212 0.607595 0.983670 -0.180145
C69   C     C_3   0.405937 0.450551 0.828838 -0.150358
C70   C     C_3   0.565838 0.554557 0.034520 -0.142796
C71   C     C_3   0.400015 0.504035 0.931794 0.191304
C72   C     C_3   0.573256 0.500760 0.932234 0.196893
C73   C     C_3   0.456280 0.451630 0.982814 -0.154277
C74   C     C_3   0.518160 0.554240 0.881144 -0.163881
C75   C     C_R   0.304186 0.592828 0.002487 -0.128189
C76   C     C_R   0.684825 0.407818 0.934300 -0.130929
C77   C     C_R   0.913414 0.408988 0.212209 -0.127017
C78   C     C_R   0.963435 0.503305 0.679084 0.044708
C79   C     C_R   0.026805 0.593547 0.781585 -0.103908
C80   C     C_R   0.219504 0.748716 0.312049 -0.119450
C81   C     C_R   0.792407 0.196810 0.700369 -0.143308
C82   C     C_R   0.068206 0.250636 0.972196 -0.139010
C83   C     C_R   0.002751 0.803736 0.099307 -0.138708
C84   C     C_R   0.051506 0.221098 0.045469 0.056889
C85   C     C_R   0.064323 0.870242 0.073704 0.064168
C86   C     C_R   0.173286 0.042396 0.087523 -0.225771
H1    H     H_    0.937529 0.234020 0.109477 0.092926
H2    H     H_    0.192743 0.524778 0.670019 0.105254
H3    H     H_    0.727877 0.212819 0.309440 0.107844
H4    H     H_    0.144302 0.805865 0.728671 0.115286
H5    H     H_    0.567189 0.076677 0.127868 0.100656
H6    H     H_    0.329755 0.925214 0.887569 0.115901
H7    H     H_    0.786108 0.379593 0.485982 0.132653
H8    H     H_    0.107409 0.637433 0.499584 0.134954
H9    H     H_    0.430696 0.414133 0.028171 0.116885
H10   H     H_    0.546339 0.596069 0.839759 0.112839
H11   H     H_    0.380928 0.776070 0.206207 0.091156
H12   H     H_    0.152162 0.833811 0.983688 0.097073
H13   H     H_    0.658516 0.167505 0.830828 0.088237
H14   H     H_    0.350950 0.258952 0.086142 0.121457
H15   H     H_    0.832866 0.929131 0.023149 0.113492
H16   H     H_    0.209865 0.074597 0.494212 0.099950
H17   H     H_    0.987191 0.046803 0.671636 0.124016
H18   H     H_    0.362235 0.046411 0.486328 0.112663
H19   H     H_    0.807432 0.961436 0.658227 0.112835
H20   H     H_    0.285355 0.811119 0.591238 0.128461
H21   H     H_    0.664412 0.002090 0.386724 0.113225
H22   H     H_    0.519083 0.020945 0.696711 0.123804
H23   H     H_    0.087913 0.954634 0.706730 0.105959
H24   H     H_    0.523257 0.817832 0.362834 0.125295
H25   H     H_    0.221635 0.009165 0.063304 0.126961
H26   H     H_    0.027668 0.181212 0.198714 0.126172
H27   H     H_    0.337339 0.408457 0.745095 0.106654
H28   H     H_    0.632685 0.597020 0.119345 0.109588
H29   H     H_    0.187780 0.325499 0.852011 0.108731
H30   H     H_    0.794653 0.677380 0.060353 0.125289
H31   H     H_    0.023810 0.676486 0.354331 0.115575
H32   H     H_    0.900678 0.324878 0.620301 0.105844
H33   H     H_    0.358633 0.677523 0.030875 0.089346
H34   H     H_    0.930531 0.930602 0.369435 0.125200
H35   H     H_    0.621048 0.322748 0.885092 0.093984
H36   H     H_    0.860531 0.324548 0.185764 0.108100
H37   H     H_    0.055701 0.678923 0.805004 0.108818
H38   H     H_    0.193371 0.745787 0.369138 0.124209
H39   H     H_    0.823021 0.176457 0.645730 0.134304
H40   H     H_    0.123762 0.245588 0.942527 0.124384
H41   H     H_    0.983968 0.827218 0.163219 0.128535
H42   H     H_    0.272553 0.088483 0.755089 0.129219
H43   H     H_    0.736625 0.827459 0.225253 0.110658
H44   H     H_    0.579884 0.335895 0.059074 0.108743
H45   H     H_    0.401460 0.236883 0.942323 0.104912
H46   H     H_    0.377839 0.645286 0.829635 0.116837
H47   H     H_    0.033851 0.974692 0.846899 0.116481
H48   H     H_    0.074692 0.042375 0.345496 0.112231
H49   H     H_    0.085383 0.960715 0.535173 0.102022
H50   H     H_    0.007497 0.111824 0.546234 0.104330
H51   H     H_    0.123206 0.829350 0.583165 0.113682
H52   H     H_    0.845154 0.087248 0.402330 0.126708
H53   H     H_    0.445200 0.311197 0.835680 0.102590
H54   H     H_    0.525464 0.693330 0.026388 0.097230
H55   H     H_    0.688129 0.829781 0.053095 0.109275
H56   H     H_    0.494658 0.136473 0.000732 0.105789
H57   H     H_    0.446698 0.845019 0.939113 0.093839
H58   H     H_    0.733923 0.472761 0.241515 0.111038
N1    N     N_R   0.947560 0.293820 0.002910 -0.041732
N2    N     N_R   0.789450 0.443190 0.997090 -0.037718
N3    N     N_R   0.945970 0.443180 0.152110 -0.039638
N4    N     N_R   0.054030 0.556820 0.847890 -0.040689
N5    N     N_R   0.151530 0.706170 0.208880 -0.043448
N6    N     N_R   0.848470 0.293830 0.791120 -0.041548
N7    N     N_R   0.004980 0.293810 0.946140 -0.041409
N8    N     N_R   0.995020 0.706190 0.053860 -0.042352
N9    N     N_R   0.052440 0.706180 0.997090 -0.040899
N10   N     N_R   0.208960 0.706170 0.152110 -0.040359
N11   N     N_R   0.791040 0.293830 0.847890 -0.038910
N12   N     N_R   0.154330 0.443160 0.946140 -0.039088
N13   N     N_R   0.845670 0.556840 0.053860 -0.039938
N14   N     N_R   0.002190 0.556820 0.208880 -0.038479
N15   N     N_R   0.997810 0.443180 0.791120 -0.040589
N16   N     N_R   0.210550 0.556810 0.002910 -0.036614
Ni1   Ni    Ni4+2 0.869690 0.369690 0.000000 0.213645
Ni2   Ni    Ni4+2 0.130310 0.630310 0.000000 0.217626
Ni3   Ni    Ni4+2 0.001390 0.369680 0.869810 0.215642
Ni4   Ni    Ni4+2 0.998610 0.630320 0.130190 0.214126

loop_
_geom_bond_atom_site_label_1
_geom_bond_atom_site_label_2
_ccdc_geom_bond_type
C75   N16   A    
C1    H1    S    
C58   C62   A    
C44   H51   S    
C56   C76   A    
C45   C71   S    
C14   C18   A    
C1    N1    A    
C67   C77   A    
C24   C27   A    
C12   N9    A    
C65   N15   A    
C66   C69   S    
C41   C56   A    
N2    N13   A    
C70   H28   S    
C1    C84   A    
C15   C19   A    
N6    Ni3   S    
C62   C86   A    
C2    H26   S    
C34   C51   S    
C12   C85   A    
C18   H5    S    
C57   H43   S    
C19   C21   A    
C24   C26   A    
C32   C61   A    
C38   C42   A    
C35   H17   S    
C11   C14   A    
C16   H11   S    
C40   H29   S    
C68   C74   S    
C81   N6    A    
C50   H24   S    
C33   C36   A    
C69   C71   S    
C82   H40   S    
C7    H44   S    
C31   H45   S    
C19   H6    S    
C20   H56   S    
C3    C55   A    
C66   C72   S    
C66   H53   S    
C29   C59   S    
N12   Ni3   S    
C49   C51   A    
C22   C25   A    
C4    C57   A    
C8    H46   S    
C50   C52   A    
C65   H32   S    
C77   H36   S    
C34   C81   A    
C23   C80   A    
C77   N3    A    
C12   H12   S    
C82   N7    A    
C44   C47   A    
N14   Ni4   S    
C46   H52   S    
C81   H39   S    
C76   N2    A    
C22   C28   A    
C40   C45   A    
C42   C44   A    
C32   C57   A    
C35   C48   A    
N2    Ni1   S    
C9    H58   S    
C52   C54   A    
C49   H22   S    
C5    C29   A    
C80   N5    A    
C62   C85   S    
C46   C48   A    
C50   C53   A    
C25   C78   S    
C64   C67   A    
C74   H10   S    
N12   N16   A    
C75   H33   S    
C21   H57   S    
C72   C74   S    
N3    Ni1   S    
C71   C73   S    
C78   C79   A    
C39   C43   A    
C56   C72   S    
C66   C73   S    
C79   H37   S    
C6    C30   A    
N11   Ni1   S    
C64   H31   S    
C33   H16   S    
C51   C53   A    
N4    N15   A    
N16   Ni2   S    
C31   C60   A    
C61   H15   S    
N5    N10   A    
C14   H3    S    
C37   H19   S    
C24   H8    S    
C9    C11   A    
C6    H48   S    
C40   N12   A    
C38   C54   S    
C29   C60   A    
C82   C84   A    
C10   H2    S    
C3    C5    A    
C70   C73   S    
C8    C21   A    
C5    H47   S    
C69   C74   S    
N5    Ni4   S    
C43   H21   S    
N8    N9    A    
C17   H13   S    
N13   Ni4   S    
C32   H55   S    
N8    Ni4   S    
C41   N13   A    
C4    C6    A    
C83   C85   A    
C16   C23   A    
N7    Ni3   S    
N6    N11   A    
C13   C15   A    
C16   N10   A    
C33   C47   A    
C22   H7    S    
N15   Ni3   S    
C68   H54   S    
C17   C34   A    
C76   H35   S    
C41   H30   S    
C17   N11   A    
N10   Ni2   S    
C2    C63   A    
C35   C37   A    
C83   N8    A    
C80   H38   S    
C7    C9    A    
C65   C78   A    
C47   H49   S    
C26   C28   A    
C48   H50   S    
C13   C27   S    
C83   H41   S    
C60   H14   S    
C10   C13   A    
C2    C58   A    
C26   C67   S    
C79   N4    A    
N1    N7    A    
C25   C27   A    
C63   C84   S    
C59   C63   A    
C36   H18   S    
N9    Ni2   S    
C45   C75   A    
N4    Ni2   S    
C36   C38   A    
C86   H25   S    
C59   C86   A    
C37   C39   A    
C15   H4    S    
C23   C52   S    
C39   C53   S    
N1    Ni1   S    
C11   C28   S    
C3    H23   S    
C68   C71   S    
C30   C58   S    
C18   C20   A    
C43   C46   A    
C42   H20   S    
C69   H27   S    
C55   H42   S    
C8    C10   A    
C7    C20   A    
C30   C61   A    
C64   N14   A    
C68   C70   S    
C73   H9    S    
C4    H34   S    
C70   C72   S    
C31   C55   A    
N3    N14   A    
C49   C54   A    
