data_mof_unit_30726.cif
_audit_creation_date              2013-03-05T16:06:16-0500
_audit_creation_method            fapswitch 2.2
_symmetry_space_group_name_H-M    P1
_symmetry_Int_Tables_number       1
_space_group_crystal_system       triclinic
_cell_length_a                    10.864824
_cell_length_b                    9.503692
_cell_length_c                    27.770482
_cell_angle_alpha                 90.412835
_cell_angle_beta                  90.501613
_cell_angle_gamma                 90.018474
_cell_volume                      2867.28271429

loop_
_atom_site_label
_atom_site_type_symbol
_atom_site_description
_atom_site_fract_x
_atom_site_fract_y
_atom_site_fract_z
_atom_type_partial_charge
O1    O     O_R   0.319640 0.618740 0.500000 -0.587919
O2    O     O_R   0.680360 0.381260 0.500000 -0.587772
O3    O     O_R   0.680360 0.618740 0.500000 -0.587377
O4    O     O_R   0.319640 0.381260 0.500000 -0.587370
C1    C     C_R   0.261972 0.499986 0.499959 0.792955
C2    C     C_R   0.738028 0.500014 0.500044 0.793364
O5    O     O_R   0.500020 0.618770 0.430260 -0.584121
O6    O     O_R   0.499980 0.381230 0.569740 -0.583170
O7    O     O_R   0.499980 0.618770 0.569740 -0.584864
O8    O     O_R   0.500020 0.381230 0.430260 -0.583807
C3    C     C_R   0.499507 0.499506 0.407348 0.803630
C4    C     C_R   0.500611 0.500645 0.592655 0.803168
Cu1   Cu    Cu3+1 0.500000 0.640660 0.500000 0.946213
Cu2   Cu    Cu3+1 0.500000 0.359340 0.500000 0.947035
C5    C     C_R   0.400291 0.453186 0.176019 0.527303
C6    C     C_R   0.604697 0.571262 0.822749 0.534100
O9    O     O_2   0.298725 0.410425 0.199442 -0.545811
O10   O     O_2   0.705786 0.610466 0.798327 -0.557374
N1    N     N_R   0.502028 0.495068 0.201555 -0.472223
N2    N     N_R   0.504434 0.519255 0.798405 -0.467631
C7    C     C_R   0.607377 0.536110 0.178990 0.577174
C8    C     C_R   0.399348 0.483255 0.822130 0.551522
C9    C     C_R   0.501535 0.623895 0.278482 -0.115630
C10   C     C_R   0.504745 0.637834 0.720451 -0.124351
C11   C     C_R   0.501327 0.625244 0.328685 -0.214090
C12   C     C_R   0.503158 0.633452 0.670344 -0.213752
C13   C     C_R   0.495151 0.370014 0.328697 -0.218689
C14   C     C_R   0.503824 0.378240 0.672287 -0.220953
C15   C     C_R   0.495207 0.368989 0.278464 -0.099778
C16   C     C_R   0.505437 0.382968 0.722591 -0.095212
C17   C     C_R   0.498746 0.495874 0.253201 0.352816
C18   C     C_R   0.505868 0.512892 0.746789 0.346813
C19   C     C_R   0.505680 0.504808 0.101360 -0.116478
C20   C     C_R   0.497258 0.542126 0.898213 -0.116506
C21   C     C_R   0.400450 0.456279 0.125574 0.034699
C22   C     C_R   0.603489 0.581415 0.873155 0.039603
C23   C     C_R   0.298793 0.408721 0.098975 -0.207466
C24   C     C_R   0.703541 0.636023 0.898842 -0.199237
C25   C     C_R   0.611996 0.541374 0.128202 -0.194446
C26   C     C_R   0.390269 0.506411 0.872140 -0.210248
C27   C     C_R   0.498589 0.498237 0.354286 -0.039760
C28   C     C_R   0.502424 0.503653 0.645721 -0.039838
H1    H     H_    0.492812 0.270516 0.347434 0.155457
H2    H     H_    0.503486 0.276804 0.654266 0.155365
H3    H     H_    0.219853 0.362849 0.116540 0.188071
H4    H     H_    0.780395 0.681181 0.880249 0.174063
C29   C     C_R   0.388553 0.505966 0.973853 -0.135342
C30   C     C_R   0.612259 0.557477 0.025875 -0.146671
C31   C     C_R   0.606968 0.575816 0.975015 0.117847
C32   C     C_R   0.394980 0.482134 0.024237 0.113328
C33   C     C_R   0.497666 0.540686 0.949238 0.006993
C34   C     C_R   0.504193 0.516061 0.050351 0.006983
C35   C     C_R   0.275757 0.507202 0.947204 0.348605
C36   C     C_R   0.723521 0.569277 0.053218 0.324444
C37   C     C_R   0.276857 0.504678 0.896491 0.409269
C38   C     C_R   0.720543 0.576607 0.103607 0.375620
O11   O     O_2   0.304891 0.423901 0.797524 -0.514721
O12   O     O_2   0.707167 0.570292 0.205858 -0.506410
C39   C     C_R   0.297717 0.417688 0.049146 -0.196080
C40   C     C_R   0.704423 0.636368 0.948856 -0.197658
H5    H     H_    0.502153 0.731913 0.650952 0.157114
H6    H     H_    0.503816 0.725609 0.347387 0.155964
H7    H     H_    0.504226 0.738556 0.738940 0.135684
H8    H     H_    0.504219 0.722358 0.259132 0.131797
H9    H     H_    0.220725 0.370095 0.030577 0.204973
H10   H     H_    0.780971 0.689045 0.966056 0.185520
C41   C     C_R   0.063718 0.372188 0.499972 -0.177140
C42   C     C_R   0.936282 0.627815 0.500039 -0.177464
C43   C     C_R   0.936203 0.372204 0.500029 -0.177416
C44   C     C_R   0.063797 0.627798 0.499982 -0.178265
H11   H     H_    0.111591 0.272223 0.499942 0.149081
H12   H     H_    0.888408 0.727780 0.500069 0.149110
H13   H     H_    0.888267 0.272245 0.500052 0.149030
H14   H     H_    0.111733 0.727758 0.499960 0.148993
C45   C     C_R   0.871860 0.500018 0.500049 -0.020157
C46   C     C_R   0.128140 0.499984 0.499960 -0.020313
C47   C     C_R   0.422890 0.073828 0.470074 -0.026496
C48   C     C_R   0.577108 0.926171 0.529927 -0.027029
C49   C     C_R   0.577125 0.075116 0.529921 -0.024069
C50   C     C_R   0.422876 0.924883 0.470078 -0.024807
H15   H     H_    0.361186 0.129571 0.446116 0.118392
H16   H     H_    0.638808 0.870427 0.553886 0.118578
H17   H     H_    0.638868 0.131882 0.553871 0.118724
H18   H     H_    0.361136 0.868116 0.446128 0.118763
N3    N     N_R   0.500000 0.852070 0.500000 -0.156892
N4    N     N_R   0.500000 0.147930 0.500000 -0.156806
H19   H     H_    0.493561 0.269640 0.259130 0.136867
H20   H     H_    0.506137 0.285911 0.742774 0.141939
O13   O     O_3   0.165368 0.511301 0.871814 -0.549055
C51   C     C_3   0.153339 0.643752 0.848735 0.088306
H21   H     H_    0.184270 0.635372 0.810874 0.194114
H22   H     H_    0.207547 0.729590 0.866612 0.085833
C52   C     C_3   0.018368 0.686810 0.848130 -0.337746
H23   H     H_    0.962372 0.601782 0.831107 0.268793
H24   H     H_    0.987765 0.702211 0.885741 0.190964
C53   C     C_3   0.998292 0.823339 0.820549 -0.868175
H25   H     H_    0.052039 0.910272 0.837489 0.252413
H26   H     H_    0.899191 0.851752 0.821159 0.271888
H27   H     H_    0.026828 0.810204 0.782468 0.263813
O14   O     O_3   0.829455 0.601115 0.128445 -0.555764
C54   C     C_3   0.848863 0.747899 0.131217 0.120503
H28   H     H_    0.771041 0.800275 0.150205 0.142048
H29   H     H_    0.857865 0.793714 0.094580 0.137824
C55   C     C_3   0.967748 0.776465 0.159412 -0.294452
H30   H     H_    0.963731 0.723250 0.194892 0.256510
H31   H     H_    0.047002 0.732721 0.139153 0.219072
C56   C     C_3   0.987333 0.933840 0.167710 -0.925866
H32   H     H_    0.986533 0.990571 0.132916 0.254040
H33   H     H_    0.077568 0.951631 0.185852 0.267967
H34   H     H_    0.913516 0.977070 0.190973 0.267214
O15   O     O_3   0.163405 0.520039 0.970066 -0.620302
C57   C     C_3   0.130844 0.663974 0.975035 0.091781
H35   H     H_    0.030586 0.672492 0.967657 0.175653
H36   H     H_    0.177747 0.734982 0.949196 0.109055
C58   C     C_3   0.155221 0.716833 0.026423 -0.331352
H37   H     H_    0.110221 0.645850 0.052534 0.243592
H38   H     H_    0.255724 0.718152 0.033804 0.217586
C59   C     C_3   0.106005 0.865656 0.033551 -0.931894
H39   H     H_    0.148821 0.938626 0.007485 0.261084
H40   H     H_    0.128908 0.902632 0.070538 0.262394
H41   H     H_    0.004462 0.867394 0.028605 0.264765
O16   O     O_3   0.838413 0.566501 0.032092 -0.631192
C60   C     C_3   0.867533 0.427157 0.017653 0.073340
H42   H     H_    0.927258 0.434048 0.985530 0.204097
H43   H     H_    0.785798 0.363594 0.006213 0.130050
C61   C     C_3   0.938164 0.351405 0.057750 -0.291028
H44   H     H_    0.017436 0.417056 0.069614 0.233877
H45   H     H_    0.877076 0.335609 0.089116 0.232612
C62   C     C_3   0.984949 0.208342 0.040744 -0.966189
H46   H     H_    0.906313 0.137312 0.032348 0.259696
H47   H     H_    0.041971 0.160539 0.069638 0.260361
H48   H     H_    0.042541 0.219633 0.008151 0.274408

loop_
_geom_bond_atom_site_label_1
_geom_bond_atom_site_label_2
_geom_bond_distance
_ccdc_geom_bond_type
C16   C18   1.401499 A    
C52   H23   1.111632 S    
C13   C15   1.394964 A    
O15   C57   1.419095 S    
C50   H18   1.081756 S    
O3    C2    1.290798 A    
N1    C17   1.434947 S    
C8    O11   1.349115 S    
C57   H36   1.114959 S    
C60   H42   1.109991 S    
C19   C34   1.421293 A    
C30   C36   1.425848 A    
C20   C33   1.417144 A    
C54   H28   1.115794 S    
C31   C40   1.413901 A    
O1    C1    1.290664 A    
C32   C39   1.410245 A    
N1    C7    1.367746 A    
C12   H5    1.083014 S    
C10   C12   1.391777 A    
C30   C34   1.418807 A    
C60   H43   1.116421 S    
C58   H37   1.110398 S    
C53   H27   1.110811 S    
C5    C21   1.401429 A    
O7    Cu1   1.949346 S    
C59   H39   1.110967 S    
C57   H35   1.109717 S    
C4    C28   1.473685 S    
C5    N1    1.365667 A    
C13   C27   1.406549 A    
C31   C33   1.419705 A    
C53   H26   1.110393 S    
C44   H14   1.083245 S    
C32   C34   1.420985 A    
C56   H32   1.109843 S    
C43   H13   1.083245 S    
C41   H11   1.083246 S    
O3    Cu1   1.970689 S    
C6    N2    1.367458 A    
C29   C35   1.426160 A    
C62   H48   1.110649 S    
C58   C59   1.524414 S    
C9    C11   1.394166 A    
C36   O16   1.384103 S    
C40   H10   1.076939 S    
C52   H24   1.107613 S    
Cu1   Cu2   2.673579 S    
C15   C17   1.400161 A    
C56   H33   1.110669 S    
O2    C2    1.290667 A    
C55   H31   1.111828 S    
C55   H30   1.111927 S    
C29   C32   1.420145 A    
C35   C37   1.408514 A    
C36   C38   1.401227 A    
C24   H4    1.076355 S    
C2    C45   1.454064 S    
Cu2   N4    2.009176 S    
O8    Cu2   1.949346 S    
C11   C27   1.405695 A    
C48   C49   1.415532 A    
C60   C61   1.531027 S    
C29   C33   1.413753 A    
O6    Cu2   1.946366 S    
C61   C62   1.524927 S    
C58   H38   1.109294 S    
C14   H2    1.082953 S    
C42   H12   1.083247 S    
C42   C45   1.401599 A    
C59   H41   1.110716 S    
C9    C17   1.400505 A    
O5    C3    1.295806 A    
C10   C18   1.399077 A    
C50   N3    1.366716 A    
C48   H16   1.081773 S    
C51   H22   1.116946 S    
C25   C38   1.409482 A    
C7    C25   1.412978 A    
C47   H15   1.081773 S    
O6    C4    1.297102 A    
C26   C37   1.410907 A    
C8    C26   1.408868 A    
C53   H25   1.110928 S    
C19   C25   1.411235 A    
C55   C56   1.526201 S    
C23   C39   1.386962 A    
C24   C40   1.388828 A    
C48   N3    1.366565 A    
C6    O10   1.349625 S    
C9    H8    1.082937 S    
N2    C8    1.367808 A    
C47   N4    1.366570 A    
C10   H7    1.083015 S    
C44   C46   1.401699 A    
C56   H34   1.111223 S    
C20   C26   1.404328 A    
O1    Cu1   1.970555 S    
C38   O14   1.383269 S    
C16   H20   1.082781 S    
C12   C28   1.406099 A    
C51   C52   1.522568 S    
C62   H46   1.110798 S    
N2    C18   1.434448 S    
C47   C50   1.415531 A    
C5    O9    1.349827 S    
C30   C31   1.425038 A    
C61   H45   1.110724 S    
C14   C28   1.406263 A    
C21   C23   1.396558 A    
O4    C1    1.290802 A    
C41   C46   1.401598 A    
C52   C53   1.526240 S    
C54   H29   1.114653 S    
C1    C46   1.454067 S    
C22   C24   1.393049 A    
O13   C51   1.422195 S    
C7    O12   1.349025 S    
C37   O13   1.388155 S    
C6    C22   1.402617 A    
C49   H17   1.081756 S    
C35   O15   1.385850 S    
C51   H21   1.108941 S    
C61   H44   1.109667 S    
C14   C16   1.397338 A    
O14   C54   1.412225 S    
C19   C21   1.410534 A    
C43   C45   1.401696 A    
C20   C22   1.404738 A    
C11   H6    1.082995 S    
C49   N4    1.366719 A    
O4    Cu2   1.970689 S    
O2    Cu2   1.970555 S    
O7    C4    1.294416 A    
C59   H40   1.109362 S    
C15   H19   1.082871 S    
O8    C3    1.295616 A    
C13   H1    1.082988 S    
O5    Cu1   1.946366 S    
C42   C44   1.385444 A    
C3    C27   1.473466 S    
Cu1   N3    2.009176 S    
C54   C55   1.527795 S    
C41   C43   1.385442 A    
O16   C60   1.417549 S    
C23   H3    1.083394 S    
C57   C58   1.530357 S    
C39   H9    1.076610 S    
C62   H47   1.109430 S    
