data_mof_unit_25180.cif
_audit_creation_date              2012-12-10T16:50:18-0500
_audit_creation_method            fapswitch 2.2
_symmetry_space_group_name_H-M    P1
_symmetry_Int_Tables_number       1
_space_group_crystal_system       triclinic
_cell_length_a                    23.510707
_cell_length_b                    8.635758
_cell_length_c                    7.499761
_cell_angle_alpha                 103.387553
_cell_angle_beta                  95.073697
_cell_angle_gamma                 93.277916
_cell_volume                      1470.76999477

loop_
_atom_site_label
_atom_site_type_symbol
_atom_type_description
_atom_site_fract_x
_atom_site_fract_y
_atom_site_fract_z
_atom_type_partial_charge
C1    C     C_R   0.498671 0.199702 0.452844 0.875833
C2    C     C_R   0.501329 0.800298 0.547156 0.875832
C3    C     C_R   0.237727 0.594073 0.404742 -0.127018
C4    C     C_R   0.762273 0.405933 0.595261 -0.127017
C5    C     C_R   0.297142 0.597512 0.401906 -0.046403
C6    C     C_R   0.702858 0.402492 0.598095 -0.046403
C7    C     C_R   0.329129 0.506944 0.503650 -0.079838
C8    C     C_R   0.670871 0.493059 0.496351 -0.079840
C9    C     C_R   0.301004 0.418464 0.609556 -0.271178
C10   C     C_R   0.698996 0.581542 0.390447 -0.271179
C11   C     C_R   0.241874 0.416878 0.612339 -0.086813
C12   C     C_R   0.758126 0.583130 0.387667 -0.086815
C13   C     C_R   0.210032 0.503774 0.508968 0.334863
C14   C     C_R   0.789968 0.496234 0.491037 0.334863
C15   C     C_2   0.498454 0.031315 0.426886 -0.345602
C16   C     C_2   0.501545 0.968684 0.573114 -0.345602
C17   C     C_R   0.391319 0.502804 0.501316 0.790583
C18   C     C_R   0.608681 0.497197 0.498685 0.790582
C19   C     C_R   0.883730 0.636613 0.568708 0.552006
C20   C     C_R   0.116269 0.363395 0.431298 0.552005
C21   C     C_R   0.874492 0.361291 0.412903 0.547006
C22   C     C_R   0.125508 0.638717 0.587102 0.547006
C23   C     C_R   0.934707 0.355990 0.419399 -0.048795
C24   C     C_R   0.065293 0.644018 0.580607 -0.048795
C25   C     C_R   0.969735 0.499790 0.497506 -0.025025
C26   C     C_R   0.030265 0.500218 0.502501 -0.025025
C27   C     C_R   0.944121 0.643121 0.570766 -0.053275
C28   C     C_R   0.055879 0.356887 0.429241 -0.053275
C29   C     C_R   0.960695 0.212294 0.351490 -0.086468
C30   C     C_R   0.039305 0.787714 0.648517 -0.086468
C31   C     C_R   0.020644 0.212773 0.356109 -0.089611
C32   C     C_R   0.979356 0.787235 0.643899 -0.089611
Cu1   Cu    Cu3+1 0.506340 0.517380 0.684380 0.945098
Cu2   Cu    Cu3+1 0.493660 0.482620 0.315620 0.945099
H1    H     H_    0.212821 0.663217 0.327465 0.163260
H2    H     H_    0.787180 0.336789 0.672539 0.163260
H3    H     H_    0.324680 0.348941 0.688646 0.173924
H4    H     H_    0.675320 0.651065 0.311358 0.173925
H5    H     H_    0.220699 0.347799 0.694408 0.162833
H6    H     H_    0.779301 0.652210 0.305599 0.162834
H7    H     H_    0.495212 0.958692 0.286533 0.180991
H8    H     H_    0.504788 0.041308 0.713468 0.180991
N1    N     N_R   0.851013 0.498434 0.489677 -0.465216
N2    N     N_R   0.148987 0.501574 0.510329 -0.465216
N3    N     N_2   0.484110 0.456420 0.038520 -0.205866
N4    N     N_2   0.515890 0.543580 0.961480 -0.205866
O1    O     O_R   0.504120 0.286130 0.619770 -0.575341
O2    O     O_R   0.495880 0.713870 0.380230 -0.575342
O3    O     O_R   0.493410 0.256770 0.308360 -0.607278
O4    O     O_R   0.506590 0.743230 0.691640 -0.607278
O5    O     O_R   0.423230 0.514630 0.655730 -0.600660
O6    O     O_R   0.576770 0.485370 0.344270 -0.600656
O7    O     O_R   0.412530 0.485280 0.344320 -0.586155
O8    O     O_R   0.587470 0.514720 0.655680 -0.586153
O9    O     O_2   0.857291 0.765946 0.647101 -0.511648
O10   O     O_2   0.142709 0.234061 0.352905 -0.511648
O11   O     O_2   0.839005 0.231545 0.329351 -0.521161
O12   O     O_2   0.160995 0.768463 0.670653 -0.521161
C33   C     C_1   0.926916 0.060289 0.279707 0.364861
N5    N     N_1   0.900434 0.938868 0.222667 -0.226824
C34   C     C_1   0.073084 0.939719 0.720302 0.364860
N6    N     N_1   0.099566 0.061139 0.777343 -0.226823
C35   C     C_1   0.044832 0.061489 0.287193 0.334935
N7    N     N_1   0.063664 0.940665 0.232211 -0.244602
C36   C     C_1   0.955168 0.938519 0.712815 0.334934
N8    N     N_1   0.936336 0.059343 0.767799 -0.244602
C37   C     C_R   0.324508 0.707197 0.304573 0.097177
C38   C     C_R   0.337674 0.868447 0.394866 -0.134658
C39   C     C_R   0.360146 0.975662 0.300311 -0.101076
C40   C     C_R   0.370220 0.922115 0.116060 -0.120312
C41   C     C_R   0.357217 0.761636 0.025519 -0.113895
C42   C     C_R   0.334048 0.654282 0.118920 -0.081317
H9    H     H_    0.329892 0.911225 0.537512 0.146369
H10   H     H_    0.369848 0.100185 0.369984 0.136621
H11   H     H_    0.387973 0.005019 0.043401 0.148209
H12   H     H_    0.364595 0.721071 0.882566 0.150103
H13   H     H_    0.323377 0.530628 0.046934 0.129742
C43   C     C_R   0.675492 0.292806 0.695428 0.097180
C44   C     C_R   0.665956 0.345717 0.881084 -0.081323
C45   C     C_R   0.642789 0.238362 0.974487 -0.113889
C46   C     C_R   0.629784 0.077884 0.883944 -0.120311
C47   C     C_R   0.639854 0.024341 0.699688 -0.101077
C48   C     C_R   0.662324 0.131559 0.605132 -0.134658
H14   H     H_    0.676629 0.469370 0.953073 0.129742
H15   H     H_    0.635414 0.278924 0.117444 0.150099
H16   H     H_    0.612033 0.994979 0.956605 0.148210
H17   H     H_    0.630151 0.899820 0.630014 0.136621
H18   H     H_    0.670103 0.088783 0.462483 0.146364
C49   C     C_1   0.445804 0.338320 0.926924 0.532491
N9    N     N_1   0.413656 0.238608 0.836134 -0.410870
C50   C     C_1   0.554196 0.661680 0.073076 0.532496
N10   N     N_1   0.586344 0.761392 0.163866 -0.410872

loop_
_geom_bond_atom_site_label_1
_geom_bond_atom_site_label_2
_ccdc_geom_bond_type
C4    H2    S    
C16   H8    S    
C20   O10   S    
C17   O5    A    
C46   C47   A    
C18   O6    A    
N3    N4    D    
C45   H15   S    
C23   C29   A    
C24   C26   A    
C44   H14   S    
C6    C43   S    
C15   C16   D    
C37   C42   A    
C2    O4    A    
C21   N1    A    
C43   C48   A    
C22   N2    A    
C29   C33   S    
C38   C39   A    
C7    C17   S    
C40   C41   A    
C1    C15   S    
C2    C16   S    
C46   H16   S    
C3    C13   A    
C5    C37   S    
C25   C26   A    
C48   H18   S    
C33   N5    T    
Cu1   N4    S    
C39   C40   A    
C20   N2    A    
C19   N1    A    
C37   C38   A    
C31   C35   S    
C15   H7    S    
C4    C6    A    
C50   N10   T    
C5    C7    A    
C43   C44   A    
C1    O1    A    
C6    C8    A    
N4    C50   S    
C20   C28   A    
C2    O2    A    
C38   H9    S    
C8    C18   S    
C35   N7    T    
C12   H6    S    
C21   O11   S    
C42   H13   S    
C3    H1    S    
C9    H3    S    
Cu1   Cu2   S    
C39   H10   S    
Cu2   N3    S    
C11   H5    S    
C9    C11   A    
C10   C12   A    
C12   C14   A    
C36   N8    T    
C21   C23   A    
C25   C27   A    
Cu1   O1    S    
C22   C24   A    
Cu2   O2    S    
C17   O7    A    
C19   C27   A    
C19   O9    S    
Cu1   O8    S    
C7    C9    A    
Cu2   O3    S    
N3    C49   S    
C27   C32   A    
Cu2   O6    S    
C28   C31   A    
C45   C46   A    
C3    C5    A    
C22   O12   S    
Cu1   O5    S    
C26   C28   A    
C10   H4    S    
Cu1   O4    S    
C41   C42   A    
C29   C31   A    
C30   C32   A    
C11   C13   A    
C41   H12   S    
C23   C25   A    
C4    C14   A    
C34   N6    T    
C24   C30   A    
C18   O8    A    
C44   C45   A    
Cu2   O7    S    
C8    C10   A    
C47   C48   A    
C30   C34   S    
C40   H11   S    
C32   C36   S    
C49   N9    T    
C1    O3    A    
C13   N2    S    
C47   H17   S    
C14   N1    S    
