data_mof_unit_62072.cif
_audit_creation_date              2012-12-10T18:13:12-0500
_audit_creation_method            fapswitch 2.2
_symmetry_space_group_name_H-M    P1
_symmetry_Int_Tables_number       1
_space_group_crystal_system       triclinic
_cell_length_a                    18.403759
_cell_length_b                    18.313174
_cell_length_c                    25.920787
_cell_angle_alpha                 90.000045
_cell_angle_beta                  89.999871
_cell_angle_gamma                 90.000602
_cell_volume                      8736.11500516

loop_
_atom_site_label
_atom_site_type_symbol
_atom_type_description
_atom_site_fract_x
_atom_site_fract_y
_atom_site_fract_z
_atom_type_partial_charge
C1    C     C_R   0.859945 0.140047 0.250062 0.796802
C2    C     C_R   0.815661 0.262860 0.274249 -0.187249
C3    C     C_R   0.253428 0.300366 0.289003 -0.200075
C4    C     C_1   0.917533 0.884376 0.445080 0.228408
C5    C     C_1   0.917529 0.884379 0.554920 0.228395
C6    C     C_1   0.581942 0.383963 0.945092 0.228704
C7    C     C_1   0.581936 0.383959 0.054907 0.228713
C8    C     C_1   0.156896 0.756433 0.338779 0.202772
C9    C     C_1   0.156895 0.756431 0.661221 0.202807
C10   C     C_1   0.887387 0.711581 0.294924 0.206740
C11   C     C_1   0.887504 0.711479 0.705292 0.206603
C12   C     C_1   0.612651 0.211611 0.795001 0.206788
C13   C     C_R   0.199905 0.247124 0.710318 -0.191175
C14   C     C_1   0.612696 0.211646 0.204912 0.206843
C15   C     C_1   0.343084 0.256454 0.838789 0.202764
C16   C     C_1   0.343076 0.256464 0.161206 0.202744
C17   C     C_R   0.199909 0.247120 0.289684 -0.191175
C18   C     C_R   0.300102 0.747131 0.210322 -0.191182
C19   C     C_R   0.300102 0.747132 0.789677 -0.191185
C20   C     C_R   0.684293 0.762906 0.225823 -0.187228
C21   C     C_R   0.684247 0.762953 0.774096 -0.187218
C22   C     C_R   0.803367 0.195330 0.749371 -0.005487
C23   C     C_R   0.803364 0.195327 0.250631 -0.005492
C24   C     C_R   0.195311 0.196667 0.750680 -0.004401
C25   C     C_R   0.859945 0.140049 0.749938 0.796785
C26   C     C_R   0.195311 0.196667 0.249319 -0.004400
C27   C     C_R   0.304688 0.696666 0.250680 -0.004411
C28   C     C_R   0.304688 0.696666 0.749320 -0.004412
C29   C     C_R   0.696631 0.695333 0.249371 -0.005476
C30   C     C_R   0.696635 0.695329 0.750633 -0.005457
C31   C     C_R   0.736322 0.180217 0.772350 -0.227296
C32   C     C_R   0.736339 0.180232 0.227615 -0.227309
C33   C     C_R   0.243655 0.200453 0.792188 -0.226750
C34   C     C_R   0.243651 0.200457 0.207809 -0.226749
C35   C     C_R   0.256336 0.700444 0.292184 -0.226746
C36   C     C_R   0.139959 0.140146 0.249967 0.794624
C37   C     C_R   0.256336 0.700444 0.707817 -0.226741
C38   C     C_R   0.763694 0.680201 0.272315 -0.227259
C39   C     C_R   0.763750 0.680146 0.727780 -0.227218
C40   C     C_R   0.202988 0.753977 0.293618 -0.011198
C41   C     C_R   0.202987 0.753976 0.706383 -0.011189
C42   C     C_R   0.818548 0.732195 0.272280 -0.008541
C43   C     C_R   0.818605 0.732142 0.727824 -0.008473
C44   C     C_R   0.681469 0.232210 0.772315 -0.008589
C45   C     C_R   0.681488 0.232227 0.227648 -0.008610
C46   C     C_R   0.297003 0.253986 0.793623 -0.011203
C47   C     C_R   0.139959 0.140146 0.750033 0.794622
C48   C     C_R   0.296999 0.253991 0.206375 -0.011205
C49   C     C_R   0.197193 0.804176 0.252173 -0.041060
C50   C     C_R   0.197193 0.804176 0.747827 -0.041056
C51   C     C_R   0.805616 0.801334 0.249407 -0.040862
C52   C     C_R   0.805622 0.801330 0.750603 -0.040835
C53   C     C_R   0.694381 0.301331 0.749408 -0.040896
C54   C     C_R   0.694379 0.301327 0.250591 -0.040908
C55   C     C_R   0.302806 0.304177 0.752173 -0.041057
C56   C     C_R   0.302805 0.304177 0.247827 -0.041057
C57   C     C_R   0.065989 0.999996 0.026734 -0.190205
C58   C     C_R   0.360041 0.640146 0.749967 0.794636
C59   C     C_R   0.065988 0.999996 0.973265 -0.190203
C60   C     C_R   0.934020 0.999953 0.026734 -0.186415
C61   C     C_R   0.934020 0.999953 0.973266 -0.186411
C62   C     C_R   0.565980 0.499952 0.526734 -0.186393
C63   C     C_R   0.565980 0.499952 0.473266 -0.186398
C64   C     C_R   0.434011 0.499996 0.526735 -0.190202
C65   C     C_R   0.434011 0.499996 0.473266 -0.190204
C66   C     C_R   0.000003 0.999972 0.946259 0.007500
C67   C     C_R   0.000003 0.999973 0.053741 0.007501
C68   C     C_R   0.499996 0.499972 0.446259 0.007496
C69   C     C_R   0.360041 0.640146 0.250033 0.794640
C70   C     C_R   0.499997 0.499972 0.553741 0.007495
C71   C     C_R   0.140516 0.860153 0.250680 0.782353
C72   C     C_R   0.140516 0.860153 0.749320 0.782358
C73   C     C_R   0.860482 0.859142 0.249687 0.784290
C74   C     C_R   0.860484 0.859140 0.750317 0.784286
C75   C     C_R   0.639518 0.359141 0.749687 0.784239
C76   C     C_R   0.639517 0.359141 0.250313 0.784248
C77   C     C_R   0.359484 0.360154 0.750680 0.782363
C78   C     C_R   0.359484 0.360154 0.249320 0.782360
C79   C     C_R   0.000001 0.999975 0.109884 0.786133
C80   C     C_R   0.640054 0.640049 0.750062 0.796743
C81   C     C_R   0.000001 0.999975 0.890116 0.786132
C82   C     C_R   0.499999 0.499975 0.609884 0.786138
C83   C     C_R   0.499999 0.499975 0.390116 0.786139
C84   C     C_R   0.998388 0.999946 0.390017 0.806946
C85   C     C_R   0.998388 0.999946 0.609983 0.806945
C86   C     C_R   0.501628 0.499944 0.890018 0.806922
C87   C     C_R   0.501628 0.499944 0.109982 0.806923
C88   C     C_R   0.012737 0.060907 0.473523 0.129856
C89   C     C_R   0.012737 0.060908 0.526476 0.129861
C90   C     C_R   0.487716 0.561029 0.973525 0.129795
C91   C     C_R   0.640053 0.640049 0.249939 0.796776
C92   C     C_R   0.487716 0.561029 0.026475 0.129790
C93   C     C_R   0.989346 0.000188 0.445797 -0.137711
C94   C     C_R   0.989346 0.000188 0.554203 -0.137710
C95   C     C_R   0.510734 0.500168 0.945797 -0.137856
C96   C     C_R   0.510733 0.500167 0.054203 -0.137858
C97   C     C_R   0.953615 0.942999 0.472711 -0.086134
C98   C     C_R   0.953614 0.943000 0.527289 -0.086132
C99   C     C_R   0.546171 0.442792 0.972713 -0.086287
C100  C     C_R   0.546169 0.442791 0.027287 -0.086290
C101  C     C_3   0.082621 0.102157 0.529311 -0.476179
C102  C     C_R   0.815685 0.262884 0.725788 -0.187231
C103  C     C_3   0.082621 0.102156 0.470689 -0.476183
C104  C     C_3   0.418115 0.602766 0.029312 -0.475936
C105  C     C_3   0.418115 0.602766 0.970688 -0.475934
C106  C     C_R   0.246582 0.800377 0.211003 -0.200077
C107  C     C_R   0.246582 0.800377 0.788996 -0.200075
C108  C     C_R   0.738347 0.815601 0.225979 -0.200887
C109  C     C_R   0.738302 0.815648 0.773942 -0.200866
C110  C     C_R   0.761631 0.315578 0.725945 -0.200910
C111  C     C_R   0.761607 0.315554 0.274092 -0.200922
C112  C     C_R   0.253425 0.300370 0.710999 -0.200073
H1    H     H_    0.075313 0.157467 0.546197 0.209914
H2    H     H_    0.243404 0.838111 0.821103 0.166717
H3    H     H_    0.727077 0.867915 0.208186 0.167528
H4    H     H_    0.726993 0.868004 0.791662 0.167488
H5    H     H_    0.772887 0.367876 0.708124 0.167550
H6    H     H_    0.772846 0.367835 0.291941 0.167572
H7    H     H_    0.256611 0.338097 0.678889 0.166714
H8    H     H_    0.256617 0.338091 0.321115 0.166711
H9    H     H_    0.867352 0.275349 0.707808 0.163220
H10   H     H_    0.867310 0.275310 0.292257 0.163240
H11   H     H_    0.162796 0.244854 0.677916 0.159827
H12   H     H_    0.075313 0.157466 0.453802 0.209914
H13   H     H_    0.162803 0.244847 0.322088 0.159825
H14   H     H_    0.337218 0.744869 0.177923 0.159831
H15   H     H_    0.337218 0.744870 0.822077 0.159832
H16   H     H_    0.632608 0.775385 0.207870 0.163188
H17   H     H_    0.632522 0.775472 0.791974 0.163152
H18   H     H_    0.726280 0.127365 0.789874 0.162546
H19   H     H_    0.726313 0.127397 0.210062 0.162569
H20   H     H_    0.239292 0.162138 0.823967 0.162981
H21   H     H_    0.239286 0.162145 0.176029 0.162978
H22   H     H_    0.260692 0.662123 0.323958 0.162984
H23   H     H_    0.127486 0.069404 0.546369 0.196873
H24   H     H_    0.260691 0.662122 0.676042 0.162984
H25   H     H_    0.773751 0.627333 0.289812 0.162532
H26   H     H_    0.773845 0.627238 0.710356 0.162476
H27   H     H_    0.117594 0.000016 0.046824 0.162995
H28   H     H_    0.117594 0.000016 0.953175 0.162996
H29   H     H_    0.882414 0.999938 0.046824 0.165282
H30   H     H_    0.882414 0.999938 0.953177 0.165287
H31   H     H_    0.617586 0.499937 0.546823 0.165294
H32   H     H_    0.617586 0.499937 0.453176 0.165289
H33   H     H_    0.382406 0.500017 0.546825 0.162996
H34   H     H_    0.127487 0.069404 0.453631 0.196874
H35   H     H_    0.382406 0.500017 0.453176 0.162996
H36   H     H_    0.373023 0.570329 0.046371 0.196874
H37   H     H_    0.373023 0.570328 0.953629 0.196874
H38   H     H_    0.425809 0.658026 0.046197 0.209945
H39   H     H_    0.425809 0.658026 0.953803 0.209947
H40   H     H_    0.243403 0.838110 0.178897 0.166717
N1    N     N_1   0.888716 0.837606 0.423081 -0.180127
N2    N     N_1   0.557703 0.195010 0.186701 -0.172195
N3    N     N_1   0.379865 0.258309 0.874992 -0.169353
N4    N     N_1   0.379854 0.258324 0.125002 -0.169350
N5    N     N_1   0.888710 0.837611 0.576920 -0.180122
N6    N     N_1   0.610508 0.337028 0.923106 -0.179902
N7    N     N_1   0.610497 0.337021 0.076893 -0.179898
N8    N     N_1   0.120108 0.758278 0.374978 -0.169359
N9    N     N_1   0.120106 0.758276 0.625023 -0.169372
N10   N     N_1   0.942420 0.694918 0.313063 -0.172307
N11   N     N_1   0.942586 0.694779 0.687245 -0.172416
N12   N     N_1   0.557636 0.194959 0.813172 -0.172236
O1    O     O_3   0.000000 0.000010 0.249960 -0.482853
O2    O     O_R   0.414520 0.646190 0.219700 -0.650346
O3    O     O_R   0.585480 0.646190 0.780300 -0.648142
O4    O     O_R   0.585480 0.646190 0.219700 -0.648162
O5    O     O_R   0.085460 0.853840 0.280340 -0.631889
O6    O     O_R   0.085460 0.853840 0.719660 -0.631876
O7    O     O_R   0.914540 0.853840 0.280340 -0.629691
O8    O     O_R   0.914540 0.853840 0.719660 -0.629655
O9    O     O_R   0.585460 0.353840 0.780340 -0.629732
O10   O     O_R   0.585460 0.353840 0.219660 -0.629749
O11   O     O_R   0.414540 0.353840 0.780340 -0.631878
O12   O     O_3   0.000000 0.000010 0.750040 -0.482861
O13   O     O_R   0.414540 0.353840 0.219660 -0.631883
O14   O     O_R   0.853820 0.914550 0.219610 -0.648521
O15   O     O_R   0.853820 0.914550 0.780390 -0.648516
O16   O     O_R   0.146180 0.914550 0.219610 -0.646537
O17   O     O_R   0.146180 0.914550 0.780390 -0.646541
O18   O     O_R   0.353820 0.414550 0.719610 -0.646533
O19   O     O_R   0.353820 0.414550 0.280390 -0.646533
O20   O     O_R   0.646180 0.414550 0.719610 -0.648517
O21   O     O_R   0.646180 0.414550 0.280390 -0.648518
O22   O     O_R   0.146170 0.085440 0.219600 -0.646213
O23   O     O_3   0.500000 0.500010 0.749960 -0.482845
O24   O     O_R   0.146170 0.085440 0.780400 -0.646213
O25   O     O_R   0.853830 0.085440 0.219600 -0.647124
O26   O     O_R   0.853830 0.085440 0.780400 -0.647114
O27   O     O_R   0.646170 0.585440 0.719600 -0.647067
O28   O     O_R   0.646170 0.585440 0.280400 -0.647092
O29   O     O_R   0.353830 0.585440 0.719600 -0.646207
O30   O     O_R   0.353830 0.585440 0.280400 -0.646208
O31   O     O_R   0.939270 0.999980 0.134160 -0.646636
O32   O     O_R   0.939270 0.999980 0.865840 -0.646630
O33   O     O_R   0.060730 0.999980 0.134160 -0.649921
O34   O     O_3   0.500000 0.500010 0.250040 -0.482839
O35   O     O_R   0.060730 0.999980 0.865840 -0.649922
O36   O     O_R   0.439270 0.499980 0.634160 -0.649923
O37   O     O_R   0.439270 0.499980 0.365840 -0.649923
O38   O     O_R   0.560730 0.499980 0.634160 -0.646620
O39   O     O_R   0.560730 0.499980 0.365840 -0.646628
O40   O     O_R   0.000000 0.060760 0.365760 -0.642061
O41   O     O_R   0.000000 0.060760 0.634240 -0.642058
O42   O     O_R   0.500000 0.560760 0.865760 -0.642055
O43   O     O_R   0.500000 0.560760 0.134240 -0.642061
O44   O     O_R   1.000000 0.939310 0.365770 -0.628446
O45   O     O_R   0.914520 0.146190 0.280300 -0.648154
O46   O     O_R   1.000000 0.939310 0.634230 -0.628450
O47   O     O_R   0.500000 0.439310 0.865770 -0.628500
O48   O     O_R   0.500000 0.439310 0.134230 -0.628497
O49   O     O_R   0.914520 0.146190 0.719700 -0.648147
O50   O     O_R   0.085480 0.146190 0.280300 -0.650334
O51   O     O_R   0.085480 0.146190 0.719700 -0.650337
O52   O     O_R   0.414520 0.646190 0.780300 -0.650350
Zn1   Zn    Zn3+2 0.000000 0.913260 0.293350 1.002190
Zn2   Zn    Zn3+2 0.413230 0.500000 0.293420 0.964534
Zn3   Zn    Zn3+2 0.586770 0.500000 0.706580 0.966128
Zn4   Zn    Zn3+2 0.586770 0.500000 0.293420 0.966117
Zn5   Zn    Zn3+2 1.000000 0.086780 0.293330 0.964502
Zn6   Zn    Zn3+2 0.000000 0.086780 0.706670 0.964501
Zn7   Zn    Zn3+2 0.500000 0.586780 0.793330 0.964455
Zn8   Zn    Zn3+2 0.500000 0.586780 0.206670 0.964451
Zn9   Zn    Zn3+2 0.000000 0.913260 0.706650 1.002206
Zn10  Zn    Zn3+2 0.500000 0.413260 0.793350 1.002146
Zn11  Zn    Zn3+2 0.500000 0.413260 0.206650 1.002141
Zn12  Zn    Zn3+2 0.913230 0.000000 0.206580 0.966112
Zn13  Zn    Zn3+2 0.913230 0.000000 0.793420 0.966121
Zn14  Zn    Zn3+2 0.086770 0.000000 0.206580 0.964517
Zn15  Zn    Zn3+2 0.086770 0.000000 0.793420 0.964514
Zn16  Zn    Zn3+2 0.413230 0.500000 0.706580 0.964534

loop_
_geom_bond_atom_site_label_1
_geom_bond_atom_site_label_2
_ccdc_geom_bond_type
C53   C110  A    
C71   O16   A    
O5    Zn1   S    
C79   O33   A    
O21   Zn4   S    
O40   Zn5   S    
C10   C42   S    
C78   O13   A    
C101  H1    S    
C87   O48   A    
C104  H36   S    
C1    O25   A    
C62   H31   S    
C83   O37   A    
C85   O46   A    
C16   C48   S    
C3    C56   A    
C97   C98   A    
O1    Zn5   S    
C90   C95   A    
O30   Zn2   S    
O23   Zn3   S    
O45   Zn5   S    
O12   Zn9   S    
C57   H27   S    
C15   C46   S    
O11   Zn10  S    
O12   Zn6   S    
O39   Zn4   S    
C111  H6    S    
C17   C26   A    
C28   C37   A    
C108  H3    S    
O19   Zn2   S    
O4    Zn8   S    
O37   Zn2   S    
C38   C42   A    
C31   H18   S    
C52   C74   S    
C25   O26   A    
C59   C66   A    
C13   H11   S    
C95   C99   A    
C43   C52   A    
C57   C59   A    
C75   O9    A    
C94   C98   A    
C40   C49   A    
O41   Zn6   S    
C92   C96   A    
C56   C78   S    
C62   C70   A    
C78   O19   A    
C32   C45   A    
C104  H38   S    
C89   C94   A    
C12   N12   T    
O35   Zn15  S    
C69   O2    A    
C50   C72   S    
C109  H4    S    
C36   O50   A    
C63   C68   A    
O48   Zn11  S    
C25   O49   A    
C44   C53   A    
C26   C34   A    
O20   Zn3   S    
C74   O15   A    
C20   C108  A    
C60   C67   A    
C51   C108  A    
C22   C25   S    
C47   O51   A    
C29   C38   A    
C16   N4    T    
C63   H32   S    
C71   O5    A    
C11   C43   S    
O34   Zn2   S    
C64   C70   A    
O15   Zn13  S    
O24   Zn15  S    
C80   O3    A    
O14   Zn12  S    
C27   C69   S    
O1    Zn1   S    
C42   C51   A    
C30   C80   S    
C88   C89   A    
C84   O40   A    
C2    H10   S    
C4    N1    T    
C21   H17   S    
C39   H26   S    
O43   Zn8   S    
C77   O11   A    
C4    C97   S    
C14   N2    T    
C37   C41   A    
C33   C46   A    
C68   C83   S    
C86   O42   A    
C53   C75   S    
C57   C67   A    
C103  H12   S    
C61   C66   A    
C35   H22   S    
C104  C105  S    
C6    N6    T    
C14   C45   S    
C20   C29   A    
C101  H23   S    
C19   C107  A    
C105  H39   S    
C7    N7    T    
C2    C111  A    
C106  H40   S    
C7    C100  S    
C85   O41   A    
C91   O4    A    
C67   C79   S    
C86   O47   A    
C64   H33   S    
C83   O39   A    
C31   C44   A    
O2    Zn8   S    
C82   O38   A    
O23   Zn10  S    
C72   O17   A    
C39   C43   A    
C34   H21   S    
C27   C35   A    
O33   Zn14  S    
O12   Zn15  S    
C1    O45   A    
O47   Zn10  S    
O1    Zn12  S    
O36   Zn16  S    
C13   C24   A    
C60   C61   A    
C72   O6    A    
O38   Zn3   S    
C46   C55   A    
O34   Zn8   S    
O10   Zn11  S    
C18   C106  A    
C107  H2    S    
C82   O36   A    
C62   C63   A    
O50   Zn5   S    
C60   H29   S    
O13   Zn11  S    
C85   C94   S    
C84   O44   A    
C90   C92   A    
C99   C100  A    
O42   Zn7   S    
C65   C68   A    
O16   Zn14  S    
C87   C96   S    
C11   N11   T    
C77   O18   A    
C37   H24   S    
O32   Zn13  S    
C9    N9    T    
C19   C28   A    
O8    Zn9   S    
O3    Zn7   S    
O7    Zn1   S    
C54   C76   S    
O23   Zn16  S    
O31   Zn12  S    
C33   H20   S    
C26   C36   S    
C45   C54   A    
C1    C23   S    
C79   O31   A    
C5    N5    T    
O1    Zn14  S    
O46   Zn9   S    
C102  C110  A    
O25   Zn12  S    
C65   H35   S    
C73   O14   A    
O27   Zn3   S    
C102  H9    S    
O51   Zn6   S    
C93   C97   A    
C41   C50   A    
C29   C91   S    
C88   C103  S    
O34   Zn11  S    
C55   C112  A    
C73   O7    A    
C91   O28   A    
O18   Zn16  S    
O44   Zn1   S    
C48   C56   A    
C88   C93   A    
O49   Zn6   S    
C89   C101  S    
C22   C31   A    
C24   C47   S    
C15   N3    T    
O34   Zn4   S    
C18   C27   A    
C51   C73   S    
C90   C105  S    
C81   O35   A    
C112  H7    S    
C21   C109  A    
C54   C111  A    
C20   H16   S    
C49   C106  A    
O22   Zn14  S    
C28   C58   S    
C13   C112  A    
C105  H37   S    
C21   C30   A    
C58   O29   A    
C9    C41   S    
C24   C33   A    
C22   C102  A    
C101  C103  S    
O9    Zn10  S    
O26   Zn13  S    
C6    C99   S    
C76   O10   A    
C35   C40   A    
O52   Zn7   S    
C12   C44   S    
C23   C32   A    
C66   C81   S    
C52   C109  A    
C17   H13   S    
C50   C107  A    
C75   O20   A    
O23   Zn7   S    
C59   H28   S    
O17   Zn15  S    
C55   C77   S    
O12   Zn13  S    
C96   C100  A    
C64   C65   A    
C19   H15   S    
C69   O30   A    
C80   O27   A    
C38   H25   S    
C30   C39   A    
C3    C17   A    
C36   O22   A    
C84   C93   S    
C87   O43   A    
C70   C82   S    
C3    H8    S    
C92   C104  S    
C110  H5    S    
C61   H30   S    
C34   C48   A    
C5    C98   S    
C10   N10   T    
C49   C71   S    
O6    Zn9   S    
C2    C23   A    
O28   Zn4   S    
C8    C40   S    
O29   Zn16  S    
C86   C95   S    
C47   O24   A    
C74   O8    A    
C32   H19   S    
C18   H14   S    
C76   O21   A    
C103  H34   S    
C58   O52   A    
C81   O32   A    
C8    N8    T    
