data_mof_unit_30770.cif
_audit_creation_date              2012-12-10T16:54:32-0500
_audit_creation_method            fapswitch 2.2
_symmetry_space_group_name_H-M    P1
_symmetry_Int_Tables_number       1
_space_group_crystal_system       triclinic
_cell_length_a                    14.981438
_cell_length_b                    10.919166
_cell_length_c                    9.70122
_cell_angle_alpha                 89.852484
_cell_angle_beta                  89.914259
_cell_angle_gamma                 89.94441
_cell_volume                      1586.96443755

loop_
_atom_site_label
_atom_site_type_symbol
_atom_type_description
_atom_site_fract_x
_atom_site_fract_y
_atom_site_fract_z
_atom_type_partial_charge
C1    C     C_R   0.498271 0.265371 0.500180 0.841834
C2    C     C_R   0.906487 0.608328 0.514086 0.075984
C3    C     C_R   0.952823 0.276750 0.446688 0.442035
C4    C     C_R   0.047184 0.274378 0.452332 -0.034433
C5    C     C_R   0.094379 0.385704 0.474689 0.047018
C6    C     C_R   0.047007 0.497232 0.493076 -0.041082
C7    C     C_R   0.093408 0.609020 0.514552 0.038009
C8    C     C_R   0.046081 0.719083 0.534963 0.480782
C9    C     C_R   0.952846 0.718054 0.532466 -0.297174
C10   C     C_R   0.188052 0.389078 0.480513 -0.228531
C11   C     C_R   0.232791 0.499293 0.499933 -0.064273
C12   C     C_R   0.329060 0.500281 0.500107 0.795113
C13   C     C_R   0.186510 0.608518 0.516830 -0.212930
C14   C     C_2   0.492774 0.933224 0.387026 -0.159221
C15   C     C_2   0.504638 0.866725 0.501770 -0.315555
C16   C     C_2   0.496875 0.067240 0.386676 -0.163012
C17   C     C_2   0.492418 0.133387 0.502626 -0.322268
C18   C     C_2   0.448170 0.430060 0.922450 -0.062252
C19   C     C_2   0.449347 0.428418 0.078119 -0.066397
C20   C     C_R   0.500734 0.734652 0.499941 0.844965
C21   C     C_R   0.670998 0.499669 0.499836 0.800885
C22   C     C_R   0.813509 0.608119 0.516831 -0.209520
C23   C     C_R   0.767344 0.498796 0.498989 -0.061260
C24   C     C_R   0.812699 0.388980 0.477108 -0.210501
C25   C     C_R   0.906220 0.386966 0.471664 0.005070
C26   C     C_R   0.953379 0.497337 0.492617 -0.017220
Cu1   Cu    Cu3+1 0.500020 0.500020 0.638630 0.943473
Cu2   Cu    Cu3+1 0.499980 0.499980 0.361370 0.941768
H1    H     H_    0.776821 0.692656 0.532820 0.125935
H2    H     H_    0.519289 0.907747 0.600552 0.147469
H3    H     H_    0.502775 0.112119 0.287004 0.167328
H4    H     H_    0.482256 0.092156 0.602941 0.146721
H5    H     H_    0.401770 0.369001 0.871407 0.149461
H6    H     H_    0.544329 0.555226 0.893649 0.193678
H7    H     H_    0.405152 0.364325 0.129716 0.149291
H8    H     H_    0.539925 0.561188 0.105786 0.193080
H9    H     H_    0.774309 0.305616 0.465201 0.168854
H10   H     H_    0.228053 0.307190 0.470002 0.135244
H11   H     H_    0.223657 0.692594 0.532095 0.169855
H12   H     H_    0.916745 0.803392 0.545191 0.167327
H13   H     H_    0.481445 0.888576 0.288651 0.167530
N1    N     N_2   0.499020 0.498660 0.846910 -0.279783
N2    N     N_2   0.499000 0.498630 0.153040 -0.281526
O1    O     O_R   0.500020 0.321960 0.617040 -0.579289
O2    O     O_R   0.499980 0.321920 0.382900 -0.577307
O3    O     O_R   0.370270 0.499990 0.617090 -0.574581
O4    O     O_R   0.370240 0.499950 0.382940 -0.571704
O5    O     O_R   0.500020 0.678080 0.617100 -0.581308
O6    O     O_R   0.499980 0.678040 0.382960 -0.576368
O7    O     O_R   0.629760 0.500050 0.617060 -0.571898
O8    O     O_R   0.629730 0.500010 0.382910 -0.573948
O9    O     O_3   0.906033 0.168940 0.426171 -0.590727
C27   C     C_3   0.883880 0.159665 0.285180 -0.338454
H14   H     H_    0.834274 0.230313 0.254423 0.165449
H15   H     H_    0.853295 0.068653 0.267111 0.195628
H16   H     H_    0.943581 0.166795 0.217693 0.154615
C28   C     C_3   0.095864 0.152020 0.440795 -0.330615
C29   C     C_3   0.142117 0.136043 0.300188 -0.375251
C30   C     C_3   0.207542 0.028787 0.302829 -0.808926
H17   H     H_    0.260611 0.044903 0.380580 0.254742
H18   H     H_    0.172006 0.942329 0.327819 0.291092
H19   H     H_    0.239457 0.019059 0.200055 0.229337
H20   H     H_    0.091424 0.118386 0.219522 0.215025
H21   H     H_    0.178900 0.219982 0.269534 0.219147
H22   H     H_    0.144678 0.143893 0.526460 0.182338
H23   H     H_    0.049515 0.073826 0.455929 0.264194
O10   O     O_3   0.091200 0.828951 0.548206 -0.598529
C31   C     C_3   0.086823 0.866914 0.686839 -0.363106
H24   H     H_    0.113424 0.795365 0.757842 0.168066
H25   H     H_    0.017541 0.892434 0.716490 0.173613
H26   H     H_    0.128991 0.949627 0.698948 0.186990

loop_
_geom_bond_atom_site_label_1
_geom_bond_atom_site_label_2
_ccdc_geom_bond_type
C4    C28   S    
Cu1   O5    S    
C11   C12   S    
Cu2   O4    S    
C2    C22   A    
C20   O6    A    
C22   H1    S    
Cu2   O6    S    
Cu2   N2    S    
C1    C17   S    
H6    N1    S    
Cu1   O7    S    
C21   O8    A    
C28   H23   S    
C10   H10   S    
H8    N2    S    
C31   H25   S    
C12   O4    A    
C24   H9    S    
C25   C26   A    
C24   C25   A    
C30   H17   S    
C2    C26   A    
C6    C26   A    
C27   H14   S    
C3    O9    S    
C16   H3    S    
C11   C13   A    
Cu1   N1    S    
C1    O2    A    
C28   C29   S    
C20   O5    A    
C14   H13   S    
C15   H2    S    
C31   H26   S    
C5    C6    A    
Cu1   O3    S    
C5    C10   A    
C21   O7    A    
C18   H5    S    
C19   N2    D    
C6    C7    A    
C22   C23   A    
C27   H15   S    
C21   C23   S    
C29   H21   S    
C15   C20   S    
Cu2   O8    S    
C14   C16   S    
Cu2   O2    S    
C30   H18   S    
C7    C8    A    
C10   C11   A    
C23   C24   A    
C3    C4    A    
C7    C13   A    
C3    C25   A    
O9    C27   S    
C8    O10   S    
C12   O3    A    
C18   C19   S    
C27   H16   S    
C29   H20   S    
C17   H4    S    
C14   C15   D    
C8    C9    A    
C30   H19   S    
C19   H7    S    
C1    O1    A    
C18   N1    D    
C29   C30   S    
C31   H24   S    
C2    C9    A    
Cu1   O1    S    
C9    H12   S    
C13   H11   S    
O10   C31   S    
C16   C17   D    
C28   H22   S    
C4    C5    A    
Cu1   Cu2   S    
