data_mof_unit_42567.cif
_audit_creation_date              2013-03-05T15:58:35-0500
_audit_creation_method            fapswitch 2.2
_symmetry_space_group_name_H-M    P1
_symmetry_Int_Tables_number       1
_space_group_crystal_system       triclinic
_cell_length_a                    15.018734
_cell_length_b                    13.95233
_cell_length_c                    10.612849
_cell_angle_alpha                 90.448725
_cell_angle_beta                  85.199837
_cell_angle_gamma                 90.053234
_cell_volume                      2216.01554183

loop_
_atom_site_label
_atom_site_type_symbol
_atom_site_description
_atom_site_fract_x
_atom_site_fract_y
_atom_site_fract_z
_atom_type_partial_charge
O1    O     O_R   0.370260 0.582280 0.500030 -0.585639
O2    O     O_R   0.629740 0.417720 0.499970 -0.585637
O3    O     O_R   0.629740 0.582280 0.499970 -0.577394
O4    O     O_R   0.370260 0.417720 0.500030 -0.577394
C1    C     C_R   0.329304 0.500007 0.502000 0.802172
C2    C     C_R   0.670696 0.499993 0.497998 0.802168
O5    O     O_R   0.499980 0.582260 0.316850 -0.582866
O6    O     O_R   0.500020 0.417740 0.683150 -0.582866
O7    O     O_R   0.500020 0.582260 0.683150 -0.588607
O8    O     O_R   0.499980 0.417740 0.316850 -0.588607
C3    C     C_R   0.500224 0.499631 0.259598 0.760140
C4    C     C_R   0.499775 0.500369 0.740402 0.760148
Cu1   Cu    Cu3+1 0.500000 0.597420 0.500000 0.930431
Cu2   Cu    Cu3+1 0.500000 0.402580 0.500000 0.930432
C5    C     C_3   0.427128 0.546033 0.051539 -0.159870
C6    C     C_3   0.572871 0.453967 0.948461 -0.159870
C7    C     C_3   0.500996 0.591339 0.960673 -0.132152
C8    C     C_3   0.499004 0.408661 0.039327 -0.132151
C9    C     C_3   0.426065 0.455819 0.966079 -0.185720
C10   C     C_3   0.573934 0.544181 0.033921 -0.185721
H1    H     H_    0.365617 0.419620 0.935296 0.132020
H2    H     H_    0.634382 0.580381 0.064703 0.132022
H3    H     H_    0.367465 0.583541 0.096833 0.125016
H4    H     H_    0.632535 0.416459 0.903167 0.125017
H5    H     H_    0.502156 0.666265 0.926271 0.137480
H6    H     H_    0.497843 0.333734 0.073729 0.137480
C11   C     C_3   0.499912 0.501044 0.877481 0.034610
C12   C     C_3   0.500087 0.498956 0.122519 0.034612
C13   C     C_R   0.820256 0.525303 0.381089 0.137520
C14   C     C_R   0.179742 0.474688 0.618893 0.137511
C15   C     C_R   0.767467 0.499823 0.492198 -0.047681
C16   C     C_R   0.232533 0.500176 0.507791 -0.047679
C17   C     C_R   0.806011 0.471518 0.600049 -0.276037
C18   C     C_R   0.193992 0.528476 0.399935 -0.276035
C19   C     C_R   0.898074 0.468362 0.601546 0.077280
C20   C     C_R   0.101928 0.531624 0.398431 0.077274
C21   C     C_R   0.953208 0.500716 0.496723 -0.017940
C22   C     C_R   0.046794 0.499268 0.503251 -0.017936
C23   C     C_R   0.914734 0.534453 0.386147 0.089122
C24   C     C_R   0.085266 0.465529 0.613824 0.089137
C25   C     C_R   0.934741 0.430845 0.706793 -0.205215
C26   C     C_R   0.065263 0.569130 0.293177 -0.205208
C27   C     C_R   0.027075 0.424760 0.712833 0.182138
C28   C     C_R   0.972929 0.575209 0.287129 0.182146
H7    H     H_    0.890386 0.402727 0.783763 0.141434
H8    H     H_    0.109620 0.597243 0.216204 0.141430
C29   C     C_R   0.447244 0.795120 0.591049 0.282407
C30   C     C_R   0.552756 0.204880 0.408951 0.282405
C31   C     C_R   0.552665 0.794234 0.408869 0.291706
C32   C     C_R   0.447335 0.205766 0.591131 0.291707
N1    N     N_R   0.500000 0.743810 0.500000 -0.182362
N2    N     N_R   0.500000 0.256190 0.500000 -0.182362
C33   C     C_R   0.550107 0.896667 0.404800 -0.002702
C34   C     C_R   0.449893 0.103333 0.595200 -0.002702
C35   C     C_R   0.449781 0.897637 0.595111 -0.002700
C36   C     C_R   0.550219 0.102363 0.404889 -0.002700
C37   C     C_R   0.499980 0.948450 0.499987 0.032755
C38   C     C_R   0.500020 0.051550 0.500013 0.032755
C39   C     C_R   0.597603 0.949126 0.307788 -0.194552
C40   C     C_R   0.402397 0.050874 0.692212 -0.194551
C41   C     C_R   0.402265 0.951133 0.692094 -0.195426
C42   C     C_R   0.597735 0.048867 0.307906 -0.195426
H9    H     H_    0.635439 0.914378 0.229252 0.148778
H10   H     H_    0.364561 0.085622 0.770748 0.148778
H11   H     H_    0.364231 0.917228 0.770436 0.148545
H12   H     H_    0.635769 0.082772 0.229564 0.148544
C43   C     C_3   0.776384 0.527268 0.257263 -0.904076
H13   H     H_    0.816334 0.484371 0.184545 0.239853
H14   H     H_    0.709531 0.493081 0.263897 0.203709
H15   H     H_    0.766878 0.601670 0.225708 0.233808
C44   C     C_3   0.223604 0.472731 0.742726 -0.904095
H16   H     H_    0.290443 0.506947 0.736105 0.203719
H17   H     H_    0.183633 0.515603 0.815447 0.239866
H18   H     H_    0.233133 0.398331 0.774269 0.233807
H19   H     H_    0.763460 0.449469 0.682576 0.133939
H20   H     H_    0.236545 0.550527 0.317412 0.133939
C45   C     C_3   0.058208 0.364247 0.818310 -0.866438
H21   H     H_    0.002642 0.321712 0.865694 0.221735
H22   H     H_    0.108254 0.311019 0.779494 0.236699
H23   H     H_    0.084300 0.409407 0.893172 0.236883
C46   C     C_3   0.941801 0.635693 0.181619 -0.866409
H24   H     H_    0.997374 0.678200 0.134195 0.221723
H25   H     H_    0.915693 0.590513 0.106788 0.236877
H26   H     H_    0.891769 0.688946 0.220410 0.236690
C47   C     C_3   0.383501 0.746158 0.688555 -0.782015
H27   H     H_    0.374228 0.669645 0.676723 0.273909
H28   H     H_    0.406338 0.757628 0.784329 0.188862
H29   H     H_    0.315417 0.776525 0.685106 0.194799
C48   C     C_3   0.616499 0.253842 0.311445 -0.782011
H30   H     H_    0.625772 0.330355 0.323277 0.273912
H31   H     H_    0.684583 0.223474 0.314893 0.194797
H32   H     H_    0.593662 0.242372 0.215671 0.188861
C49   C     C_3   0.616197 0.744350 0.311084 -0.796026
H33   H     H_    0.626226 0.668371 0.324316 0.278276
H34   H     H_    0.592460 0.753416 0.215549 0.198945
H35   H     H_    0.684174 0.775449 0.313154 0.190429
C50   C     C_3   0.383803 0.255650 0.688916 -0.796030
H36   H     H_    0.373774 0.331629 0.675684 0.278275
H37   H     H_    0.315826 0.224551 0.686846 0.190426
H38   H     H_    0.407540 0.246584 0.784451 0.198946

loop_
_geom_bond_atom_site_label_1
_geom_bond_atom_site_label_2
_geom_bond_distance
_ccdc_geom_bond_type
C22   C24   1.433595 A    
C49   H33   1.082746 S    
C20   C26   1.391935 A    
C8    H6    1.109663 S    
O3    C2    1.302196 A    
C50   H38   1.110702 S    
C14   C44   1.519003 S    
C33   C39   1.411559 A    
C34   C40   1.411559 A    
C45   H21   1.111326 S    
C5    C9    1.546504 S    
C32   C34   1.430819 A    
O1    C1    1.301297 A    
C29   C47   1.515935 S    
C19   C21   1.407134 A    
C45   H23   1.107067 S    
C7    C10   1.545665 S    
C30   C36   1.431226 A    
C8    C9    1.545665 S    
C26   H8    1.085564 S    
O7    Cu1   1.956888 S    
C46   H25   1.107086 S    
Cu1   N1    2.042482 S    
C17   H19   1.086423 S    
C24   C27   1.430462 A    
Cu2   N2    2.042482 S    
C31   N1    1.391963 A    
C32   N2    1.391963 A    
C15   C17   1.385502 A    
C48   H31   1.110735 S    
C9    C11   1.531615 S    
O3    Cu1   1.960115 S    
O6    C4    1.298826 A    
C1    C16   1.449528 S    
C6    C11   1.531926 S    
C5    H3    1.110279 S    
C2    C15   1.449523 S    
C6    H4    1.110277 S    
C13   C43   1.519011 S    
Cu1   Cu2   2.718471 S    
C13   C15   1.412445 A    
C25   C27   1.396262 A    
O2    C2    1.301296 A    
C26   C28   1.396262 A    
C19   C25   1.391939 A    
C50   H37   1.110785 S    
C50   H36   1.082745 S    
C45   H22   1.109334 S    
C42   H12   1.080519 S    
C47   H28   1.109992 S    
C43   H13   1.108938 S    
C7    C11   1.533589 S    
C8    C12   1.533589 S    
C28   C46   1.512516 S    
O8    Cu2   1.956889 S    
C44   H17   1.108917 S    
C33   C37   1.404137 A    
C29   N1    1.391439 A    
C4    C11   1.454930 S    
C47   H27   1.084137 S    
C46   H24   1.111351 S    
C40   C41   1.391607 A    
C43   H14   1.108323 S    
C16   C18   1.385499 A    
O5    C3    1.298826 A    
C21   C22   1.413195 A    
C30   N2    1.391439 A    
C6    C10   1.546504 S    
C13   C23   1.429994 A    
C14   C24   1.429983 A    
C48   H32   1.109992 S    
C10   H2    1.110042 S    
C49   H35   1.110783 S    
C30   C48   1.515935 S    
C35   C37   1.404649 A    
C36   C42   1.411310 A    
O1    Cu1   1.959726 S    
C5    C12   1.531924 S    
C39   C42   1.391607 A    
C46   H26   1.109345 S    
C29   C35   1.431226 A    
C34   C38   1.404137 A    
C47   H29   1.110733 S    
C5    C7    1.545804 S    
C32   C50   1.515262 S    
O6    Cu2   1.953594 S    
C9    H1    1.110044 S    
O4    C1    1.302192 A    
C44   H18   1.106275 S    
C23   C28   1.430495 A    
C27   C45   1.512505 S    
C10   C12   1.531615 S    
C39   H9    1.080551 S    
C40   H10   1.080552 S    
C43   H15   1.106287 S    
C7    H5    1.109663 S    
C20   C22   1.407125 A    
C44   H16   1.108315 S    
C21   C23   1.433610 A    
C14   C16   1.412429 A    
C37   C38   1.438476 A    
C49   H34   1.110702 S    
C3    C12   1.454931 S    
C31   C33   1.430819 A    
C35   C41   1.411309 A    
C17   C19   1.384833 A    
C36   C38   1.404649 A    
C18   C20   1.384854 A    
O4    Cu2   1.960115 S    
O2    Cu2   1.959726 S    
O7    C4    1.298137 A    
O8    C3    1.298137 A    
C41   H11   1.080519 S    
O5    Cu1   1.953596 S    
C6    C8    1.545805 S    
C25   H7    1.085553 S    
C31   C49   1.515263 S    
C48   H30   1.084136 S    
C18   H20   1.086424 S    
