data_mof_unit_48250.cif
_audit_creation_date              2012-12-10T17:21:41-0500
_audit_creation_method            fapswitch 2.2
_symmetry_space_group_name_H-M    P1
_symmetry_Int_Tables_number       1
_space_group_crystal_system       triclinic
_cell_length_a                    10.735911
_cell_length_b                    10.786895
_cell_length_c                    9.604694
_cell_angle_alpha                 90.023893
_cell_angle_beta                  89.890549
_cell_angle_gamma                 92.837916
_cell_volume                      1110.92597867

loop_
_atom_site_label
_atom_site_type_symbol
_atom_type_description
_atom_site_fract_x
_atom_site_fract_y
_atom_site_fract_z
_atom_type_partial_charge
C1    C     C_R   0.494609 0.262518 0.500176 0.781781
C2    C     C_R   0.398160 0.060302 0.585572 0.084243
C3    C     C_R   0.485460 0.128189 0.500636 -0.110250
C4    C     C_R   0.259987 0.498166 0.500185 0.718884
C5    C     C_R   0.566801 0.067292 0.413561 -0.186608
C6    C     C_R   0.567140 0.939488 0.413614 -0.203934
C7    C     C_R   0.485837 0.870287 0.500396 -0.095607
C8    C     C_R   0.666887 0.664469 0.143689 -0.151965
C9    C     C_R   0.748925 0.744538 0.071431 -0.221816
C10   C     C_R   0.748884 0.744687 0.927914 -0.209680
C11   C     C_R   0.666747 0.664821 0.855780 -0.147380
C12   C     C_3   0.877750 0.497420 0.500275 0.121253
C13   C     C_R   0.582028 0.580920 0.925075 0.210455
C14   C     C_R   0.582053 0.580808 0.074616 0.215286
C15   C     C_R   0.421634 0.423318 0.074027 -0.063173
C16   C     C_R   0.495432 0.737005 0.500106 0.772953
C17   C     C_R   0.421635 0.423393 0.926174 -0.062952
C18   C     C_R   0.739901 0.499343 0.500070 0.747122
C19   C     C_3   0.069811 0.478307 0.650803 -0.356248
C20   C     C_3   0.927145 0.477188 0.650248 -0.350925
C21   C     C_3   0.078445 0.621074 0.443833 -0.392329
C22   C     C_3   0.065422 0.388857 0.405355 -0.111636
C23   C     C_3   0.934799 0.622269 0.444072 -0.409524
C24   C     C_3   0.121631 0.495407 0.500374 0.100549
C25   C     C_2   0.112788 0.263139 0.442711 0.296180
C26   C     C_3   0.920669 0.390523 0.406417 -0.342265
C27   C     C_R   0.308478 0.119212 0.667254 -0.153533
C28   C     C_R   0.221981 0.049932 0.747366 -0.074286
C29   C     C_R   0.221069 0.921097 0.745695 -0.147211
C30   C     C_R   0.307206 0.860803 0.664631 -0.190108
C31   C     C_R   0.397931 0.929104 0.584860 0.106106
Cu1   Cu    Cu3+1 0.499990 0.499990 0.640660 0.919520
Cu2   Cu    Cu3+1 0.500010 0.500010 0.359340 0.922754
H1    H     H_    0.106322 0.555613 0.718592 0.164788
H2    H     H_    0.633536 0.894379 0.347963 0.142442
H3    H     H_    0.357343 0.360446 0.129280 0.128537
H4    H     H_    0.100691 0.390390 0.697033 0.183927
H5    H     H_    0.674068 0.672504 0.253442 0.191142
H6    H     H_    0.812816 0.807198 0.127556 0.145331
H7    H     H_    0.812820 0.807405 0.871708 0.148637
H8    H     H_    0.673950 0.673143 0.745972 0.196381
H9    H     H_    0.357243 0.360672 0.871200 0.125893
H10   H     H_    0.888748 0.386901 0.692091 0.188171
H11   H     H_    0.896522 0.551747 0.720869 0.168136
H12   H     H_    0.887702 0.403921 0.297853 0.151131
H13   H     H_    0.117235 0.698944 0.509057 0.165698
H14   H     H_    0.904463 0.700219 0.509968 0.157758
H15   H     H_    0.096658 0.407693 0.296389 0.100564
H16   H     H_    0.875654 0.301171 0.442626 0.190220
H17   H     H_    0.201999 0.236852 0.401729 0.066656
H18   H     H_    0.113784 0.636971 0.335953 0.175771
H19   H     H_    0.901502 0.638681 0.336317 0.168099
H20   H     H_    0.632878 0.119245 0.347783 0.153765
H21   H     H_    0.301256 0.218667 0.667489 0.136869
H22   H     H_    0.153753 0.096488 0.808859 0.134155
H23   H     H_    0.152195 0.867503 0.805960 0.127975
H24   H     H_    0.299542 0.760653 0.663409 0.154048
N1    N     N_R   0.501200 0.501210 0.147910 -0.198139
N2    N     N_R   0.501250 0.501290 0.852040 -0.198523
O1    O     O_R   0.499990 0.319640 0.618810 -0.575812
O2    O     O_R   0.500000 0.319660 0.381240 -0.577702
O3    O     O_R   0.317680 0.499970 0.618790 -0.595735
O4    O     O_R   0.317700 0.499990 0.381210 -0.589147
O5    O     O_R   0.500000 0.680340 0.618760 -0.599385
O6    O     O_R   0.500010 0.680360 0.381190 -0.587443
O7    O     O_R   0.682300 0.500010 0.618790 -0.599835
O8    O     O_R   0.682320 0.500030 0.381210 -0.600963
O9    O     O_2   0.054617 0.191816 0.520562 -0.559066

loop_
_geom_bond_atom_site_label_1
_geom_bond_atom_site_label_2
_ccdc_geom_bond_type
C8    C9    A    
C22   H15   S    
C6    C7    A    
C13   N2    A    
C29   H23   S    
C18   O7    A    
C19   H4    S    
C9    C10   A    
Cu1   O7    S    
C19   C20   S    
C4    O4    A    
Cu2   N1    S    
C21   H18   S    
C30   C31   A    
Cu2   O4    S    
C2    C27   A    
Cu1   Cu2   S    
C12   C20   S    
C19   C24   S    
C27   H21   S    
Cu2   O6    S    
C13   C14   A    
C11   C13   A    
C12   C23   S    
Cu2   O8    S    
C23   H19   S    
C29   C30   A    
C25   O9    D    
C8    H5    S    
C17   N2    A    
C14   N1    A    
C5    H20   S    
C7    C16   S    
C20   H11   S    
C28   H22   S    
C11   H8    S    
C2    C3    A    
C21   C23   S    
C5    C6    A    
C4    C24   S    
C15   N1    A    
C22   C24   S    
C21   C24   S    
C26   H16   S    
C23   H14   S    
C10   C11   A    
Cu1   O1    S    
Cu1   O3    S    
C3    C5    A    
C30   H24   S    
C4    O3    A    
C15   H3    S    
C9    H6    S    
C20   H10   S    
C7    C31   A    
C6    H2    S    
Cu1   O5    S    
Cu2   O2    S    
C21   H13   S    
C22   C26   S    
C1    O1    A    
C12   C18   S    
C27   C28   A    
C15   C17   A    
C25   H17   S    
C28   C29   A    
C10   H7    S    
C8    C14   A    
C16   O6    A    
C16   O5    A    
Cu1   N2    S    
C1    C3    S    
C18   O8    A    
C17   H9    S    
C19   H1    S    
C12   C26   S    
C2    C31   A    
C26   H12   S    
C22   C25   S    
C1    O2    A    
