data_mof_unit_24373.cif
_audit_creation_date              2013-03-05T16:04:28-0500
_audit_creation_method            fapswitch 2.2
_symmetry_space_group_name_H-M    P1
_symmetry_Int_Tables_number       1
_space_group_crystal_system       triclinic
_cell_length_a                    10.97866
_cell_length_b                    9.635933
_cell_length_c                    15.022785
_cell_angle_alpha                 89.281853
_cell_angle_beta                  94.464054
_cell_angle_gamma                 88.268188
_cell_volume                      1583.53325082

loop_
_atom_site_label
_atom_site_type_symbol
_atom_site_description
_atom_site_fract_x
_atom_site_fract_y
_atom_site_fract_z
_atom_type_partial_charge
O1    O     O_R   0.319640 0.618740 0.499990 -0.625546
O2    O     O_R   0.680360 0.381260 0.500010 -0.625443
O3    O     O_R   0.680360 0.618740 0.500010 -0.604007
O4    O     O_R   0.319640 0.381260 0.499990 -0.603830
C1    C     C_R   0.262559 0.502282 0.501527 0.801350
C2    C     C_R   0.737442 0.497720 0.498477 0.801499
O5    O     O_R   0.499970 0.618800 0.370260 -0.603681
O6    O     O_R   0.500030 0.381200 0.629740 -0.603699
O7    O     O_R   0.500030 0.618800 0.629740 -0.602216
O8    O     O_R   0.499970 0.381200 0.370260 -0.602259
C3    C     C_R   0.497318 0.500818 0.329101 0.862421
C4    C     C_R   0.502677 0.499182 0.670898 0.862607
Cu1   Cu    Cu3+1 0.500000 0.640660 0.500000 0.962234
Cu2   Cu    Cu3+1 0.500000 0.359340 0.500000 0.962287
C5    C     C_R   0.614399 0.525726 0.820243 0.288616
C6    C     C_R   0.385629 0.474261 0.179752 0.288597
C7    C     C_R   0.506194 0.497249 0.767590 -0.144522
C8    C     C_R   0.493824 0.502745 0.232410 -0.144556
C9    C     C_R   0.397714 0.472216 0.806664 -0.254399
C10   C     C_R   0.602316 0.527741 0.193340 -0.254362
C11   C     C_R   0.394260 0.474882 0.898947 0.120962
C12   C     C_R   0.605778 0.525057 0.101056 0.120934
C13   C     C_R   0.501825 0.499901 0.953222 0.038354
C14   C     C_R   0.498212 0.500051 0.046778 0.038343
C15   C     C_R   0.612854 0.524499 0.914136 0.009898
C16   C     C_R   0.387184 0.475450 0.085863 0.009941
C17   C     C_R   0.284292 0.453945 0.937564 -0.170711
C18   C     C_R   0.715753 0.545943 0.062440 -0.170712
C19   C     C_R   0.280369 0.455496 0.029886 -0.104892
C20   C     C_R   0.719677 0.544390 0.970117 -0.104869
H1    H     H_    0.315094 0.453529 0.764678 0.139279
H2    H     H_    0.684936 0.546416 0.235329 0.139295
H3    H     H_    0.200786 0.437057 0.896193 0.170821
H4    H     H_    0.799265 0.562788 0.103813 0.170820
H5    H     H_    0.192645 0.442324 0.056465 0.207281
H6    H     H_    0.807410 0.557499 0.943544 0.207276
C21   C     C_R   0.073009 0.393063 0.545101 -0.044056
C22   C     C_R   0.926997 0.606950 0.454927 -0.044145
C23   C     C_R   0.945090 0.384701 0.537601 -0.006672
C24   C     C_R   0.054913 0.615334 0.462455 -0.006696
C25   C     C_R   0.871581 0.493626 0.494744 -0.191759
C26   C     C_R   0.128423 0.506384 0.505278 -0.191812
C27   C     C_R   0.420830 0.077841 0.442245 0.062096
C28   C     C_R   0.579184 0.922161 0.557749 0.062205
C29   C     C_R   0.572923 0.070405 0.561785 0.033717
C30   C     C_R   0.427066 0.929597 0.438220 0.033624
N1    N     N_R   0.500000 0.852070 0.500000 -0.269830
N2    N     N_R   0.500000 0.147930 0.500000 -0.269832
N3    N     N_R   0.724088 0.556759 0.778430 0.086794
O9    O     O_R   0.763676 0.475396 0.717840 -0.374522
O10   O     O_R   0.780064 0.671423 0.796434 -0.338497
N4    N     N_R   0.275931 0.443262 0.221558 0.086670
O11   O     O_R   0.236125 0.524884 0.281922 -0.374209
O12   O     O_R   0.220058 0.328498 0.203679 -0.338643
C31   C     C_2   0.149599 0.285138 0.597607 0.517957
H7    H     H_    0.223614 0.316335 0.644396 0.040134
O13   O     O_2   0.134363 0.161456 0.585935 -0.482743
C32   C     C_2   0.850411 0.714880 0.402424 0.517976
H8    H     H_    0.776460 0.683688 0.355584 0.040144
O14   O     O_2   0.865563 0.838554 0.414167 -0.482787
C33   C     C_2   0.890148 0.261615 0.576277 0.508702
H9    H     H_    0.834869 0.194244 0.533500 0.086216
O15   O     O_2   0.909045 0.232965 0.655697 -0.465655
C34   C     C_2   0.109851 0.738502 0.423900 0.508584
H10   H     H_    0.165169 0.805740 0.466733 0.086270
O16   O     O_2   0.090917 0.767372 0.344527 -0.465640
C35   C     C_2   0.318025 0.153663 0.391003 0.544928
H11   H     H_    0.329459 0.251904 0.359116 0.148740
O17   O     O_2   0.215717 0.106498 0.385596 -0.485001
C36   C     C_2   0.682016 0.846351 0.608987 0.544530
H12   H     H_    0.670686 0.747867 0.640658 0.148932
O18   O     O_2   0.784258 0.893767 0.614607 -0.484998
C37   C     C_2   0.635618 0.139290 0.639233 0.498404
H13   H     H_    0.673790 0.239503 0.632314 0.140149
O19   O     O_2   0.641993 0.085434 0.713566 -0.500398
C38   C     C_2   0.364308 0.860708 0.360795 0.498199
H14   H     H_    0.326184 0.760470 0.367727 0.140261
O20   O     O_2   0.357814 0.914593 0.286466 -0.500450

loop_
_geom_bond_atom_site_label_1
_geom_bond_atom_site_label_2
_geom_bond_distance
_ccdc_geom_bond_type
C31   H7    1.084374 S    
C3    C8    1.449967 S    
C17   C19   1.391200 A    
C37   H13   1.071274 S    
C1    C26   1.477440 S    
O3    C2    1.308399 A    
C9    H1    1.084743 S    
C30   C38   1.480022 S    
C23   C25   1.420720 A    
C17   H3    1.084488 S    
O5    C3    1.300941 A    
O1    C1    1.302560 A    
C9    C11   1.390357 A    
C14   C16   1.418510 A    
C5    C15   1.411859 A    
C32   O14   1.221333 D    
C29   C37   1.479991 S    
C21   C26   1.414499 A    
C33   O15   1.221682 D    
O7    Cu1   1.957752 S    
C22   C32   1.494671 S    
N3    O10   1.301641 A    
C2    C25   1.477444 S    
C4    C7    1.449959 S    
C13   C14   1.409128 A    
C28   C36   1.483726 S    
C36   H12   1.071186 S    
C27   N2    1.377381 A    
O3    Cu1   1.984974 S    
C28   N1    1.377433 A    
C24   C26   1.420697 A    
C11   C17   1.398441 A    
C18   H4    1.084472 S    
C12   C18   1.398424 A    
Cu1   Cu2   2.710781 S    
C37   O19   1.221599 D    
O2    C2    1.302575 A    
O7    C4    1.299624 A    
N4    O12   1.301593 A    
C11   C13   1.410591 A    
C6    C16   1.411816 A    
C23   C33   1.479408 S    
C35   H11   1.070761 S    
C38   H14   1.071292 S    
C22   C25   1.414502 A    
O8    Cu2   1.957752 S    
Cu1   N1    2.037133 S    
Cu2   N2    2.037134 S    
C32   H8    1.084318 S    
C35   O17   1.221605 D    
C34   O16   1.221491 D    
O6    C4    1.300935 A    
C6    C8    1.411014 A    
C10   C12   1.390389 A    
C31   O13   1.221398 D    
C12   C14   1.410586 A    
O1    Cu1   1.997671 S    
N4    O11   1.300278 A    
C10   H2    1.084741 S    
C29   N2    1.375253 A    
C15   C20   1.408364 A    
C5    C7    1.411052 A    
C30   N1    1.375281 A    
O6    Cu2   1.963004 S    
C28   C29   1.430315 A    
C6    N4    1.438351 S    
C38   O20   1.221634 D    
O4    C1    1.308410 A    
C19   H5    1.081239 S    
C24   C34   1.479272 S    
C20   H6    1.081212 S    
C34   H10   1.084469 S    
C18   C20   1.391214 A    
C21   C23   1.404954 A    
C22   C24   1.404943 A    
C7    C9    1.394198 A    
C8    C10   1.394219 A    
C5    N3    1.438398 S    
O4    Cu2   1.984975 S    
C33   H9    1.084578 S    
O2    Cu2   1.997670 S    
C27   C30   1.430307 A    
O8    C3    1.299625 A    
C21   C31   1.494685 S    
O5    Cu1   1.963004 S    
C13   C15   1.418515 A    
C16   C19   1.408361 A    
C27   C35   1.483598 S    
N3    O9    1.300366 A    
C36   O18   1.221907 D    
