data_mof_unit_40198.cif
_audit_creation_date              2012-12-10T17:18:12-0500
_audit_creation_method            fapswitch 2.2
_symmetry_space_group_name_H-M    P1
_symmetry_Int_Tables_number       1
_space_group_crystal_system       triclinic
_cell_length_a                    10.359207
_cell_length_b                    10.378376
_cell_length_c                    14.92717
_cell_angle_alpha                 92.123161
_cell_angle_beta                  79.818539
_cell_angle_gamma                 93.93046
_cell_volume                      1575.35115303

loop_
_atom_site_label
_atom_site_type_symbol
_atom_type_description
_atom_site_fract_x
_atom_site_fract_y
_atom_site_fract_z
_atom_type_partial_charge
C1    C     C_R   0.553261 0.735138 0.495384 0.948237
C2    C     C_2   0.063142 0.475322 0.511863 0.483797
C3    C     C_R   0.498339 0.498342 0.673052 0.896838
C4    C     C_R   0.501698 0.500567 0.326889 0.855903
C5    C     C_R   0.592584 0.429081 0.172481 -0.272738
C6    C     C_R   0.418283 0.581889 0.826262 -0.260383
C7    C     C_R   0.506018 0.504708 0.230737 -0.051369
C8    C     C_R   0.497753 0.499175 0.768866 -0.061522
C9    C     C_R   0.422788 0.584220 0.197558 -0.251228
C10   C     C_R   0.583180 0.421889 0.801864 -0.262440
C11   C     C_R   0.423915 0.587232 0.104870 0.113098
C12   C     C_R   0.446954 0.265430 0.510238 0.963989
C13   C     C_R   0.588367 0.425213 0.893800 0.106535
C14   C     C_R   0.508253 0.508045 0.045681 0.060886
C15   C     C_R   0.506127 0.506523 0.952719 0.056060
C16   C     C_R   0.593450 0.429115 0.079631 0.126321
C17   C     C_R   0.421155 0.585670 0.918717 0.121217
C18   C     C_R   0.341485 0.667002 0.070612 -0.215640
C19   C     C_R   0.673650 0.348263 0.927699 -0.215565
C20   C     C_3   0.048720 0.269966 0.561572 0.105878
C21   C     C_3   0.045122 0.128737 0.528456 -0.255630
C22   C     C_3   0.020518 0.036498 0.607856 -0.996654
C23   C     C_R   0.340792 0.666873 0.977611 -0.210335
C24   C     C_3   0.843042 0.650495 0.635063 0.101831
C25   C     C_3   0.742712 0.753790 0.660408 -0.280467
C26   C     C_3   0.727250 0.795288 0.760842 -0.999277
C27   C     C_3   0.165062 0.687532 0.656249 0.171940
C28   C     C_3   0.106586 0.583344 0.727500 -0.461423
C29   C     C_3   0.056563 0.643129 0.821220 -0.952331
C30   C     C_3   0.840008 0.313676 0.344052 0.220279
C31   C     C_3   0.918157 0.207878 0.290166 -0.382922
C32   C     C_3   0.879873 0.183883 0.196578 -1.002895
C33   C     C_R   0.676317 0.350353 0.020491 -0.221020
C34   C     C_2   0.576850 0.873826 0.506464 -0.407079
C35   C     C_2   0.425402 0.129372 0.531959 -0.430935
C36   C     C_2   0.509069 0.935467 0.578617 0.336986
C37   C     C_2   0.508461 0.076235 0.577935 0.374819
C38   C     C_2   0.921865 0.516733 0.509331 0.505230
H1    H     H_    0.656304 0.367917 0.199729 0.145438
H2    H     H_    0.640404 0.926854 0.452480 0.110958
H3    H     H_    0.648134 0.094743 0.649320 0.322979
H4    H     H_    0.399346 0.930811 0.697822 0.324130
H5    H     H_    0.947647 0.290416 0.597069 0.107941
H6    H     H_    0.117025 0.284793 0.611359 0.140604
H7    H     H_    0.965612 0.110681 0.487550 0.237655
H8    H     H_    0.139603 0.108773 0.483897 0.219915
H9    H     H_    0.100992 0.049884 0.648300 0.262185
H10   H     H_    0.017129 0.935230 0.581209 0.300406
H11   H     H_    0.925229 0.053708 0.652600 0.262233
H12   H     H_    0.356979 0.644957 0.798581 0.169929
H13   H     H_    0.924292 0.689837 0.666397 0.202759
H14   H     H_    0.807719 0.557104 0.667692 0.114303
H15   H     H_    0.774323 0.840210 0.618350 0.231711
H16   H     H_    0.645410 0.717066 0.647898 0.250913
H17   H     H_    0.704234 0.709819 0.804823 0.280481
H18   H     H_    0.645785 0.861102 0.777777 0.286322
H19   H     H_    0.818877 0.847792 0.774904 0.259050
H20   H     H_    0.134057 0.784108 0.682855 0.143617
H21   H     H_    0.272239 0.697372 0.647761 0.233572
H22   H     H_    0.025149 0.522412 0.705532 0.185698
H23   H     H_    0.357772 0.643960 0.243928 0.159641
H24   H     H_    0.180922 0.515333 0.735487 0.243197
H25   H     H_    0.133841 0.709647 0.843418 0.254640
H26   H     H_    0.028534 0.565689 0.871689 0.275880
H27   H     H_    0.968978 0.697939 0.819371 0.267376
H28   H     H_    0.856736 0.403270 0.303378 0.132326
H29   H     H_    0.734536 0.280752 0.355016 0.168337
H30   H     H_    0.024906 0.236793 0.281452 0.248077
H31   H     H_    0.899623 0.116738 0.328537 0.222260
H32   H     H_    0.773715 0.153449 0.203596 0.260796
H33   H     H_    0.937700 0.106038 0.159589 0.279126
H34   H     H_    0.645278 0.359104 0.755868 0.178481
H35   H     H_    0.900958 0.272990 0.156169 0.264929
H36   H     H_    0.277382 0.728856 0.115712 0.149899
H37   H     H_    0.737430 0.286107 0.882597 0.146169
H38   H     H_    0.276815 0.729282 0.952023 0.144891
H39   H     H_    0.741852 0.289527 0.046045 0.152791
H40   H     H_    0.350883 0.070071 0.504111 0.115231
N1    N     N_2   0.842700 0.448880 0.462930 0.021409
N2    N     N_2   0.157300 0.551120 0.537070 0.031715
O1    O     O_R   0.431060 0.692470 0.507460 -0.572084
O2    O     O_3   0.442178 0.867859 0.652400 -0.823313
O3    O     O_3   0.092968 0.350017 0.486052 -0.614496
O4    O     O_3   0.884809 0.640548 0.539154 -0.619836
O5    O     O_3   0.122903 0.667989 0.571116 -0.596279
O6    O     O_3   0.882488 0.333757 0.428105 -0.586162
O7    O     O_R   0.568940 0.307530 0.492540 -0.562686
O8    O     O_R   0.651120 0.659650 0.483670 -0.582350
O9    O     O_R   0.348880 0.340350 0.516330 -0.596355
O10   O     O_R   0.389960 0.516440 0.644050 -0.666200
O11   O     O_R   0.610040 0.483560 0.355950 -0.662762
O12   O     O_R   0.610030 0.483620 0.620260 -0.619869
O13   O     O_R   0.389970 0.516380 0.379740 -0.596285
O14   O     O_3   0.595169 0.152504 0.621026 -0.757945
Zn1   Zn    Zn3+2 0.353060 0.521920 0.515880 0.995417
Zn2   Zn    Zn3+2 0.646940 0.478080 0.484120 0.993243

loop_
_geom_bond_atom_site_label_1
_geom_bond_atom_site_label_2
_ccdc_geom_bond_type
C24   H14   S    
C22   H10   S    
O8    Zn2   S    
C11   C18   A    
H4    O2    S    
C23   H38   S    
C26   H17   S    
C29   H25   S    
O10   Zn1   S    
C17   C23   A    
C3    O10   A    
C34   H2    S    
C28   C29   S    
C35   C37   D    
C25   H15   S    
C30   C31   S    
O1    Zn1   S    
C11   C14   A    
C38   N1    D    
C1    O1    A    
O12   Zn2   S    
C15   C17   A    
C27   O5    S    
C5    C16   A    
O11   Zn2   S    
H3    O14   S    
C36   O2    S    
C30   O6    S    
C30   H29   S    
C4    O11   A    
C1    O8    A    
C22   H9    S    
C29   H26   S    
C18   H36   S    
C21   C22   S    
C2    O3    S    
C4    C7    S    
C20   H6    S    
C1    C34   S    
C32   H33   S    
C21   H7    S    
C28   H22   S    
C31   H30   S    
C13   C19   A    
C18   C23   A    
C12   O9    A    
C24   C25   S    
C3    C8    S    
C19   C33   A    
C32   H35   S    
C5    C7    A    
C6    C8    A    
C25   C26   S    
C10   C13   A    
C6    H12   S    
C3    O12   A    
C12   C35   S    
O9    Zn1   S    
N2    O5    S    
C9    H23   S    
C16   C33   A    
C2    C38   S    
C31   C32   S    
O7    Zn2   S    
C25   H16   S    
N2    Zn1   S    
C9    C11   A    
C30   H28   S    
C22   H11   S    
C29   H27   S    
C13   C15   A    
C14   C16   A    
C6    C17   A    
C20   H5    S    
C21   H8    S    
C7    C9    A    
C5    H1    S    
C36   C37   S    
C12   O7    A    
C38   O4    S    
C27   H20   S    
C26   H18   S    
C32   H32   S    
C35   H40   S    
C19   H37   S    
C24   O4    S    
N1    Zn2   S    
C27   H21   S    
C33   H39   S    
O13   Zn1   S    
C24   H13   S    
C37   O14   S    
C34   C36   D    
C26   H19   S    
C2    N2    D    
C4    O13   A    
C31   H31   S    
C20   C21   S    
C8    C10   A    
C20   O3    S    
C27   C28   S    
C14   C15   A    
N1    O6    S    
C28   H24   S    
C10   H34   S    
