data_mof_unit_32377.cif
_audit_creation_date              2012-12-11T15:39:08-0500
_audit_creation_method            fapswitch 2.2
_symmetry_space_group_name_H-M    P1
_symmetry_Int_Tables_number       1
_space_group_crystal_system       triclinic
_cell_length_a                    14.339333
_cell_length_b                    14.795802
_cell_length_c                    33.208566
_cell_angle_alpha                 97.827726
_cell_angle_beta                  90.547778
_cell_angle_gamma                 118.961883
_cell_volume                      6083.82858173

loop_
_atom_site_label
_atom_site_type_symbol
_atom_type_description
_atom_site_fract_x
_atom_site_fract_y
_atom_site_fract_z
_atom_type_partial_charge
C1    C     C_R   0.617132 0.909305 0.437094 0.574385
C2    C     C_R   0.721800 0.378172 0.179118 0.053002
C3    C     C_R   0.761179 0.851778 0.633498 -0.072912
C4    C     C_R   0.674619 0.789457 0.654598 0.029406
C5    C     C_R   0.639206 0.858495 0.583950 -0.004337
C6    C     C_R   0.053130 0.781890 0.063574 0.541778
C7    C     C_R   0.743654 0.485775 0.065689 0.544002
C8    C     C_R   0.742257 0.790097 0.066211 0.562664
C9    C     C_R   0.023936 0.733847 0.948052 0.526392
C10   C     C_R   0.711206 0.435747 0.949541 0.555335
C11   C     C_R   0.741112 0.716650 0.945544 0.561026
C12   C     C_R   0.821391 0.430066 0.163459 -0.138186
C13   C     C_R   0.827732 0.459854 0.125275 -0.126223
C14   C     C_R   0.645028 0.256758 0.229988 0.265400
C15   C     C_R   0.628851 0.242489 0.271032 0.039416
C16   C     C_R   0.692039 0.328046 0.302274 -0.024713
C17   C     C_R   0.767961 0.424483 0.292704 -0.129138
C18   C     C_R   0.778909 0.439228 0.252413 -0.189660
C19   C     C_R   0.715889 0.356874 0.221055 0.004112
C20   C     C_R   0.583114 0.306747 0.360724 -0.125069
C21   C     C_R   0.593623 0.205034 0.456567 0.549189
C22   C     C_R   0.559617 0.278623 0.399054 -0.120720
C23   C     C_R   0.731191 0.285008 0.408213 -0.091789
C24   C     C_R   0.754973 0.313073 0.369621 0.292495
C25   C     C_R   0.678252 0.319296 0.345279 0.071526
C26   C     C_R   0.630978 0.262143 0.422137 -0.013177
C27   C     C_R   0.251897 0.880715 0.392025 0.015957
C28   C     C_R   0.243808 0.963689 0.379079 -0.122407
C29   C     C_R   0.226870 0.964114 0.337622 -0.110336
C30   C     C_R   0.217114 0.881482 0.308615 0.032224
C31   C     C_R   0.218900 0.795827 0.321256 -0.108060
C32   C     C_R   0.296877 0.893186 0.434016 0.551721
C33   C     C_R   0.235962 0.795214 0.362708 -0.116700
C34   C     C_R   0.226075 0.826224 0.158768 0.058933
C35   C     C_R   0.186654 0.800229 0.117421 -0.131822
C36   C     C_R   0.092085 0.898055 0.130295 -0.128078
C37   C     C_R   0.128109 0.922176 0.171524 -0.134319
C38   C     C_R   0.190858 0.882964 0.186284 0.025559
C39   C     C_1   0.203109 0.887487 0.229757 0.060360
C40   C     C_1   0.209614 0.886134 0.265841 0.033246
C41   C     C_R   0.116454 0.832405 0.103345 -0.014791
C42   C     C_R   0.637698 0.877611 0.395251 0.004514
C43   C     C_R   0.615096 0.904182 0.550998 0.571875
C44   C     C_R   0.564427 0.781921 0.370013 0.043362
C45   C     C_R   0.571341 0.772357 0.327592 -0.109980
C46   C     C_R   0.651991 0.853653 0.310646 0.013817
C47   C     C_R   0.729786 0.942629 0.335718 -0.121248
C48   C     C_R   0.723047 0.954626 0.377559 -0.137601
C49   C     C_R   0.763078 0.920394 0.174831 -0.186910
C50   C     C_R   0.781974 0.914342 0.133449 0.025701
C51   C     C_R   0.614970 0.748622 0.119559 -0.120915
C52   C     C_R   0.596168 0.756788 0.160750 0.278566
C53   C     C_R   0.672108 0.841701 0.188428 0.003837
C54   C     C_R   0.589065 0.197992 0.571298 0.541381
C55   C     C_1   0.661320 0.844914 0.231317 0.001834
C56   C     C_1   0.655389 0.847437 0.267411 -0.017372
C57   C     C_R   0.710857 0.822720 0.105774 -0.049169
C58   C     C_R   0.618910 0.241598 0.615206 0.019246
C59   C     C_R   0.550813 0.267106 0.638416 -0.128573
C60   C     C_R   0.562841 0.282137 0.680995 -0.113724
C61   C     C_R   0.643009 0.272075 0.700859 0.036250
C62   C     C_R   0.715519 0.253661 0.678208 -0.107272
C63   C     C_R   0.703895 0.238893 0.635614 -0.116448
C64   C     C_R   0.742884 0.308720 0.847466 -0.152860
C65   C     C_R   0.288113 0.886543 0.548268 0.575832
C66   C     C_R   0.758911 0.344844 0.889878 0.258153
C67   C     C_R   0.587645 0.341599 0.886342 -0.152764
C68   C     C_R   0.572733 0.306219 0.844215 0.258496
C69   C     C_R   0.653600 0.295443 0.824621 0.008152
C70   C     C_1   0.650302 0.282012 0.780849 0.012481
C71   C     C_1   0.647803 0.276635 0.744335 -0.018430
C72   C     C_R   0.683519 0.368064 0.908974 -0.008999
C73   C     C_R   0.080245 0.763970 0.911265 0.020285
C74   C     C_R   0.103893 0.860225 0.899634 -0.136396
C75   C     C_R   0.130449 0.878492 0.860284 -0.117384
C76   C     C_R   0.734658 0.440147 0.102749 0.020959
C77   C     C_R   0.135552 0.801541 0.832264 0.037089
C78   C     C_R   0.123923 0.710461 0.845301 -0.113410
C79   C     C_R   0.097465 0.692383 0.884760 -0.119192
C80   C     C_R   0.212280 0.784605 0.766709 -0.111462
C81   C     C_R   0.217340 0.788249 0.724432 0.290692
C82   C     C_R   0.154233 0.822520 0.705565 0.047723
C83   C     C_R   0.088672 0.852107 0.727963 -0.163804
C84   C     C_R   0.083917 0.846991 0.769359 -0.129793
C85   C     C_R   0.145109 0.812493 0.788921 -0.004098
C86   C     C_R   0.210139 0.934739 0.652296 -0.117609
C87   C     C_R   0.634652 0.385230 0.117892 -0.143085
C88   C     C_R   0.240948 0.949442 0.613197 -0.141713
C89   C     C_R   0.163190 0.760713 0.592584 0.047075
C90   C     C_R   0.135470 0.747553 0.632576 -0.080886
C91   C     C_R   0.162978 0.834528 0.662585 0.034532
C92   C     C_R   0.224434 0.863873 0.583792 0.007311
C93   C     C_R   0.722453 0.701259 0.900569 -0.008598
C94   C     C_R   0.621217 0.648412 0.877376 0.048032
C95   C     C_R   0.617639 0.651131 0.835149 -0.135929
C96   C     C_R   0.711797 0.703707 0.815929 0.006229
C97   C     C_R   0.810457 0.749988 0.838633 -0.124309
C98   C     C_R   0.628291 0.353793 0.155810 -0.092964
C99   C     C_R   0.815369 0.749043 0.880181 -0.151906
C100  C     C_R   0.762452 0.825882 0.765855 -0.105262
C101  C     C_R   0.757339 0.848373 0.726467 0.274451
C102  C     C_R   0.692780 0.766023 0.694828 0.036776
C103  C     C_R   0.639726 0.662388 0.702561 -0.166613
C104  C     C_R   0.648098 0.640729 0.741687 -0.140879
C105  C     C_R   0.708253 0.722653 0.773659 -0.013650
C106  C     C_R   0.570416 0.756009 0.638798 -0.124678
C107  C     C_R   0.552908 0.790659 0.604088 -0.136229
C108  C     C_R   0.744987 0.885483 0.597804 0.045794
Cr1   Cr    Cr6+3 0.424820 0.846020 0.489780 1.098388
Cr2   Cr    Cr6+3 0.657880 0.078580 0.505700 1.057149
Cr3   Cr    Cr6+3 0.417280 0.075360 0.504550 1.025269
Cr4   Cr    Cr6+3 0.903360 0.812540 0.006510 1.046182
Cr5   Cr    Cr6+3 0.914630 0.587050 0.006280 1.036161
Cr6   Cr    Cr6+3 0.673560 0.582680 0.008540 1.061776
H1    H     H_    0.561890 0.369212 0.100978 0.130184
H2    H     H_    0.482255 0.262384 0.409205 0.143622
H3    H     H_    0.894313 0.449480 0.181181 0.110315
H4    H     H_    0.788452 0.275371 0.426077 0.134263
H5    H     H_    0.207224 0.751294 0.096328 0.164110
H6    H     H_    0.210993 0.731239 0.298977 0.132816
H7    H     H_    0.242614 0.730602 0.371528 0.165747
H8    H     H_    0.256429 0.031107 0.400751 0.132677
H9    H     H_    0.101037 0.965869 0.192394 0.141558
H10   H     H_    0.037468 0.923085 0.120258 0.174730
H11   H     H_    0.905914 0.502759 0.114323 0.143118
H12   H     H_    0.225192 0.030582 0.328138 0.118972
H13   H     H_    0.819999 0.986239 0.196827 0.143010
H14   H     H_    0.793627 0.004796 0.322778 0.106735
H15   H     H_    0.781510 0.027928 0.395674 0.138819
H16   H     H_    0.556987 0.680189 0.098847 0.150274
H17   H     H_    0.514022 0.701638 0.307671 0.145750
H18   H     H_    0.801078 0.293445 0.831983 0.109688
H19   H     H_    0.778420 0.246647 0.693381 0.116802
H20   H     H_    0.757455 0.218981 0.618745 0.144565
H21   H     H_    0.484476 0.269530 0.623733 0.128737
H22   H     H_    0.525918 0.352745 0.900891 0.179501
H23   H     H_    0.506994 0.297487 0.698366 0.106567
H24   H     H_    0.094619 0.918547 0.919992 0.128823
H25   H     H_    0.084414 0.619953 0.893588 0.107008
H26   H     H_    0.094663 0.669856 0.640798 0.150127
H27   H     H_    0.261363 0.762460 0.783152 0.101641
H28   H     H_    0.142501 0.950758 0.851220 0.115807
H29   H     H_    0.041225 0.879078 0.713188 0.105341
H30   H     H_    0.031540 0.869013 0.785943 0.099103
H31   H     H_    0.230769 0.002331 0.675354 0.117525
H32   H     H_    0.285879 0.029026 0.607164 0.139479
H33   H     H_    0.128856 0.650394 0.824326 0.097722
H34   H     H_    0.893044 0.789966 0.896922 0.139966
H35   H     H_    0.841502 0.873514 0.644964 0.147375
H36   H     H_    0.805546 0.889797 0.790821 0.113004
H37   H     H_    0.541126 0.615507 0.817465 0.125171
H38   H     H_    0.590342 0.598491 0.678400 0.118722
H39   H     H_    0.606137 0.560578 0.747202 0.108605
H40   H     H_    0.502595 0.707112 0.654483 0.110764
H41   H     H_    0.471274 0.767814 0.594059 0.153892
H42   H     H_    0.884041 0.790826 0.824462 0.111171
H43   H     H_    0.550924 0.314162 0.167680 0.149153
H44   H     H_    0.816157 0.489612 0.316654 0.154717
H45   H     H_    0.834436 0.516168 0.245712 0.125826
H46   H     H_    0.524436 0.312567 0.342059 0.121683
O1    O     O_R   0.318160 0.824460 0.443680 -0.496368
O2    O     O_R   0.645130 0.163230 0.552140 -0.500985
O3    O     O_R   0.498360 0.178430 0.555780 -0.517641
O4    O     O_R   0.328690 0.978040 0.538950 -0.509078
O5    O     O_3   0.499990 0.999990 0.500010 -0.263735
O6    O     O_R   0.828710 0.851830 0.052170 -0.456362
O7    O     O_R   0.005980 0.823990 0.047210 -0.496209
O8    O     O_R   0.031900 0.688850 0.050170 -0.510708
O9    O     O_R   0.830940 0.518420 0.048680 -0.497088
O10   O     O_R   0.668160 0.499860 0.053480 -0.519622
O11   O     O_R   0.689170 0.693840 0.050110 -0.506994
O12   O     O_R   0.525040 0.857250 0.449830 -0.462009
O13   O     O_R   0.803860 0.812940 0.962540 -0.499625
O14   O     O_R   0.982950 0.787950 0.964120 -0.531570
O15   O     O_R   0.007050 0.649970 0.960540 -0.522605
O16   O     O_R   0.807910 0.482370 0.965590 -0.456971
O17   O     O_R   0.643310 0.460980 0.963840 -0.504313
O18   O     O_R   0.666140 0.657800 0.967020 -0.440521
O19   O     O_3   0.830520 0.660760 0.007110 -0.284177
O20   O     O_R   0.684760 0.998800 0.456360 -0.509240
O21   O     O_R   0.647540 0.166310 0.470260 -0.504411
O22   O     O_R   0.500960 0.181750 0.467450 -0.514097
O23   O     O_R   0.331100 0.981120 0.457080 -0.502053
O24   O     O_R   0.315560 0.821140 0.532010 -0.476239
O25   O     O_R   0.522630 0.854180 0.531710 -0.498732
O26   O     O_R   0.682160 0.995480 0.544690 -0.475285
C109  C     C_2   0.300156 0.790197 0.172446 0.572241
O27   O     O_2   0.306419 0.719427 0.151106 -0.502091
O28   O     O_R   0.365010 0.838629 0.209125 -0.676655
H47   H     H_    0.412488 0.807748 0.214686 0.357547
C110  C     C_2   0.875577 0.005427 0.121038 0.570640
O29   O     O_2   0.868714 0.035795 0.089261 -0.491471
O30   O     O_R   0.969628 0.061068 0.147139 -0.746017
H48   H     H_    0.027018 0.123030 0.135831 0.335984
C111  C     C_2   0.481012 0.690537 0.386349 0.579332
O31   O     O_2   0.499264 0.669982 0.418967 -0.496887
O32   O     O_R   0.382756 0.625144 0.363513 -0.726658
H49   H     H_    0.332775 0.564934 0.377604 0.338571
O33   O     O_3   0.503563 0.681665 0.174130 -0.540180
C112  C     C_3   0.514311 0.592850 0.177312 0.011179
H50   H     H_    0.592233 0.615017 0.194020 0.126564
H51   H     H_    0.508358 0.549631 0.146341 0.136888
C113  C     C_3   0.424209 0.521029 0.200988 -0.244431
H52   H     H_    0.430732 0.563409 0.232135 0.174171
H53   H     H_    0.345685 0.499237 0.185254 0.193856
C114  C     C_3   0.429174 0.421641 0.204428 -0.479407
H54   H     H_    0.418333 0.376103 0.173607 0.147738
H55   H     H_    0.364179 0.372395 0.222520 0.161653
H56   H     H_    0.507234 0.441404 0.219945 0.152924
O34   O     O_3   0.841857 0.349676 0.913755 -0.543096
C115  C     C_3   0.942681 0.407214 0.898644 0.022344
H57   H     H_    0.996314 0.468469 0.924108 0.175591
H58   H     H_    0.941504 0.448566 0.873096 0.102965
C116  C     C_3   0.990394 0.335864 0.885970 -0.268343
H59   H     H_    0.997548 0.300794 0.912584 0.187207
H60   H     H_    0.937006 0.271246 0.861393 0.159561
C117  C     C_3   0.100886 0.396770 0.870813 -0.489047
H61   H     H_    0.095068 0.429123 0.843189 0.140465
H62   H     H_    0.134799 0.343872 0.862927 0.154393
H63   H     H_    0.155820 0.461961 0.894926 0.153830
O35   O     O_3   0.853429 0.335645 0.355811 -0.575318
C118  C     C_3   0.849540 0.242968 0.335843 0.005354
H64   H     H_    0.768348 0.182662 0.321541 0.169527
H65   H     H_    0.875485 0.208613 0.358348 0.135914
C119  C     C_3   0.925936 0.270904 0.302086 -0.258211
H66   H     H_    0.900005 0.305847 0.279832 0.172558
H67   H     H_    0.008067 0.329797 0.315532 0.185814
C120  C     C_3   0.928046 0.174977 0.279580 -0.494404
H68   H     H_    0.958260 0.141302 0.300833 0.150114
H69   H     H_    0.982226 0.198028 0.254740 0.162541
H70   H     H_    0.846610 0.114862 0.265923 0.138889
O36   O     O_3   0.476078 0.274296 0.822567 -0.557380
C121  C     C_3   0.469809 0.362675 0.814839 0.005960
H71   H     H_    0.537545 0.411791 0.797510 0.126071
H72   H     H_    0.470711 0.410299 0.843893 0.160686
C122  C     C_3   0.364453 0.325157 0.789453 -0.253099
H73   H     H_    0.362269 0.277405 0.760178 0.169280
H74   H     H_    0.296693 0.275101 0.806380 0.177014
C123  C     C_3   0.350705 0.416538 0.780358 -0.501322
H75   H     H_    0.350904 0.464529 0.809186 0.176190
H76   H     H_    0.273253 0.386244 0.762130 0.144188
H77   H     H_    0.416033 0.466079 0.762501 0.134413
C124  C     C_2   0.545184 0.139404 0.280528 0.560645
O37   O     O_2   0.462486 0.087465 0.258106 -0.461051
O38   O     O_R   0.560640 0.101129 0.314779 -0.737069
H78   H     H_    0.497886 0.030608 0.317736 0.349080
O39   O     O_3   0.287751 0.768742 0.700673 -0.566334
C125  C     C_3   0.323482 0.705580 0.716363 0.004361
H79   H     H_    0.336395 0.659126 0.690053 0.149804
H80   H     H_    0.262051 0.645959 0.732850 0.114032
C126  C     C_3   0.431062 0.774401 0.741987 -0.264274
H81   H     H_    0.496278 0.805999 0.721434 0.178990
H82   H     H_    0.431557 0.842439 0.761037 0.185459
C127  C     C_3   0.453990 0.712510 0.769812 -0.473666
H83   H     H_    0.392059 0.684087 0.791819 0.162182
H84   H     H_    0.533015 0.763834 0.787256 0.178435
H85   H     H_    0.454779 0.644493 0.751412 0.146008
C128  C     C_2   0.127088 0.666335 0.561022 0.585238
O40   O     O_2   0.112644 0.583959 0.570743 -0.525120
O41   O     O_R   0.105827 0.670441 0.520313 -0.674216
H86   H     H_    0.080994 0.601055 0.501821 0.343764
C129  C     C_2   0.517748 0.596085 0.895401 0.555693
O42   O     O_2   0.501315 0.530966 0.917398 -0.516521
O43   O     O_R   0.435891 0.616406 0.884797 -0.717313
H87   H     H_    0.367810 0.574117 0.897988 0.332660
O44   O     O_3   0.587615 0.174971 0.198307 -0.543372
C130  C     C_3   0.632198 0.107432 0.192856 0.038575
H88   H     H_    0.564682 0.026817 0.183185 0.189099
H89   H     H_    0.671424 0.103918 0.221382 0.116320
C131  C     C_3   0.708256 0.134079 0.158659 -0.261505
H90   H     H_    0.696914 0.060381 0.140249 0.150157
H91   H     H_    0.688634 0.176203 0.137723 0.204331
C132  C     C_3   0.825688 0.199710 0.175257 -0.429528
H92   H     H_    0.840029 0.270433 0.196520 0.149310
H93   H     H_    0.876716 0.224133 0.149588 0.179287
H94   H     H_    0.849825 0.153378 0.191897 0.152359
O45   O     O_3   0.801185 0.951220 0.719866 -0.569545
C133  C     C_3   0.913224 0.007626 0.730314 0.002655
H95   H     H_    0.953447 0.026509 0.701782 0.166004
H96   H     H_    0.946007 0.964343 0.745096 0.099840
C134  C     C_3   0.941996 0.109804 0.758522 -0.251989
H97   H     H_    0.914627 0.156002 0.743068 0.177242
H98   H     H_    0.900534 0.091930 0.786865 0.162700
C135  C     C_3   0.062415 0.175006 0.769785 -0.494981
H99   H     H_    0.090767 0.131828 0.786710 0.146798
H100  H     H_    0.080897 0.249541 0.789486 0.144886
H101  H     H_    0.105663 0.193518 0.741880 0.151280
C136  C     C_2   0.839762 0.945161 0.575599 0.582412
O46   O     O_2   0.831559 0.935579 0.538373 -0.487781
O47   O     O_R   0.939972 0.009125 0.597287 -0.720685
H102  H     H_    0.998734 0.044407 0.578857 0.341705

loop_
_geom_bond_atom_site_label_1
_geom_bond_atom_site_label_2
_ccdc_geom_bond_type
C80   C85   A    
C65   C92   S    
Cr4   O14   S    
C21   C26   S    
C129  O43   S    
C101  C102  A    
C133  H96   S    
Cr3   O4    S    
C73   C74   A    
C81   O39   S    
C32   O23   A    
C79   H25   S    
C95   C96   A    
C100  C101  A    
C64   H18   S    
C55   C56   T    
C2    C12   A    
C119  C120  S    
C23   H4    S    
C120  H69   S    
C81   C82   A    
Cr2   O2    S    
C47   H14   S    
C107  H41   S    
C24   O35   S    
C27   C33   A    
C117  H63   S    
C21   O21   A    
C74   H24   S    
C99   H34   S    
C28   C29   A    
C100  C105  A    
O35   C118  S    
C42   C44   A    
C83   C84   A    
C62   H19   S    
C101  O45   S    
C36   C37   A    
C36   H10   S    
C37   C38   A    
O47   H102  S    
C119  H67   S    
C86   C91   A    
C54   C58   S    
C38   C39   S    
Cr2   O5    S    
C114  H55   S    
C126  H82   S    
C20   C25   A    
C43   O25   A    
C15   C16   A    
C58   C63   A    
C132  H94   S    
C18   C19   A    
C122  H73   S    
C134  H97   S    
C34   C35   A    
C97   H42   S    
C23   C26   A    
Cr1   O5    S    
C127  H84   S    
C18   H45   S    
C132  H93   S    
C103  H38   S    
C37   H9    S    
C35   H5    S    
C124  O37   D    
C66   C72   A    
C123  H75   S    
Cr2   O21   S    
C118  H64   S    
C16   C17   A    
Cr6   O18   S    
C6    C41   S    
C4    C102  S    
C14   O44   S    
C112  H50   S    
C130  C131  S    
C31   C33   A    
C9    O15   A    
C70   C71   T    
C51   C57   A    
C54   O3    A    
C66   O34   S    
C106  H40   S    
C121  H71   S    
C93   C99   A    
C117  H62   S    
C87   H1    S    
C61   C62   A    
C8    O11   A    
C60   H23   S    
Cr5   O15   S    
C87   C98   A    
C13   H11   S    
C11   C93   S    
C22   H2    S    
Cr4   O13   S    
C5    C43   S    
C77   C85   S    
C59   C60   A    
O45   C133  S    
C32   O1    A    
C33   H7    S    
C50   C57   A    
C131  C132  S    
C36   C41   A    
C21   O22   A    
C9    C73   S    
Cr5   O8    S    
C35   C41   A    
C84   H30   S    
C120  H68   S    
C97   C99   A    
C51   H16   S    
C125  H80   S    
C17   C18   A    
C6    O8    A    
C53   C55   S    
C10   O16   A    
Cr6   O11   S    
C49   H13   S    
C113  C114  S    
C15   C124  S    
C11   O13   A    
C3    H35   S    
C74   C75   A    
C89   C128  S    
C51   C52   A    
C63   H20   S    
C88   C92   A    
C126  H81   S    
Cr3   O3    S    
C24   C25   A    
C124  O38   S    
C39   C40   T    
C11   O18   A    
C78   C79   A    
O43   H87   S    
C126  C127  S    
Cr5   O9    S    
C118  C119  S    
C100  H36   S    
C117  H61   S    
C77   C78   A    
Cr4   O7    S    
C4    C106  A    
C133  C134  S    
Cr3   O22   S    
C54   O2    A    
C82   C91   S    
C67   C68   A    
C60   C61   A    
C134  C135  S    
C136  O47   S    
C128  O41   S    
C111  O32   S    
C110  O30   S    
C115  H57   S    
C29   C30   A    
C108  C136  S    
C75   H28   S    
C8    C57   S    
C113  H53   S    
C1    C42   S    
C47   C48   A    
C14   C15   A    
C13   C76   A    
Cr2   O20   S    
C23   C24   A    
Cr6   O17   S    
Cr4   O6    S    
C96   C97   A    
C5    C108  A    
C62   C63   A    
Cr3   O23   S    
C119  H66   S    
C73   C79   A    
C30   C40   S    
C9    O14   A    
C123  H76   S    
C52   O33   S    
C42   C48   A    
C52   C53   A    
C84   C85   A    
C89   C92   A    
C118  H65   S    
C50   C110  S    
C75   C77   A    
C76   C87   A    
Cr2   O26   S    
C7    C76   S    
C8    O6    A    
C78   H33   S    
Cr4   O19   S    
Cr3   O5    S    
O28   H47   S    
Cr1   O24   S    
C115  H58   S    
C20   C22   A    
C49   C50   A    
C94   C95   A    
C135  H100  S    
Cr5   O16   S    
C20   H46   S    
C104  H39   S    
C131  H91   S    
C48   H15   S    
C10   C72   S    
C95   H37   S    
C46   C56   S    
C3    C4    A    
C86   H31   S    
C98   H43   S    
C67   C72   A    
C125  H79   S    
C96   C105  S    
C5    C107  A    
C28   H8    S    
C16   C25   S    
Cr6   O10   S    
C46   C47   A    
O32   H49   S    
C44   C111  S    
Cr5   O19   S    
C2    C19   S    
C34   C38   A    
C10   O17   A    
C14   C19   A    
C68   C69   A    
C135  H101  S    
C44   C45   A    
O38   H78   S    
C80   C81   A    
C116  C117  S    
C104  C105  A    
C90   H26   S    
O39   C125  S    
C34   C109  S    
C45   H17   S    
C129  O42   D    
C3    C108  A    
C134  H98   S    
C64   C69   A    
C93   C94   A    
C1    O12   A    
C43   O26   A    
C122  C123  S    
C130  H88   S    
Cr1   O25   S    
C136  O46   D    
C127  H83   S    
C7    O9    A    
C67   H22   S    
C58   C59   A    
C116  H60   S    
C109  O27   D    
C17   H44   S    
O41   H86   S    
C83   H29   S    
C130  H89   S    
C114  H56   S    
C61   C71   S    
C90   C91   A    
C30   C31   A    
Cr6   O19   S    
C112  C113  S    
C49   C53   A    
C116  H59   S    
C65   O4    A    
C59   H21   S    
O36   C121  S    
C1    O20   A    
C94   C129  S    
C122  H74   S    
C128  O40   D    
C123  H77   S    
C86   C88   A    
C29   H12   S    
O34   C115  S    
C102  C103  A    
C110  O29   D    
C121  C122  S    
C69   C70   S    
C31   H6    S    
C114  H54   S    
C125  C126  S    
C135  H99   S    
O44   C130  S    
C27   C32   S    
C22   C26   A    
C111  O31   D    
C45   C46   A    
C127  H85   S    
O33   C112  S    
C115  C116  S    
C12   C13   A    
C2    C98   A    
Cr1   O12   S    
C112  H51   S    
O30   H48   S    
C106  C107  A    
C7    O10   A    
C121  H72   S    
C103  C104  A    
C88   H32   S    
C133  H95   S    
Cr1   O1    S    
C12   H3    S    
C113  H52   S    
C82   C83   A    
C89   C90   A    
C6    O7    A    
C109  O28   S    
C80   H27   S    
C120  H70   S    
C131  H90   S    
C68   O36   S    
C64   C66   A    
C27   C28   A    
C65   O24   A    
C132  H92   S    
