data_mof_unit_20458.cif
_audit_creation_date              2013-03-05T16:00:22-0500
_audit_creation_method            fapswitch 2.2
_symmetry_space_group_name_H-M    P1
_symmetry_Int_Tables_number       1
_space_group_crystal_system       triclinic
_cell_length_a                    14.721737
_cell_length_b                    14.816525
_cell_length_c                    14.355852
_cell_angle_alpha                 76.95915
_cell_angle_beta                  103.032362
_cell_angle_gamma                 115.535004
_cell_volume                      2723.18702638

loop_
_atom_site_label
_atom_site_type_symbol
_atom_site_description
_atom_site_fract_x
_atom_site_fract_y
_atom_site_fract_z
_atom_type_partial_charge
O1    O     O_R   0.977910 0.338120 0.530560 -0.540378
O2    O     O_R   0.022090 0.661880 0.469440 -0.564149
O3    O     O_R   0.839850 0.379180 0.491410 -0.584561
O4    O     O_R   0.160150 0.620820 0.508590 -0.573016
C1    C     C_R   0.879786 0.312199 0.516491 0.819370
C2    C     C_R   0.120315 0.687664 0.486948 0.819862
O5    O     O_R   0.069040 0.479460 0.643530 -0.546445
O6    O     O_R   0.930960 0.520540 0.356470 -0.521827
O7    O     O_R   0.930990 0.520530 0.604380 -0.545542
O8    O     O_R   0.069010 0.479470 0.395620 -0.553122
C3    C     C_R   0.000452 0.499818 0.668945 0.817292
C4    C     C_R   0.999614 0.500308 0.331039 0.804525
Cu1   Cu    Cu3+1 0.081740 0.475690 0.523180 1.012395
Cu2   Cu    Cu3+1 0.918260 0.524310 0.476820 1.004261
C5    C     C_1   0.001219 0.499678 0.771519 -0.154917
C6    C     C_1   0.998924 0.500658 0.228423 -0.133942
C7    C     C_1   0.001074 0.499782 0.856879 0.035119
C8    C     C_1   0.999138 0.500633 0.143053 0.034900
C9    C     C_1   0.000450 0.500079 0.957359 0.041369
C10   C     C_1   0.999808 0.500370 0.042569 0.036952
C11   C     C_R   0.812394 0.204183 0.534999 -0.118198
C12   C     C_R   0.188640 0.794608 0.491467 -0.111605
C13   C     C_R   0.789219 0.028688 0.588530 0.479042
C14   C     C_R   0.216280 0.965291 0.509307 0.519038
C15   C     C_R   0.852877 0.131323 0.569577 -0.314049
C16   C     C_R   0.150498 0.864233 0.497578 -0.354559
C17   C     C_R   0.707348 0.174354 0.523380 -0.133748
C18   C     C_R   0.293455 0.823812 0.501695 -0.122185
C19   C     C_R   0.641819 0.073479 0.551023 0.004938
C20   C     C_R   0.361931 0.919233 0.525805 0.001863
C21   C     C_R   0.681915 0.998407 0.573658 -0.086366
C22   C     C_R   0.323213 0.993706 0.519286 -0.078005
C23   C     C_R   0.536311 0.045868 0.549767 -0.116059
C24   C     C_R   0.468483 0.943295 0.550816 -0.110079
C25   C     C_R   0.509381 0.868116 0.580909 0.202765
C26   C     C_R   0.497184 0.117781 0.551042 0.207948
C27   C     C_R   0.614291 0.895549 0.582831 0.390250
C28   C     C_R   0.392524 0.094794 0.525053 0.400336
H1    H     H_    0.321148 0.770670 0.491153 0.176067
H2    H     H_    0.676923 0.230584 0.490703 0.185045
H3    H     H_    0.069489 0.837770 0.496017 0.142088
H4    H     H_    0.934273 0.153909 0.580397 0.185945
N1    N     N_R   0.795420 0.560790 0.441960 -0.240174
N2    N     N_R   0.204580 0.439210 0.558040 -0.226458
C29   C     C_R   0.703587 0.644212 0.324111 -0.371542
C30   C     C_R   0.294738 0.350156 0.670817 -0.336711
C31   C     C_R   0.793301 0.629645 0.361232 0.668725
C32   C     C_R   0.206637 0.369200 0.637774 0.659723
C33   C     C_R   0.717772 0.517044 0.495383 0.057412
C34   C     C_R   0.283971 0.487893 0.506956 0.079555
C35   C     C_R   0.630349 0.539824 0.467330 -0.005386
C36   C     C_R   0.371232 0.465276 0.533165 0.017552
C37   C     C_R   0.621389 0.597441 0.375674 -0.005766
C38   C     C_R   0.378918 0.403060 0.622145 0.035153
C39   C     C_R   0.549110 0.502163 0.523219 -0.063508
C40   C     C_R   0.453170 0.506427 0.477845 -0.095330
C41   C     C_R   0.442877 0.550360 0.378971 0.302012
C42   C     C_R   0.559605 0.460134 0.622579 0.399995
C43   C     C_R   0.528885 0.603055 0.333128 -0.233072
C44   C     C_R   0.472656 0.401161 0.666110 -0.116638
H5    H     H_    0.521052 0.640489 0.259404 0.190818
H6    H     H_    0.480086 0.362322 0.739267 0.175200
H7    H     H_    0.279739 0.547275 0.449134 0.172243
H8    H     H_    0.723728 0.461671 0.556845 0.214037
H9    H     H_    0.697584 0.690212 0.254622 0.164209
H10   H     H_    0.298768 0.296798 0.735375 0.159607
O9    O     O_3   0.651337 0.821179 0.597584 -0.503219
C45   C     C_3   0.631704 0.782790 0.509751 0.196460
H11   H     H_    0.557108 0.777191 0.465644 0.111831
H12   H     H_    0.628058 0.704894 0.528929 0.199667
C46   C     C_3   0.716773 0.843927 0.448055 -0.827645
H13   H     H_    0.789688 0.840506 0.487230 0.275591
H14   H     H_    0.697800 0.812248 0.379856 0.202893
H15   H     H_    0.725380 0.923719 0.428639 0.237842
O10   O     O_3   0.357832 0.171274 0.508628 -0.510544
C47   C     C_3   0.375941 0.228192 0.415741 0.163066
H16   H     H_    0.450963 0.242016 0.397427 0.129193
H17   H     H_    0.377217 0.303650 0.415669 0.205408
C48   C     C_3   0.292185 0.178786 0.335987 -0.821451
H18   H     H_    0.217226 0.168735 0.349857 0.271546
H19   H     H_    0.307167 0.227992 0.265516 0.227186
H20   H     H_    0.290356 0.104309 0.331143 0.218190
N3    N     N_R   0.345590 0.531504 0.319826 0.096116
O11   O     O_R   0.331483 0.602912 0.254606 -0.371742
O12   O     O_R   0.277157 0.439319 0.319703 -0.383688
N4    N     N_R   0.656890 0.484060 0.682827 0.099900
O13   O     O_R   0.724109 0.577056 0.677380 -0.375087
O14   O     O_R   0.672582 0.417143 0.753046 -0.314010
O15   O     O_3   0.831446 0.957568 0.615978 -0.554209
C49   C     C_3   0.889512 0.968045 0.708700 0.062193
H21   H     H_    0.848033 0.976099 0.760396 0.152466
H22   H     H_    0.963487 0.034301 0.704512 0.141857
C50   C     C_3   0.911590 0.874110 0.747653 -0.674194
H23   H     H_    0.954428 0.864714 0.698558 0.237871
H24   H     H_    0.957829 0.881367 0.820421 0.190182
H25   H     H_    0.839130 0.806179 0.753275 0.287935
O16   O     O_3   0.181976 0.034607 0.524655 -0.526308
C51   C     C_3   0.079672 0.015747 0.484646 0.042387
H26   H     H_    0.027399 0.951252 0.529768 0.156646
H27   H     H_    0.063345 0.001065 0.408560 0.120945
C52   C     C_3   0.059538 0.107907 0.485604 -0.699506
H28   H     H_    0.109091 0.175288 0.441205 0.251018
H29   H     H_    0.978827 0.093316 0.455784 0.196954
H30   H     H_    0.075259 0.123895 0.560888 0.251995
N5    N     N_R   0.449924 0.768986 0.627490 0.133393
O17   O     O_R   0.394088 0.760028 0.690361 -0.328363
O18   O     O_R   0.457383 0.688562 0.614312 -0.382956
N6    N     N_R   0.559843 0.206685 0.595615 0.135182
O19   O     O_R   0.616367 0.200005 0.678659 -0.310927
O20   O     O_R   0.561840 0.294507 0.553318 -0.433567
O21   O     O_3   0.119466 0.315113 0.681267 -0.574310
C53   C     C_3   0.139125 0.314907 0.782653 0.068666
H31   H     H_    0.088287 0.343595 0.801510 0.179251
H32   H     H_    0.218111 0.364796 0.810873 0.132865
C54   C     C_3   0.113128 0.207100 0.834637 -0.839049
H33   H     H_    0.158086 0.172815 0.813914 0.249182
H34   H     H_    0.130330 0.207184 0.914014 0.223676
H35   H     H_    0.030856 0.160712 0.815462 0.242169
O22   O     O_3   0.875064 0.673842 0.310096 -0.550272
C55   C     C_3   0.911193 0.780801 0.294567 0.028195
H36   H     H_    0.992696 0.811989 0.326213 0.170779
H37   H     H_    0.872294 0.812126 0.328967 0.108953
C56   C     C_3   0.904154 0.819187 0.186579 -0.791358
H38   H     H_    0.823667 0.790440 0.151586 0.245328
H39   H     H_    0.936244 0.903131 0.174541 0.207118
H40   H     H_    0.947986 0.793412 0.152835 0.260037

loop_
_geom_bond_atom_site_label_1
_geom_bond_atom_site_label_2
_geom_bond_distance
_ccdc_geom_bond_type
N2    C32   1.364828 A    
C39   C40   1.437577 A    
C52   H28   1.108961 S    
C17   C19   1.408526 A    
O21   C53   1.418089 S    
C47   C48   1.526587 S    
O7    Cu2   1.788760 S    
C53   H32   1.115481 S    
O16   C51   1.412708 S    
C37   C43   1.390731 A    
C56   H38   1.109401 S    
C38   C44   1.391468 A    
C40   C41   1.425655 A    
O5    C3    1.312282 A    
N5    O18   1.300649 A    
C50   H23   1.110980 S    
O1    C1    1.303903 A    
C25   C27   1.412778 A    
C14   C16   1.413602 A    
C30   H10   1.082799 S    
N4    O14   1.301524 A    
C56   H39   1.110511 S    
C26   N6    1.436006 S    
C42   C44   1.393772 A    
C54   H33   1.109712 S    
C2    C12   1.472964 S    
C19   C23   1.422381 A    
C23   C26   1.417796 A    
N6    O19   1.301490 A    
C44   H6    1.084337 S    
C24   C25   1.426051 A    
O4    Cu1   1.940637 S    
C3    C5    1.469572 S    
C4    C6    1.469734 S    
C36   C38   1.409827 A    
C45   H11   1.115966 S    
C33   C35   1.418431 A    
C34   C36   1.414347 A    
C13   O15   1.385286 S    
C22   C28   1.411254 A    
C8    C10   1.445694 S    
C55   C56   1.522479 S    
C31   O22   1.385136 S    
C11   C17   1.393695 A    
C29   C37   1.393565 A    
C52   H29   1.110278 S    
C33   H8    1.076913 S    
C12   C18   1.393086 A    
Cu1   Cu2   2.703714 S    
C34   H7    1.077678 S    
O2    C2    1.305107 A    
C42   N4    1.437679 S    
C53   H31   1.109806 S    
C55   H37   1.116856 S    
C28   O10   1.387282 S    
C29   C31   1.396915 A    
C30   C32   1.401595 A    
C43   H5    1.084550 S    
C20   C24   1.427671 A    
C14   O16   1.399225 S    
C53   C54   1.522709 S    
C47   H16   1.114676 S    
O4    C2    1.304229 A    
C46   H14   1.108110 S    
N4    O13   1.301792 A    
N1    C33   1.359153 A    
C56   H40   1.110772 S    
C18   H1    1.080474 S    
C54   H34   1.110347 S    
O9    C45   1.419336 S    
C35   C37   1.410454 A    
C13   C21   1.422127 A    
O10   C47   1.421066 S    
C14   C22   1.424823 A    
C25   N5    1.443251 S    
C48   H20   1.109687 S    
C49   H22   1.111091 S    
N3    O11   1.301488 A    
C17   H2    1.079512 S    
O6    C4    1.312131 A    
C54   H35   1.110175 S    
C30   C38   1.394389 A    
C41   N3    1.436632 S    
C23   C24   1.412493 A    
O7    C3    1.309087 A    
O3    Cu2   1.940637 S    
O8    C4    1.309268 A    
C45   H12   1.104807 S    
N3    O12   1.301729 A    
C50   H25   1.110862 S    
C51   H27   1.114416 S    
C29   H9    1.082961 S    
O1    Cu1   1.947279 S    
C55   H36   1.109283 S    
C49   C50   1.520601 S    
C48   H19   1.110320 S    
N2    C34   1.358366 A    
C5    C7    1.226238 T    
C11   C15   1.395138 A    
O6    Cu2   1.794813 S    
C47   H17   1.109839 S    
O3    C1    1.306328 A    
O8    Cu1   1.788757 S    
C15   H4    1.079720 S    
C46   H15   1.108831 S    
O22   C55   1.418243 S    
C52   H30   1.110492 S    
C51   C52   1.520488 S    
N5    O17   1.301693 A    
C9    C10   1.226413 T    
C18   C20   1.403439 A    
C46   H13   1.110357 S    
C19   C21   1.416928 A    
C20   C22   1.422252 A    
C49   H21   1.115825 S    
C50   H24   1.110456 S    
C45   C46   1.527603 S    
C27   O9    1.384637 S    
C26   C28   1.405290 A    
C7    C9    1.445587 S    
N6    O20   1.296613 A    
C35   C39   1.428582 A    
C13   C15   1.401590 A    
O2    Cu2   1.947280 S    
C41   C43   1.391971 A    
C48   H18   1.106184 S    
C21   C27   1.411216 A    
O5    Cu1   1.794815 S    
C32   O21   1.388482 S    
C1    C11   1.474563 S    
C6    C8    1.226353 T    
C51   H26   1.111962 S    
C12   C16   1.396300 A    
C39   C42   1.424410 A    
O15   C49   1.411506 S    
N1    C31   1.364710 A    
Cu1   N2    2.031115 S    
C36   C40   1.427227 A    
C16   H3    1.079493 S    
Cu2   N1    2.031115 S    
