data_mof_unit_7202.cif
_audit_creation_date              2012-12-11T17:17:07-0500
_audit_creation_method            fapswitch 2.2
_symmetry_space_group_name_H-M    P1
_symmetry_Int_Tables_number       1
_space_group_crystal_system       triclinic
_cell_length_a                    6.943218
_cell_length_b                    13.377485
_cell_length_c                    14.675183
_cell_angle_alpha                 98.870425
_cell_angle_beta                  89.72134
_cell_angle_gamma                 90.34149
_cell_volume                      1346.73445951

loop_
_atom_site_label
_atom_site_type_symbol
_atom_type_description
_atom_site_fract_x
_atom_site_fract_y
_atom_site_fract_z
_atom_type_partial_charge
O1    O     O_R   0.354890 0.151580 0.148210 -0.538332
O2    O     O_R   0.645110 0.848420 0.851790 -0.538332
O3    O     O_R   0.682370 0.152980 0.336770 -0.544880
O4    O     O_R   0.317630 0.847020 0.663230 -0.544880
O5    O     O_R   0.854980 0.348430 0.351800 -0.532746
O6    O     O_R   0.145020 0.651570 0.648200 -0.532745
C1    C     C_R   0.513215 0.131284 0.366425 0.673513
C2    C     C_R   0.486785 0.868716 0.633575 0.673512
O7    O     O_R   0.684450 0.139580 0.148000 -0.541378
O8    O     O_R   0.315550 0.860420 0.852000 -0.541378
O9    O     O_R   0.857080 0.334940 0.161680 -0.527763
O10   O     O_R   0.142920 0.665060 0.838320 -0.527763
C3    C     C_R   0.515551 0.112687 0.114021 0.726550
C4    C     C_R   0.484449 0.887313 0.885978 0.726551
O11   O     O_R   0.352790 0.165070 0.338330 -0.542354
O12   O     O_R   0.647210 0.834930 0.661670 -0.542354
O13   O     O_3   0.522170 0.314120 0.254710 -0.359458
O14   O     O_3   0.477830 0.685880 0.745290 -0.359458
V1    V     V_3+5 0.796120 0.238110 0.249130 1.438580
V2    V     V_3+5 0.203880 0.761890 0.750870 1.438580
O15   O     O_R   0.186930 0.347040 0.163240 -0.546864
O16   O     O_R   0.813070 0.652960 0.836760 -0.546863
C5    C     C_R   0.018771 0.368620 0.133662 0.735503
C6    C     C_R   0.981229 0.631380 0.866338 0.735502
O17   O     O_R   0.184850 0.360440 0.352010 -0.537866
O18   O     O_R   0.815150 0.639560 0.647990 -0.537866
C7    C     C_R   0.015806 0.387334 0.385978 0.745492
C8    C     C_R   0.984194 0.612666 0.614022 0.745492
V3    V     V_3+5 0.296410 0.261900 0.250880 1.437163
V4    V     V_3+5 0.703590 0.738100 0.749120 1.437163
O19   O     O_3   0.020490 0.185890 0.245290 -0.376901
O20   O     O_3   0.979510 0.814110 0.754710 -0.376901
C9    C     C_1   0.005117 0.466910 0.466340 -0.177107
C10   C     C_1   0.994883 0.533090 0.533660 -0.177107
C11   C     C_3   0.075453 0.591339 0.035151 -0.252384
C12   C     C_3   0.924547 0.408661 0.964849 -0.252385
C13   C     C_3   0.902186 0.538360 0.073634 0.407495
C14   C     C_3   0.097813 0.461640 0.926366 0.407494
H1    H     H_    0.133803 0.666769 0.064697 0.122920
H2    H     H_    0.866197 0.333231 0.935303 0.122920
C15   C     C_3   0.010725 0.437994 0.062583 -0.074394
C16   C     C_3   0.989275 0.562006 0.937417 -0.074395
C17   C     C_3   0.186652 0.489217 0.023035 -0.222241
C18   C     C_3   0.813348 0.510782 0.976965 -0.222242
H3    H     H_    0.339980 0.479011 0.040438 0.138970
H4    H     H_    0.660020 0.520989 0.959562 0.138970
C19   C     C_3   0.319239 0.025970 0.481684 -0.116628
C20   C     C_3   0.680761 0.974030 0.518316 -0.116628
C21   C     C_3   0.398266 0.916575 0.467726 -0.139369
C22   C     C_3   0.601734 0.083425 0.532274 -0.139368
H5    H     H_    0.314368 0.847267 0.441553 0.105770
H6    H     H_    0.685632 0.152733 0.558447 0.105769
H7    H     H_    0.170017 0.047500 0.466337 0.109932
H8    H     H_    0.829983 0.952500 0.533663 0.109932
C23   C     C_3   0.496036 0.938750 0.562716 -0.007397
C24   C     C_3   0.503964 0.061249 0.437284 -0.007397
C25   C     C_3   0.416966 0.047326 0.577474 -0.139481
C26   C     C_3   0.583034 0.952674 0.422526 -0.139481
H9    H     H_    0.348746 0.085970 0.641858 0.105105
H10   H     H_    0.651254 0.914030 0.358142 0.105105
C27   C     C_1   0.504960 0.033100 0.033659 -0.195824
C28   C     C_1   0.495040 0.966899 0.966341 -0.195824
O21   O     O_3   0.798835 0.577747 0.152920 -0.647659
H11   H     H_    0.742167 0.641651 0.139358 0.274034
O22   O     O_3   0.201165 0.422253 0.847079 -0.647659
H12   H     H_    0.257832 0.358348 0.860642 0.274034

loop_
_geom_bond_atom_site_label_1
_geom_bond_atom_site_label_2
_ccdc_geom_bond_type
C20   C23   S    
C6    C16   S    
O4    C2    A    
V1    O19   S    
C19   C21   S    
C7    C9    S    
C20   H8    S    
O9    V1    S    
C11   C13   S    
C14   C16   S    
O3    C1    A    
C25   H9    S    
C26   H10   S    
C4    C28   S    
O13   V3    S    
O9    C5    A    
C11   C16   S    
O7    C3    A    
O5    C7    A    
O7    V1    S    
O6    C8    A    
O8    V2    S    
C21   H5    S    
C22   H6    S    
O3    V1    S    
O14   V4    S    
C11   C17   S    
C19   H7    S    
C20   C22   S    
C8    C10   S    
C2    O12   A    
C15   C17   S    
C12   C15   S    
C16   C18   S    
C1    C24   S    
C2    C23   S    
C13   O21   S    
C18   H4    S    
O11   V3    S    
O17   V3    S    
C12   H2    S    
O8    C4    A    
C21   C23   S    
O15   V3    S    
C22   C24   S    
C21   C26   S    
C11   H1    S    
C19   C25   S    
C14   O22   S    
O10   V2    S    
O1    V3    S    
C9    C10   T    
C17   H3    S    
O18   V4    S    
C23   C25   S    
O16   C6    A    
C12   C18   S    
O1    C3    A    
C12   C14   S    
V2    O20   S    
O16   V4    S    
C22   C25   S    
C20   C26   S    
O5    V1    S    
O17   C7    A    
O6    V2    S    
O10   C6    A    
O18   C8    A    
C5    C15   S    
O2    V4    S    
C13   C18   S    
O15   C5    A    
C14   C17   S    
V3    O19   S    
V4    O20   S    
C1    O11   A    
O13   V1    S    
C24   C26   S    
O14   V2    S    
C13   C15   S    
C27   C28   T    
O2    C4    A    
O21   H11   S    
O4    V2    S    
C3    C27   S    
O22   H12   S    
O12   V4    S    
C19   C24   S    
