data_mof_unit_44552.cif
_audit_creation_date              2012-12-10T17:35:39-0500
_audit_creation_method            fapswitch 2.2
_symmetry_space_group_name_H-M    P1
_symmetry_Int_Tables_number       1
_space_group_crystal_system       triclinic
_cell_length_a                    10.754307
_cell_length_b                    12.422121
_cell_length_c                    13.221162
_cell_angle_alpha                 117.50379
_cell_angle_beta                  74.96937
_cell_angle_gamma                 100.536889
_cell_volume                      1508.90416031

loop_
_atom_site_label
_atom_site_type_symbol
_atom_type_description
_atom_site_fract_x
_atom_site_fract_y
_atom_site_fract_z
_atom_type_partial_charge
C1    C     C_R   0.506499 0.856017 0.287168 0.806479
C2    C     C_3   0.121904 0.010415 0.512949 0.022899
C3    C     C_3   0.089324 0.136977 0.533758 -0.420954
C4    C     C_3   0.035921 0.984991 0.614455 -0.400905
C5    C     C_R   0.323423 0.285950 0.032105 -0.211095
C6    C     C_R   0.451384 0.231610 0.837831 -0.037471
C7    C     C_R   0.576814 0.815395 0.079978 -0.201239
C8    C     C_R   0.596479 0.735770 0.962421 -0.159569
C9    C     C_R   0.550880 0.614266 0.926643 -0.182358
C10   C     C_R   0.478665 0.571148 0.008477 0.073727
C11   C     C_R   0.442236 0.656938 0.125924 0.063791
C12   C     C_R   0.739509 0.001423 0.503229 0.883912
C13   C     C_R   0.442521 0.445700 0.978032 0.063457
C14   C     C_R   0.357512 0.409852 0.060764 0.166178
C15   C     C_R   0.307120 0.498114 0.170764 -0.258533
C16   C     C_R   0.348241 0.620166 0.202874 -0.215447
C17   C     C_R   0.491623 0.354415 0.868662 -0.252056
C18   C     C_R   0.370080 0.197236 0.921051 -0.203160
C19   C     C_R   0.503503 0.776390 0.163301 -0.129549
C20   C     C_R   0.741646 0.361505 0.368090 -0.290299
C21   C     C_R   0.317887 0.761852 0.645447 0.717147
C22   C     C_R   0.275272 0.662338 0.672950 -0.347713
C23   C     C_R   0.480315 0.145590 0.714169 0.804233
C24   C     C_R   0.345765 0.560787 0.620888 -0.242442
C25   C     C_R   0.460876 0.554162 0.539497 -0.055821
C26   C     C_R   0.500911 0.653590 0.508621 0.073250
C27   C     C_R   0.537360 0.451144 0.486652 -0.014554
C28   C     C_R   0.662713 0.458654 0.421943 0.095426
C29   C     C_R   0.705934 0.559447 0.402904 -0.365003
C30   C     C_R   0.619731 0.642510 0.425012 0.484991
C31   C     C_R   0.496259 0.340152 0.494393 0.033776
C32   C     C_R   0.694292 0.254309 0.375690 0.072172
C33   C     C_R   0.259889 0.006354 0.508604 0.787467
C34   C     C_3   0.957895 0.930032 0.383838 0.284014
C35   C     C_3   0.090349 0.912231 0.395518 -0.450623
C36   C     C_3   0.941703 0.137201 0.548190 -0.485829
C37   C     C_3   0.890077 0.960601 0.604518 0.595922
C38   C     C_3   0.877637 0.003274 0.509393 -0.027768
Cu1   Cu    Cu3+1 0.529690 0.098270 0.475420 0.929555
Cu2   Cu    Cu3+1 0.470310 0.901730 0.524580 1.014178
H1    H     H_    0.973663 0.989210 0.337672 0.101688
H2    H     H_    0.048716 0.066117 0.697127 0.168846
H3    H     H_    0.899063 0.196311 0.640111 0.226796
H4    H     H_    0.121694 0.210468 0.612849 0.175159
H5    H     H_    0.339355 0.102650 0.899214 0.167104
H6    H     H_    0.237986 0.472502 0.233285 0.144727
H7    H     H_    0.258862 0.257872 0.094977 0.127464
H8    H     H_    0.561498 0.376605 0.804977 0.151891
H9    H     H_    0.622452 0.906863 0.105761 0.150795
H10   H     H_    0.571410 0.557022 0.834234 0.131928
H11   H     H_    0.652117 0.767179 0.898862 0.133390
H12   H     H_    0.305461 0.685161 0.288608 0.168887
H13   H     H_    0.754303 0.178390 0.335137 0.115613
H14   H     H_    0.802635 0.564022 0.352978 0.176619
H15   H     H_    0.837839 0.367392 0.317982 0.129722
H16   H     H_    0.403499 0.325967 0.544115 0.112076
H17   H     H_    0.309717 0.489820 0.648724 0.152082
H18   H     H_    0.187496 0.661585 0.735071 0.150349
H19   H     H_    0.090919 0.820027 0.389819 0.193130
H20   H     H_    0.165134 0.918595 0.321985 0.134861
H21   H     H_    0.925515 0.179595 0.495101 0.179762
H22   H     H_    0.140530 0.156393 0.458528 0.189001
H23   H     H_    0.071594 0.910701 0.619872 0.217760
N1    N     N_R   0.574690 0.246280 0.438200 -0.185927
N2    N     N_R   0.426100 0.754320 0.561190 -0.240168
O1    O     O_R   0.537340 0.972510 0.318130 -0.586066
O2    O     O_R   0.487200 0.806530 0.359650 -0.527588
O3    O     O_R   0.707380 0.082980 0.479220 -0.614865
O4    O     O_R   0.657240 0.917000 0.520740 -0.535350
O5    O     O_R   0.512800 0.193470 0.640350 -0.595511
O6    O     O_R   0.462660 0.027490 0.681870 -0.541396
O7    O     O_R   0.342760 0.083000 0.479260 -0.599714
O8    O     O_R   0.292620 0.917020 0.520780 -0.557935
O9    O     O_3   0.895826 0.816655 0.318465 -0.561204
C39   C     C_3   0.941542 0.781189 0.197673 -0.335274
H24   H     H_    0.048068 0.797012 0.173981 0.150748
H25   H     H_    0.892450 0.829606 0.168029 0.156788
H26   H     H_    0.919333 0.682200 0.149205 0.178466
O10   O     O_3   0.251387 0.866794 0.696387 -0.555558
C40   C     C_3   0.172079 0.888855 0.806393 -0.465822
H27   H     H_    0.225022 0.882525 0.865270 0.170592
H28   H     H_    0.082767 0.827044 0.797312 0.168089
H29   H     H_    0.140996 0.982717 0.847359 0.187795
O11   O     O_3   0.653668 0.705224 0.358229 -0.501728
C41   C     C_3   0.663527 0.621483 0.238682 -0.205642
H30   H     H_    0.573723 0.560947 0.223006 0.152641
H31   H     H_    0.746762 0.564758 0.204618 0.128326
H32   H     H_    0.681262 0.672759 0.186171 0.173207
O12   O     O_3   0.812003 0.038624 0.711320 -0.600184
C42   C     C_3   0.804140 0.014530 0.807508 -0.329288
H33   H     H_    0.764188 0.093641 0.887675 0.183931
H34   H     H_    0.899347 0.003586 0.818114 0.148799
H35   H     H_    0.735582 0.934679 0.802899 0.177629
C43   C     C_3   0.840414 0.822332 0.570146 -0.352183
C44   C     C_3   0.897460 0.748333 0.611625 -0.960388
H36   H     H_    0.993782 0.719078 0.556993 0.261960
H37   H     H_    0.904690 0.798468 0.704187 0.252523
H38   H     H_    0.834149 0.664106 0.601482 0.260901
H39   H     H_    0.734856 0.816831 0.603535 0.228732
H40   H     H_    0.856757 0.770685 0.475249 0.250825

loop_
_geom_bond_atom_site_label_1
_geom_bond_atom_site_label_2
_ccdc_geom_bond_type
C2    C35   S    
C12   O4    A    
Cu2   O6    S    
Cu1   O3    S    
C44   H36   S    
C17   H8    S    
C44   H38   S    
C7    C8    A    
C41   H30   S    
Cu1   N1    S    
C5    H7    S    
C4    H23   S    
C11   C19   A    
C29   C30   A    
C3    C36   S    
C28   C29   A    
C40   H29   S    
C3    H22   S    
C29   H14   S    
C15   C16   A    
Cu2   O8    S    
C35   H19   S    
C34   C35   S    
C33   O7    A    
C8    C9    A    
Cu2   O2    S    
Cu1   O7    S    
C31   H16   S    
C9    C10   A    
C21   C22   A    
C30   O11   S    
C23   O5    A    
C34   H1    S    
C20   H15   S    
C41   H31   S    
C6    C18   A    
C3    H4    S    
C1    C19   S    
Cu2   O4    S    
C27   C31   A    
C23   O6    A    
O11   C41   S    
C7    H9    S    
C40   H28   S    
O9    C39   S    
Cu1   Cu2   S    
C24   H17   S    
C5    C18   A    
C20   C28   A    
C25   C26   A    
C35   H20   S    
C2    C4    S    
C39   H24   S    
C37   C38   S    
C12   O3    A    
C11   C16   A    
C42   H34   S    
C43   H40   S    
C21   O10   S    
C1    O1    A    
C24   C25   A    
C39   H25   S    
C8    H11   S    
C32   N1    A    
C5    C14   A    
C34   O9    S    
C2    C33   S    
C33   O8    A    
C26   C30   A    
C7    C19   A    
Cu2   N2    S    
Cu1   O1    S    
C22   C24   A    
C36   H21   S    
C18   H5    S    
C32   H13   S    
C42   H35   S    
C20   C32   A    
C41   H32   S    
C6    C17   A    
C21   N2    A    
C34   C38   S    
C26   N2    A    
C31   N1    A    
C9    H10   S    
C16   H12   S    
C40   H27   S    
C10   C13   A    
C22   H18   S    
C44   H37   S    
C37   O12   S    
C25   C27   A    
C13   C17   A    
C36   C38   S    
C2    C3    S    
C42   H33   S    
C4    H2    S    
C43   H39   S    
C6    C23   S    
C1    O2    A    
Cu1   O5    S    
C37   C43   S    
C12   C38   S    
C43   C44   S    
C39   H26   S    
C10   C11   A    
O10   C40   S    
C4    C37   S    
C27   C28   A    
C14   C15   A    
C36   H3    S    
C15   H6    S    
O12   C42   S    
C13   C14   A    
