data_mof_unit_16763.cif
_audit_creation_date              2012-12-11T17:39:38-0500
_audit_creation_method            fapswitch 2.2
_symmetry_space_group_name_H-M    P1
_symmetry_Int_Tables_number       1
_space_group_crystal_system       triclinic
_cell_length_a                    14.840843
_cell_length_b                    15.14394
_cell_length_c                    15.110313
_cell_angle_alpha                 110.151158
_cell_angle_beta                  109.140013
_cell_angle_gamma                 109.385776
_cell_volume                      2605.56665816

loop_
_atom_site_label
_atom_site_type_symbol
_atom_type_description
_atom_site_fract_x
_atom_site_fract_y
_atom_site_fract_z
_atom_type_partial_charge
C1    C     C_R   0.908136 0.921140 0.715858 -0.163661
C2    C     C_R   0.998497 0.306263 0.449910 0.082990
C3    C     C_R   0.270305 0.323531 0.820780 0.139298
C4    C     C_R   0.734954 0.057697 0.560917 0.026167
C5    C     C_R   0.705177 0.693761 0.281306 0.733389
C6    C     C_R   0.302045 0.091045 0.499389 -0.150927
C7    C     C_R   0.094485 0.782883 0.520808 -0.008934
C8    C     C_R   0.911165 0.938975 0.187381 -0.110612
C9    C     C_R   0.094554 0.023242 0.282409 -0.141968
C10   C     C_R   0.911655 0.686043 0.438113 -0.173421
C11   C     C_R   0.707046 0.785901 0.193560 -0.301310
C12   C     C_R   0.090437 0.301452 0.503380 -0.161421
C13   C     C_R   0.305077 0.004452 0.591694 -0.175485
C14   C     C_R   0.650356 0.687229 0.183874 -0.194382
C15   C     C_R   0.368341 0.063892 0.559751 0.087320
C16   C     C_R   0.007037 0.679552 0.454433 0.043370
C17   C     C_R   0.004751 0.952210 0.179146 0.041111
C18   C     C_R   0.728337 0.955769 0.845149 -0.104932
C19   C     C_R   0.668976 0.963970 0.758057 -0.279691
C20   C     C_R   0.706919 0.063139 0.760817 -0.014807
C21   C     C_R   0.804958 0.155501 0.852575 0.592178
C22   C     C_R   0.861056 0.147560 0.942010 -0.292432
C23   C     C_R   0.245101 0.222697 0.811604 -0.143580
C24   C     C_R   0.824710 0.047334 0.936778 -0.131684
C25   C     C_R   0.539253 0.063626 0.657255 -0.236453
C26   C     C_R   0.486294 0.099545 0.593698 0.039659
C27   C     C_R   0.548452 0.163435 0.561858 0.099422
C28   C     C_R   0.648899 0.170322 0.576927 -0.234184
C29   C     C_R   0.683153 0.108572 0.612802 0.079465
C30   C     C_R   0.640314 0.072933 0.671645 0.090414
C31   C     C_R   0.518128 0.198929 0.409627 -0.234715
C32   C     C_R   0.526069 0.273752 0.375214 -0.365840
C33   C     C_R   0.523582 0.366375 0.432801 0.501519
C34   C     C_R   0.757156 0.069790 0.481443 -0.112919
C35   C     C_R   0.498809 0.376694 0.516472 0.494195
C36   C     C_R   0.505071 0.309552 0.560181 -0.416797
C37   C     C_R   0.515569 0.220200 0.506848 0.078360
C38   C     C_R   0.742740 0.090376 0.126868 -0.113119
C39   C     C_R   0.831626 0.197089 0.192925 -0.127104
C40   C     C_R   0.819920 0.280711 0.256915 0.123469
C41   C     C_R   0.716294 0.257424 0.247640 -0.165278
C42   C     C_R   0.627788 0.150559 0.181239 -0.135681
C43   C     C_R   0.641542 0.066947 0.122261 -0.122278
C44   C     C_R   0.925471 0.482314 0.350387 -0.274512
C45   C     C_R   0.246890 0.312166 0.720021 -0.137289
C46   C     C_R   0.017035 0.583771 0.436242 0.046998
C47   C     C_R   0.107766 0.589099 0.513860 0.200418
C48   C     C_R   0.096245 0.495182 0.512273 -0.232421
C49   C     C_R   0.002808 0.395385 0.432619 0.035728
C50   C     C_R   0.918415 0.386690 0.346133 0.029767
C51   C     C_R   0.311439 0.691355 0.596746 0.519952
C52   C     C_R   0.414892 0.757231 0.690728 -0.333338
C53   C     C_R   0.428207 0.829188 0.787540 -0.393697
C54   C     C_R   0.337421 0.834475 0.792116 0.502148
C55   C     C_R   0.230202 0.756835 0.702544 0.335775
C56   C     C_R   0.754405 0.976531 0.568372 -0.143937
C57   C     C_R   0.216886 0.686150 0.602859 -0.295454
C58   C     C_2   0.371767 0.520729 0.929391 -0.093491
C59   C     C_2   0.321905 0.424738 0.921510 -0.115442
C60   C     C_2   0.470363 0.612101 0.031002 -0.377593
C61   C     C_2   0.545152 0.596412 0.092929 0.789930
C62   C     C_R   0.374394 0.283670 0.142275 -0.036493
C63   C     C_R   0.295054 0.175593 0.096890 -0.265314
C64   C     C_R   0.182198 0.140925 0.040476 0.136604
C65   C     C_R   0.150697 0.215683 0.028913 -0.136698
C66   C     C_R   0.230052 0.324695 0.078625 -0.223860
C67   C     C_R   0.907378 0.212365 0.416353 -0.147283
C68   C     C_R   0.341857 0.358906 0.136537 -0.021802
C69   C     C_R   0.101898 0.018110 0.095826 -0.224417
C70   C     C_R   0.013405 0.932411 0.082110 0.047257
C71   C     C_R   0.926483 0.847116 0.977081 0.029161
C72   C     C_R   0.924682 0.859318 0.889065 -0.250306
C73   C     C_R   0.007012 0.953289 0.905851 0.072904
C74   C     C_R   0.097985 0.032697 0.010516 0.020711
C75   C     C_R   0.867136 0.699132 0.021370 -0.147989
C76   C     C_R   0.785978 0.605078 0.004620 -0.085367
C77   C     C_R   0.676666 0.555601 0.923690 -0.077986
C78   C     C_R   0.091186 0.010755 0.804089 -0.104729
C79   C     C_R   0.648374 0.599799 0.859007 -0.108499
C80   C     C_R   0.729131 0.694021 0.875650 -0.182041
C81   C     C_R   0.839592 0.745916 0.958094 0.120542
C82   C     C_R   0.001109 0.965423 0.813907 0.050688
H1    H     H_    0.824498 0.867887 0.691401 0.117454
H2    H     H_    0.323666 0.144789 0.469766 0.112043
H3    H     H_    0.179504 0.809283 0.544387 0.067771
H4    H     H_    0.827182 0.893937 0.121544 0.102569
H5    H     H_    0.179881 0.051742 0.305410 0.103420
H6    H     H_    0.828084 0.619382 0.390085 0.147812
H7    H     H_    0.679340 0.812701 0.137602 0.140895
H8    H     H_    0.333748 0.981191 0.650518 0.093487
H9    H     H_    0.870442 0.041113 0.004544 0.131963
H10   H     H_    0.698674 0.878920 0.842279 0.111393
H11   H     H_    0.594647 0.893253 0.686908 0.139280
H12   H     H_    0.174240 0.354663 0.528902 0.091931
H13   H     H_    0.932355 0.219242 0.015784 0.127563
H14   H     H_    0.502502 0.026294 0.694650 0.127325
H15   H     H_    0.694865 0.215567 0.549697 0.125297
H16   H     H_    0.525465 0.130064 0.366808 0.151430
H17   H     H_    0.539126 0.262428 0.307009 0.151184
H18   H     H_    0.500078 0.325708 0.633568 0.169973
H19   H     H_    0.573318 0.984123 0.072056 0.139911
H20   H     H_    0.255407 0.205315 0.876562 0.126089
H21   H     H_    0.752894 0.024998 0.081912 0.105919
H22   H     H_    0.911141 0.213299 0.199769 0.118900
H23   H     H_    0.706082 0.320768 0.296657 0.115171
H24   H     H_    0.548574 0.131869 0.175862 0.120721
H25   H     H_    0.857704 0.477821 0.289007 0.147349
H26   H     H_    0.160990 0.502307 0.579212 0.117869
H27   H     H_    0.484875 0.751905 0.688105 0.175847
H28   H     H_    0.509703 0.882832 0.858730 0.189225
H29   H     H_    0.747051 0.123156 0.452187 0.093586
H30   H     H_    0.352892 0.529551 0.858356 0.123323
H31   H     H_    0.337753 0.420343 0.994229 0.176518
H32   H     H_    0.487669 0.693516 0.048245 0.121797
H33   H     H_    0.403413 0.443449 0.175465 0.170472
H34   H     H_    0.461115 0.309935 0.183942 0.145916
H35   H     H_    0.321250 0.119509 0.107766 0.130714
H36   H     H_    0.064780 0.190186 0.984833 0.109254
H37   H     H_    0.204988 0.382777 0.072544 0.121166
H38   H     H_    0.256738 0.374224 0.698514 0.089950
H39   H     H_    0.168761 0.084502 0.175771 0.136313
H40   H     H_    0.859418 0.795630 0.807392 0.124939
H41   H     H_    0.951590 0.735022 0.083481 0.114813
H42   H     H_    0.807979 0.570341 0.054276 0.124103
H43   H     H_    0.613955 0.482781 0.910799 0.148572
H44   H     H_    0.563693 0.561063 0.795894 0.142983
H45   H     H_    0.704609 0.726161 0.824269 0.112198
H46   H     H_    0.740961 0.942576 0.617444 0.116358
H47   H     H_    0.821958 0.184088 0.365491 0.124438
H48   H     H_    0.175025 0.036664 0.857577 0.087768
N1    N     N_R   0.941940 0.944580 0.650780 -0.037909
N2    N     N_R   0.206190 0.054080 0.497260 -0.039319
N3    N     N_R   0.056380 0.847410 0.553580 -0.036551
N4    N     N_R   0.944890 0.999100 0.292900 -0.035527
N5    N     N_R   0.058060 0.055420 0.349220 -0.043088
N6    N     N_R   0.943200 0.791100 0.497260 -0.040666
N7    N     N_R   0.795540 0.849750 0.292910 -0.057356
N8    N     N_R   0.205730 0.996760 0.553580 -0.044827
N9    N     N_R   0.056800 0.208900 0.502740 -0.038703
N10   N     N_R   0.204460 0.150250 0.707090 -0.049126
N11   N     N_R   0.794270 0.003240 0.446420 -0.039818
N12   N     N_R   0.204920 0.207570 0.650770 -0.042519
N13   N     N_R   0.793810 0.945920 0.502740 -0.041856
N14   N     N_R   0.943620 0.152590 0.446420 -0.038532
N15   N     N_R   0.055110 0.000900 0.707100 -0.043751
N16   N     N_R   0.795080 0.792430 0.349230 -0.108281
Ni1   Ni    Ni4+2 0.869690 0.869690 0.500000 0.231722
Ni2   Ni    Ni4+2 0.130310 0.130310 0.500000 0.196168
Ni3   Ni    Ni4+2 0.129250 0.998840 0.629170 0.209882
Ni4   Ni    Ni4+2 0.870750 0.001160 0.370830 0.209853
O1    O     O_3   0.839358 0.254781 0.857463 -0.665689
C83   C     C_3   0.940775 0.288976 0.858417 0.156996
H49   H     H_    0.941385 0.220570 0.799030 0.097567
H50   H     H_    0.009167 0.323916 0.941504 0.102016
C84   C     C_3   0.959577 0.376654 0.827195 -0.226198
H51   H     H_    0.891344 0.342609 0.744377 0.200775
H52   H     H_    0.959753 0.445933 0.885452 0.210483
C85   C     C_3   0.068835 0.417910 0.828107 -1.044486
H53   H     H_    0.138195 0.453713 0.910740 0.273450
H54   H     H_    0.080634 0.481666 0.805584 0.268632
H55   H     H_    0.069333 0.350267 0.768516 0.279140
O2    O     O_3   0.545192 0.446976 0.407062 -0.645744
C86   C     C_3   0.659979 0.522409 0.471221 0.278709
H56   H     H_    0.686070 0.550515 0.421204 0.184680
H57   H     H_    0.711966 0.486908 0.496261 0.001959
C87   C     C_3   0.687401 0.620847 0.572451 -0.343127
H58   H     H_    0.675215 0.596394 0.630768 0.209461
H59   H     H_    0.775891 0.681724 0.612837 0.141218
C88   C     C_3   0.618045 0.672936 0.545183 -0.734693
H60   H     H_    0.634917 0.704383 0.492591 0.260693
H61   H     H_    0.638706 0.741353 0.621421 0.195515
H62   H     H_    0.528905 0.613547 0.503435 0.290440
O3    O     O_3   0.470915 0.454074 0.555880 -0.664614
C89   C     C_3   0.354366 0.404485 0.501957 0.150256
H63   H     H_    0.334845 0.465586 0.543586 0.165088
H64   H     H_    0.316625 0.333051 0.510561 0.076479
C90   C     C_3   0.302953 0.371011 0.380511 -0.238998
H65   H     H_    0.346423 0.440602 0.372540 0.232103
H66   H     H_    0.311358 0.302205 0.334209 0.182156
C91   C     C_3   0.180365 0.333810 0.327816 -1.035715
H67   H     H_    0.134399 0.260595 0.329906 0.271937
H68   H     H_    0.147844 0.312351 0.241447 0.271625
H69   H     H_    0.166816 0.399875 0.370125 0.301153
O4    O     O_3   0.302034 0.624082 0.500939 -0.664370
C92   C     C_3   0.302063 0.676143 0.439273 0.189899
H70   H     H_    0.378354 0.757415 0.486341 0.094689
H71   H     H_    0.228376 0.686441 0.415935 0.098783
C93   C     C_3   0.298322 0.606498 0.335548 -0.263775
H72   H     H_    0.372799 0.597943 0.357502 0.203456
H73   H     H_    0.224096 0.524300 0.288589 0.211801
C94   C     C_3   0.294699 0.657412 0.264045 -1.017811
H74   H     H_    0.219646 0.664900 0.238793 0.268030
H75   H     H_    0.292738 0.605110 0.189954 0.268300
H76   H     H_    0.369028 0.739174 0.308791 0.272848
O5    O     O_3   0.354009 0.910737 0.887713 -0.662049
C95   C     C_3   0.352820 0.000251 0.878222 0.204911
H77   H     H_    0.337680 0.044545 0.942040 0.126216
H78   H     H_    0.284894 0.974601 0.798270 0.104993
C96   C     C_3   0.464248 0.079468 0.898948 -0.404785
H79   H     H_    0.530404 0.105767 0.978823 0.243407
H80   H     H_    0.482545 0.038569 0.836720 0.201602
C97   C     C_3   0.466277 0.180388 0.897855 -0.909182
H81   H     H_    0.403658 0.157491 0.816971 0.262867
H82   H     H_    0.548678 0.236052 0.914808 0.281586
H83   H     H_    0.450003 0.223984 0.961272 0.277553
O6    O     O_3   0.139719 0.758084 0.708560 -0.652623
C98   C     C_3   0.100172 0.689529 0.746815 0.244116
H84   H     H_    0.152656 0.732306 0.836786 0.125986
H85   H     H_    0.099153 0.611311 0.709330 0.074798
C99   C     C_3   0.982149 0.663733 0.717425 -0.276554
H86   H     H_    0.981568 0.741020 0.751487 0.213376
H87   H     H_    0.929609 0.619452 0.627418 0.194756
C100  C     C_3   0.933773 0.594852 0.761073 -1.038870
H88   H     H_    0.927351 0.514371 0.722385 0.273220
H89   H     H_    0.849882 0.581918 0.741644 0.273944
H90   H     H_    0.986024 0.636500 0.850803 0.278166
F1    F     F_    0.529759 0.495381 0.068829 -0.714334
F2    F     F_    0.659263 0.626276 0.312732 -0.750319

loop_
_geom_bond_atom_site_label_1
_geom_bond_atom_site_label_2
_ccdc_geom_bond_type
C28   H15   S    
C53   H28   S    
C66   C68   A    
C34   N11   A    
C80   C81   A    
C13   H8    S    
C84   H52   S    
C88   H60   S    
C60   H32   S    
C35   C36   A    
C2    C12   A    
C94   H75   S    
C39   H22   S    
C20   C30   S    
C100  H88   S    
C91   H67   S    
C13   N8    A    
N13   Ni1   S    
C100  H90   S    
C10   H6    S    
C26   C27   A    
C62   C63   A    
C97   H82   S    
C93   C94   S    
C75   H41   S    
C36   C37   A    
C86   H57   S    
C61   F1    S    
C7    N3    A    
N11   N13   A    
C38   C39   A    
C63   H35   S    
C11   C14   A    
C92   H71   S    
C23   H20   S    
C58   C60   S    
N4    Ni4   S    
C96   C97   S    
O4    C92   S    
C93   H73   S    
C18   C19   A    
C41   C42   A    
C31   H16   S    
C49   C50   A    
C78   C82   A    
C89   H63   S    
C56   H46   S    
N14   Ni4   S    
C85   H55   S    
C6    C15   A    
C54   C55   A    
C56   N13   A    
C3    C23   A    
C85   H54   S    
C47   C48   A    
C91   H68   S    
C90   H66   S    
C97   H83   S    
C98   C99   S    
C65   H36   S    
N1    Ni1   S    
C70   C71   A    
C51   C57   A    
C29   C30   A    
C4    C29   S    
C19   H11   S    
C91   H69   S    
C59   H31   S    
C86   H56   S    
C77   C79   A    
C17   C70   S    
C21   C22   A    
C4    C56   A    
C84   C85   S    
C87   H59   S    
C34   H29   S    
C88   H61   S    
C12   H12   S    
C67   H47   S    
C48   C49   A    
C95   C96   S    
C67   N14   A    
C44   C46   A    
N11   Ni4   S    
C98   H84   S    
C100  H89   S    
N8    Ni3   S    
C4    C34   A    
N9    Ni2   S    
C6    H2    S    
C97   H81   S    
C63   C64   A    
C8    N4    A    
C51   C52   A    
C76   H42   S    
N12   Ni2   S    
C23   N10   A    
C86   C87   S    
N3    Ni3   S    
C76   C77   A    
C18   C24   A    
C6    N2    A    
C51   O4    S    
C16   C46   S    
C39   C40   A    
O6    C98   S    
C72   C73   A    
C15   C26   S    
O5    C95   S    
C25   C26   A    
O3    C89   S    
C14   C61   S    
C3    C45   A    
C58   H30   S    
C60   C61   D    
C35   O3    S    
C85   H53   S    
C75   C76   A    
C43   H19   S    
C62   H34   S    
C38   H21   S    
C2    C49   S    
C47   C57   S    
C78   H48   S    
N9    N14   A    
C11   H7    S    
C5    F2    S    
C83   C84   S    
C69   H39   S    
O1    C83   S    
C90   C91   S    
C12   N9    A    
C69   C74   A    
C36   H18   S    
C20   C21   A    
C92   C93   S    
C42   H24   S    
C89   C90   S    
C5    C14   A    
C41   H23   S    
C90   H65   S    
N3    N6    A    
C9    N5    A    
C45   H38   S    
C9    C17   A    
C40   C41   A    
C79   H44   S    
C83   H50   S    
C2    C67   A    
C99   H87   S    
C66   H37   S    
C13   C15   A    
C87   H58   S    
C88   H62   S    
C22   C24   A    
N7    Ni4   S    
C58   C59   D    
C1    H1    S    
C42   C43   A    
C28   C29   A    
C24   H9    S    
C73   C82   S    
C27   C28   A    
C77   H43   S    
C52   C53   A    
C96   H80   S    
N16   Ni1   S    
C44   H25   S    
C44   C50   A    
C25   C30   A    
C55   O6    S    
C46   C47   A    
C7    C16   A    
C73   C74   A    
C54   O5    S    
C72   H40   S    
N2    Ni2   S    
C95   H78   S    
C31   C32   A    
C75   C81   A    
C87   C88   S    
N10   N12   A    
C95   H77   S    
C1    N1    A    
C53   C54   A    
N4    N5    A    
C80   H45   S    
C10   N6    A    
O2    C86   S    
C99   C100  S    
C8    C17   A    
C32   H17   S    
C62   C68   A    
C18   H10   S    
C32   C33   A    
C19   C20   A    
C55   C57   A    
C33   O2    S    
C1    C82   A    
C94   H76   S    
C38   C43   A    
C65   C66   A    
C10   C16   A    
C64   C65   A    
C92   H70   S    
C48   H26   S    
C52   H27   S    
N5    Ni2   S    
C40   C50   S    
C33   C35   A    
C45   N12   A    
N1    N15   A    
C8    H4    S    
C21   O1    S    
C11   N7    A    
C69   C70   A    
C94   H74   S    
C89   H64   S    
N6    Ni1   S    
C68   H33   S    
C79   C80   A    
C22   H13   S    
C31   C37   A    
C96   H79   S    
C7    H3    S    
C71   C72   A    
C83   H49   S    
C78   N15   A    
C25   H14   S    
C99   H86   S    
C84   H51   S    
C98   H85   S    
C64   C74   S    
C93   H72   S    
C5    N16   A    
C9    H5    S    
N2    N8    A    
N10   Ni3   S    
N15   Ni3   S    
C27   C37   S    
C71   C81   S    
N7    N16   A    
C3    C59   S    
