data_mof_unit_24687.cif
_audit_creation_date              2012-12-10T16:42:32-0500
_audit_creation_method            fapswitch 2.2
_symmetry_space_group_name_H-M    P1
_symmetry_Int_Tables_number       1
_space_group_crystal_system       triclinic
_cell_length_a                    7.565386
_cell_length_b                    8.689561
_cell_length_c                    11.005299
_cell_angle_alpha                 87.60724
_cell_angle_beta                  71.333682
_cell_angle_gamma                 103.117161
_cell_volume                      662.396981551

loop_
_atom_site_label
_atom_site_type_symbol
_atom_type_description
_atom_site_fract_x
_atom_site_fract_y
_atom_site_fract_z
_atom_type_partial_charge
C1    C     C_R   0.451442 0.199713 0.505480 0.880060
C2    C     C_R   0.548161 0.800234 0.496063 0.865405
C3    C     C_R   0.419982 0.485850 0.743757 0.747762
C4    C     C_R   0.580061 0.515175 0.256823 0.714451
C5    C     C_2   0.372822 0.458941 0.884368 0.272733
C6    C     C_2   0.629062 0.547495 0.117444 0.240714
C7    C     C_2   0.517805 0.508045 0.930776 -0.183458
C8    C     C_2   0.501553 0.470434 0.065349 -0.126308
C9    C     C_2   0.424215 0.031009 0.511564 -0.305323
C10   C     C_2   0.574978 0.968882 0.492928 -0.345459
Cu1   Cu    Cu3+1 0.688910 0.517800 0.485820 0.996460
Cu2   Cu    Cu3+1 0.311090 0.482200 0.514180 1.049200
H1    H     H_    0.379619 0.376982 0.126147 0.197866
H2    H     H_    0.656353 0.577291 0.865241 0.206008
H3    H     H_    0.278701 0.957776 0.532327 0.182324
H4    H     H_    0.720230 0.042360 0.474037 0.176455
N1    N     N_2   0.027170 0.455360 0.535550 -0.213561
N2    N     N_2   0.972830 0.544640 0.464450 -0.232488
O1    O     O_R   0.622710 0.286400 0.490790 -0.626891
O2    O     O_R   0.377290 0.713600 0.509210 -0.612475
O3    O     O_R   0.303660 0.256330 0.514730 -0.540923
O4    O     O_R   0.696340 0.743670 0.485270 -0.603501
O5    O     O_R   0.600900 0.509520 0.671740 -0.656615
O6    O     O_R   0.399100 0.490480 0.328260 -0.597267
O7    O     O_R   0.281840 0.479450 0.695690 -0.491348
O8    O     O_R   0.718160 0.520550 0.304310 -0.511498
S1    S     S_3+6 0.827902 0.710158 0.031548 0.085520
O9    O     O_2   0.966684 0.654298 0.922264 -0.208057
O10   O     O_2   0.756535 0.835291 0.976563 -0.257039
O11   O     O_3   0.944537 0.791361 0.129427 -0.436355
H5    H     H_    0.852971 0.841286 0.190398 0.316657
S2    S     S_3+6 0.139267 0.346280 0.984461 0.065428
O12   O     O_2   0.065519 0.431765 0.098538 -0.234142
O13   O     O_2   0.998918 0.321290 0.912323 -0.202234
O14   O     O_3   0.156524 0.167715 0.037270 -0.499721
H6    H     H_    0.042881 0.129531 0.116864 0.371359
C11   C     C_2   0.892408 0.326399 0.626098 0.676350
H7    H     H_    0.740047 0.307468 0.655253 0.070437
O15   O     O_2   0.950930 0.231242 0.677253 -0.495009
C12   C     C_2   0.113774 0.670090 0.375822 0.787593
H8    H     H_    0.159612 0.783531 0.407705 -0.036039
O16   O     O_2   0.170465 0.656352 0.260934 -0.487074

loop_
_geom_bond_atom_site_label_1
_geom_bond_atom_site_label_2
_ccdc_geom_bond_type
Cu2   N1    S    
C2    O4    A    
C4    O8    A    
Cu1   Cu2   S    
Cu1   N2    S    
C1    O3    A    
C8    H1    S    
S1    O10   D    
C9    C10   D    
Cu2   O6    S    
Cu1   O4    S    
C3    O5    A    
C6    S1    S    
Cu2   O7    S    
C5    S2    S    
S2    O12   D    
Cu2   O2    S    
C12   O16   D    
N1    N2    D    
C9    H3    S    
C7    C8    S    
C11   O15   D    
C10   H4    S    
S1    O11   S    
Cu1   O1    S    
C11   H7    S    
C6    C8    D    
Cu1   O5    S    
C12   H8    S    
O11   H5    S    
C4    O6    A    
C1    O1    A    
C2    O2    A    
C2    C10   S    
S2    O14   S    
C3    O7    A    
C1    C9    S    
C4    C6    S    
S1    O9    D    
C5    C7    D    
N2    C12   S    
N1    C11   S    
Cu1   O8    S    
Cu2   O3    S    
C7    H2    S    
O14   H6    S    
C3    C5    S    
S2    O13   D    
