data_mof_unit_11379.cif
_audit_creation_date              2012-10-26T18:51:48-0400
_audit_creation_method            fapswitch 2.2
_symmetry_space_group_name_H-M    P1
_symmetry_Int_Tables_number       1
_space_group_crystal_system       triclinic
_cell_length_a                    11.671838
_cell_length_b                    14.838275
_cell_length_c                    14.894544
_cell_angle_alpha                 64.176503
_cell_angle_beta                  104.89307
_cell_angle_gamma                 102.169443
_cell_volume                      2229.45212397

loop_
_atom_site_label
_atom_site_type_symbol
_atom_type_description
_atom_site_fract_x
_atom_site_fract_y
_atom_site_fract_z
_atom_type_partial_charge
C1    C     C_R   0.480158 0.119711 0.312443 0.534849
C2    C     C_R   0.481143 0.608124 0.091367 -0.133685
C3    C     C_R   0.700945 0.284261 0.669926 -0.153438
C4    C     C_R   0.258493 0.688062 0.388684 -0.140435
C5    C     C_R   0.680869 0.211945 0.629497 0.156430
C6    C     C_R   0.309264 0.782783 0.386279 0.162947
C7    C     C_R   0.496304 0.276382 0.527764 0.126951
C8    C     C_R   0.492968 0.716079 0.482063 0.119352
C9    C     C_R   0.519227 0.354551 0.566441 0.011617
C10   C     C_R   0.438725 0.615486 0.494426 0.014627
C11   C     C_R   0.625568 0.357037 0.636320 0.009950
C12   C     C_R   0.518208 0.880339 0.687363 0.534056
C13   C     C_R   0.319437 0.604585 0.445694 0.011686
C14   C     C_R   0.446551 0.435012 0.534809 0.024959
C15   C     C_R   0.497815 0.525566 0.549233 0.023009
C16   C     C_R   0.284491 0.000331 0.499780 0.543206
C17   C     C_R   0.715490 0.999758 0.500084 0.540504
C18   C     C_R   0.598764 0.519018 0.625900 -0.147953
C19   C     C_R   0.322888 0.426384 0.498622 -0.145803
C20   C     C_R   0.659940 0.434881 0.670468 -0.136906
C21   C     C_R   0.260923 0.510032 0.453020 -0.138898
C22   C     C_1   0.162763 0.000586 0.499923 -0.038971
C23   C     C_R   0.443846 0.322103 0.998578 0.063926
C24   C     C_1   0.837252 0.999515 0.500027 -0.043838
C25   C     C_1   0.060050 0.000306 0.499967 -0.054733
C26   C     C_1   0.939968 0.999772 0.500005 -0.053404
C27   C     C_R   0.466300 0.187715 0.204105 -0.021336
C28   C     C_R   0.518981 0.812467 0.794473 -0.023378
C29   C     C_R   0.432277 0.216546 0.026054 0.000781
C30   C     C_R   0.507850 0.782436 0.966096 0.001964
C31   C     C_R   0.442079 0.150546 0.128740 -0.119997
C32   C     C_R   0.518202 0.848974 0.866336 -0.120942
C33   C     C_R   0.477791 0.291343 0.176656 -0.146890
C34   C     C_R   0.494292 0.676863 0.993049 0.064638
C35   C     C_R   0.511140 0.709009 0.822516 -0.140060
C36   C     C_R   0.462606 0.359994 0.074641 0.019430
C37   C     C_R   0.492525 0.639381 0.919465 0.019503
C38   C     C_3   0.410401 0.172634 0.947950 -0.413204
C39   C     C_3   0.509036 0.825852 0.041154 -0.414295
C40   C     C_3   0.626183 0.740829 0.490450 -0.347826
C41   C     C_3   0.389296 0.279658 0.443998 -0.339550
C42   C     C_3   0.233804 0.868102 0.317095 -0.234886
C43   C     C_3   0.113120 0.852772 0.348040 -0.434373
C44   C     C_3   0.788416 0.154445 0.659158 -0.210046
C45   C     C_R   0.469620 0.465611 0.047088 0.032872
C46   C     C_3   0.777397 0.048051 0.742708 -0.381207
C47   C     C_R   0.473198 0.533554 0.944921 0.031417
C48   C     C_R   0.453289 0.493543 0.870904 -0.143291
C49   C     C_R   0.469791 0.505215 0.118000 -0.142287
C50   C     C_R   0.437586 0.390497 0.897082 -0.133684
Cu1   Cu    Cu3+1 0.469550 0.918260 0.475690 0.912807
Cu2   Cu    Cu3+1 0.530450 0.081740 0.524310 0.916281
H1    H     H_    0.421877 0.365375 0.836331 0.121047
H2    H     H_    0.456321 0.458477 0.194484 0.100591
H3    H     H_    0.739195 0.433648 0.727969 0.110670
H4    H     H_    0.166561 0.500806 0.421884 0.107990
H5    H     H_    0.781457 0.287870 0.724977 0.093502
H6    H     H_    0.169372 0.679048 0.346254 0.098283
H7    H     H_    0.403678 0.088997 0.983372 0.120634
H8    H     H_    0.325416 0.194571 0.894109 0.130272
H9    H     H_    0.485209 0.200580 0.905673 0.134654
H10   H     H_    0.520562 0.909579 0.006558 0.121456
H11   H     H_    0.423369 0.800840 0.069051 0.129494
H12   H     H_    0.479664 0.632909 0.149421 0.113551
H13   H     H_    0.584134 0.800554 0.106177 0.129432
H14   H     H_    0.667380 0.752147 0.561251 0.142482
H15   H     H_    0.668679 0.682234 0.487687 0.095361
H16   H     H_    0.646431 0.808354 0.422208 0.158399
H17   H     H_    0.308213 0.240616 0.476560 0.119919
H18   H     H_    0.378039 0.358278 0.388600 0.085712
H19   H     H_    0.394719 0.244566 0.395603 0.183342
H20   H     H_    0.123361 0.826613 0.431467 0.181599
H21   H     H_    0.072989 0.924947 0.310150 0.135344
H22   H     H_    0.050161 0.796426 0.324127 0.126686
H23   H     H_    0.629531 0.577476 0.654123 0.107599
H24   H     H_    0.277923 0.942234 0.311513 0.203603
H25   H     H_    0.216681 0.872285 0.238483 0.097237
H26   H     H_    0.709230 0.039010 0.786943 0.151369
H27   H     H_    0.756944 0.990536 0.710675 0.173703
H28   H     H_    0.863947 0.033070 0.796486 0.105893
H29   H     H_    0.819802 0.159949 0.593087 0.165735
H30   H     H_    0.868803 0.194719 0.690686 0.085524
H31   H     H_    0.270856 0.354921 0.508798 0.109085
H32   H     H_    0.520907 0.684585 0.766896 0.122570
H33   H     H_    0.502683 0.317273 0.236867 0.125116
H34   H     H_    0.523685 0.929414 0.844261 0.125512
H35   H     H_    0.433002 0.069978 0.150070 0.124427
H36   H     H_    0.444616 0.539819 0.790726 0.111530
N1    N     N_R   0.576230 0.204580 0.560790 -0.207464
N2    N     N_R   0.423770 0.795420 0.439210 -0.219523
O1    O     O_R   0.459870 0.022090 0.338120 -0.522047
O2    O     O_R   0.540130 0.977910 0.661880 -0.502078
O3    O     O_R   0.511290 0.160150 0.379180 -0.516752
O4    O     O_R   0.488710 0.839850 0.620820 -0.493170
O5    O     O_R   0.311490 0.930960 0.479480 -0.501040
O6    O     O_R   0.688510 0.069040 0.520520 -0.502682
O7    O     O_R   0.362910 0.069020 0.520540 -0.502147
O8    O     O_R   0.637090 0.930980 0.479460 -0.504865

loop_
_geom_bond_atom_site_label_1
_geom_bond_atom_site_label_2
_ccdc_geom_bond_type
C43   H21   S    
C15   C18   A    
C46   H28   S    
C43   H20   S    
C34   C37   A    
C27   C33   A    
C18   H23   S    
C12   C28   S    
C23   C29   A    
C35   C37   A    
C24   C26   T    
C44   H30   S    
C10   C15   A    
Cu1   N2    S    
C46   H27   S    
C16   O7    A    
C49   H2    S    
C7    N1    A    
Cu2   O7    S    
C33   C36   A    
C4    C13   A    
C33   H33   S    
Cu1   O1    S    
C28   C35   A    
C44   C46   S    
C40   H15   S    
C29   C38   S    
C48   H36   S    
C37   C47   A    
C17   O8    A    
C41   H19   S    
C38   H9    S    
C2    C34   A    
C43   H22   S    
C48   C50   A    
C1    O1    A    
C40   H14   S    
C39   H13   S    
C12   O4    A    
Cu2   N1    S    
C20   H3    S    
C19   H31   S    
C28   C32   A    
C2    H12   S    
C45   C47   A    
C11   C20   A    
C17   C24   S    
C31   H35   S    
C30   C34   A    
C27   C31   A    
Cu1   Cu2   S    
C50   H1    S    
Cu2   O3    S    
C4    C6    A    
C44   H29   S    
C46   H26   S    
C23   C50   A    
C25   C26   S    
C6    N2    A    
C22   C25   T    
C9    C14   A    
C2    C49   A    
C47   C48   A    
C45   C49   A    
C32   H34   S    
C13   C21   A    
C36   C45   A    
C17   O6    A    
C9    C11   A    
C38   H8    S    
C3    H5    S    
C8    C10   A    
C5    C44   S    
C6    C42   S    
Cu2   O2    S    
C8    N2    A    
C42   C43   S    
C41   H17   S    
C7    C9    A    
C39   H10   S    
C16   O5    A    
C16   C22   S    
C19   C21   A    
C14   C19   A    
C12   O2    A    
C3    C5    A    
C10   C13   A    
C21   H4    S    
C35   H32   S    
C39   H11   S    
C42   H24   S    
C29   C31   A    
C30   C32   A    
Cu1   O8    S    
C30   C39   S    
Cu2   O6    S    
C18   C20   A    
C7    C41   S    
C3    C11   A    
Cu1   O4    S    
C38   H7    S    
C42   H25   S    
C1    O3    A    
C23   C36   A    
C40   H16   S    
C4    H6    S    
C1    C27   S    
C14   C15   A    
C8    C40   S    
C5    N1    A    
Cu1   O5    S    
C41   H18   S    
