data_mof_unit_54763.cif
_audit_creation_date              2012-10-26T19:15:03-0400
_audit_creation_method            fapswitch 2.2
_symmetry_space_group_name_H-M    P1
_symmetry_Int_Tables_number       1
_space_group_crystal_system       triclinic
_cell_length_a                    10.826074
_cell_length_b                    10.834176
_cell_length_c                    9.560623
_cell_angle_alpha                 89.739861
_cell_angle_beta                  90.047851
_cell_angle_gamma                 89.342683
_cell_volume                      1121.29489054

loop_
_atom_site_label
_atom_site_type_symbol
_atom_type_description
_atom_site_fract_x
_atom_site_fract_y
_atom_site_fract_z
_atom_type_partial_charge
C1    C     C_R   0.504518 0.262629 0.500415 0.541934
C2    C     C_R   0.488533 0.938037 0.625127 -0.015500
C3    C     C_3   0.383793 0.938877 0.728967 0.172061
C4    C     C_R   0.262505 0.496037 0.499935 0.561663
C5    C     C_3   0.395228 0.079304 0.730884 0.181456
C6    C     C_R   0.588045 0.562469 0.073305 0.107375
C7    C     C_R   0.419625 0.429645 0.074370 0.483642
C8    C     C_R   0.418897 0.430711 0.925662 0.047952
C9    C     C_R   0.590695 0.559352 0.925954 0.074179
C10   C     C_3   0.619375 0.693056 0.916502 -0.206358
C11   C     C_3   0.607767 0.698378 0.073722 0.209482
C12   C     C_R   0.936966 0.497378 0.623321 0.020012
C13   C     C_R   0.500228 0.737915 0.500165 0.572355
C14   C     C_R   0.737528 0.496558 0.499852 0.533851
C15   C     C_R   0.063959 0.491586 0.625075 -0.036574
C16   C     C_R   0.129755 0.481548 0.500335 0.003109
C17   C     C_R   0.064949 0.455274 0.376441 -0.145713
C18   C     C_R   0.935747 0.455666 0.376348 -0.177215
C19   C     C_R   0.870680 0.484283 0.499602 0.002747
C20   C     C_3   0.550260 0.111989 0.904368 -0.093382
C21   C     C_3   0.909218 0.757235 0.568812 -0.107990
C22   C     C_3   0.178076 0.907342 0.771140 -0.126929
C23   C     C_3   0.934321 0.592703 0.737465 0.153383
C24   C     C_3   0.074933 0.583092 0.740834 -0.229246
C25   C     C_R   0.497515 0.064817 0.626212 -0.035067
C26   C     C_R   0.518649 0.129881 0.502852 -0.007687
C27   C     C_R   0.556311 0.064531 0.383585 -0.138867
C28   C     C_R   0.554377 0.935642 0.384405 -0.138142
C29   C     C_R   0.510041 0.871483 0.502053 0.037142
Cu1   Cu    Cu3+1 0.499990 0.499980 0.640670 0.961622
Cu2   Cu    Cu3+1 0.500010 0.500020 0.359330 1.066842
F1    F     F_    0.336916 0.359069 0.143477 -0.624631
F2    F     F_    0.501489 0.762062 0.111810 -0.638111
H1    H     H_    0.113350 0.439886 0.278883 0.188033
H2    H     H_    0.124611 0.667022 0.707790 0.168251
H3    H     H_    0.111121 0.539563 0.838328 0.113669
H4    H     H_    0.583153 0.112505 0.288953 0.138064
H5    H     H_    0.584465 0.887241 0.292155 0.190373
H6    H     H_    0.610061 0.172169 0.839554 0.131205
H7    H     H_    0.581341 0.014050 0.898256 0.112053
H8    H     H_    0.560762 0.141512 0.014625 0.150024
H9    H     H_    0.832978 0.730014 0.498396 0.127025
H10   H     H_    0.999754 0.727828 0.525136 0.131133
H11   H     H_    0.908189 0.859573 0.570806 0.128993
H12   H     H_    0.407490 0.892392 0.829423 0.151188
H13   H     H_    0.169871 0.000958 0.817784 0.137745
H14   H     H_    0.194368 0.837355 0.854824 0.140264
H15   H     H_    0.088289 0.887830 0.721253 0.156490
H16   H     H_    0.314084 0.128907 0.685101 0.152351
H17   H     H_    0.351519 0.376714 0.869964 0.163802
H18   H     H_    0.714780 0.709556 0.880140 0.135030
H19   H     H_    0.547644 0.747129 0.860917 0.176366
H20   H     H_    0.693004 0.726823 0.129185 0.085140
H21   H     H_    0.887483 0.439552 0.278964 0.131992
H22   H     H_    0.892000 0.555376 0.834508 0.118453
N1    N     N_R   0.500790 0.500930 0.147930 -0.202475
N2    N     N_R   0.500790 0.500890 0.852020 -0.276019
O1    O     O_R   0.500000 0.319640 0.618810 -0.509392
O2    O     O_3   0.887159 0.713569 0.706275 -0.588186
O3    O     O_3   0.271575 0.900838 0.668473 -0.582430
O4    O     O_R   0.500010 0.319680 0.381230 -0.465211
O5    O     O_R   0.319650 0.499970 0.618810 -0.515269
O6    O     O_R   0.319660 0.500010 0.381230 -0.441034
O7    O     O_R   0.499990 0.680320 0.618770 -0.508069
O8    O     O_R   0.500000 0.680360 0.381190 -0.447640
O9    O     O_R   0.680340 0.499990 0.618770 -0.492467
O10   O     O_R   0.680350 0.500030 0.381190 -0.541249
O11   O     O_3   0.424825 0.126814 0.865773 -0.567602

loop_
_geom_bond_atom_site_label_1
_geom_bond_atom_site_label_2
_ccdc_geom_bond_type
C4    C16   S    
C22   H15   S    
C14   O10   A    
C23   H22   S    
Cu1   O7    S    
Cu2   N1    S    
C21   H11   S    
C9    C10   S    
Cu2   O4    S    
C11   H20   S    
C12   C15   A    
C28   H5    S    
C23   C24   S    
C4    O5    A    
C10   H19   S    
C3    O3    S    
C6    C9    A    
C2    C3    S    
C14   O9    A    
C7    C8    A    
C13   O8    A    
C1    O1    A    
Cu2   O10   S    
C12   C23   S    
C5    H16   S    
C26   C27   A    
C24   H3    S    
C13   O7    A    
C7    N1    A    
C27   H4    S    
C5    O11   S    
C5    C25   S    
C10   H18   S    
Cu1   O1    S    
C12   C19   A    
C4    O6    A    
C15   C24   S    
Cu1   O9    S    
C3    H12   S    
C21   O2    S    
C2    C25   A    
C9    N2    A    
Cu1   O5    S    
C22   O3    S    
Cu1   Cu2   S    
C20   H7    S    
C22   H14   S    
C1    C26   S    
C24   H2    S    
C10   C11   S    
C18   H21   S    
C6    C11   S    
C21   H9    S    
Cu1   N2    S    
Cu2   O6    S    
C11   F2    S    
C2    C29   A    
C17   C18   A    
C18   C19   A    
C17   H1    S    
C8    H17   S    
C13   C29   S    
C27   C28   A    
Cu2   O8    S    
C20   H6    S    
C28   C29   A    
C7    F1    S    
C20   H8    S    
C23   O2    S    
C22   H13   S    
C25   C26   A    
C21   H10   S    
C14   C19   S    
C20   O11   S    
C8    N2    A    
C15   C16   A    
C6    N1    A    
C16   C17   A    
C3    C5    S    
C1    O4    A    
