data_mof_unit_13443.cif
_audit_creation_date              2012-12-11T15:57:38-0500
_audit_creation_method            fapswitch 2.2
_symmetry_space_group_name_H-M    P1
_symmetry_Int_Tables_number       1
_space_group_crystal_system       triclinic
_cell_length_a                    10.694146
_cell_length_b                    10.712703
_cell_length_c                    16.930427
_cell_angle_alpha                 99.360346
_cell_angle_beta                  99.465797
_cell_angle_gamma                 61.675785
_cell_volume                      1676.12517715

loop_
_atom_site_label
_atom_site_type_symbol
_atom_type_description
_atom_site_fract_x
_atom_site_fract_y
_atom_site_fract_z
_atom_type_partial_charge
C1    C     C_R   0.352919 0.779504 0.403706 0.573991
C2    C     C_2   0.819718 0.333585 0.156200 -0.081265
C3    C     C_2   0.822941 0.226663 0.190176 0.193943
C4    C     C_2   0.799196 0.247190 0.274055 -0.123526
C5    C     C_2   0.317049 0.875579 0.343092 -0.106601
C6    C     C_2   0.297889 0.903190 0.175172 -0.099479
C7    C     C_2   0.386128 0.935242 0.230585 -0.173037
C8    C     C_2   0.417671 0.885685 0.310708 -0.149652
C9    C     C_2   0.300954 0.308067 0.636812 -0.003960
C10   C     C_2   0.325104 0.331311 0.817358 -0.129448
C11   C     C_2   0.423928 0.232128 0.769707 -0.021527
C12   C     C_R   0.369225 0.346155 0.357364 0.548797
C13   C     C_2   0.385437 0.201441 0.682740 0.232925
C14   C     C_1   0.846943 0.328699 0.704837 -0.037887
C15   C     C_1   0.894411 0.293459 0.771393 -0.039890
C16   C     C_1   0.358932 0.762808 0.713745 -0.015213
C17   C     C_1   0.326170 0.810356 0.780691 -0.027765
C18   C     C_R   0.891440 0.308389 0.085645 0.567988
C19   C     C_R   0.319298 0.299999 0.119531 0.549493
C20   C     C_R   0.260493 0.951084 0.095665 0.563883
C21   C     C_R   0.944262 0.273286 0.853815 0.552405
C22   C     C_R   0.307481 0.292723 0.892472 0.546862
C23   C     C_R   0.775368 0.377304 0.404189 0.547608
C24   C     C_R   0.280630 0.880558 0.857338 0.549041
C25   C     C_R   0.381488 0.713337 0.631460 0.560671
C26   C     C_R   0.365152 0.344448 0.579809 0.570291
C27   C     C_R   0.777806 0.378771 0.628822 0.534008
C28   C     C_1   0.342870 0.336261 0.273914 -0.034705
C29   C     C_1   0.331792 0.326713 0.202887 -0.029935
C30   C     C_2   0.837950 0.331982 0.328753 -0.147679
Cr1   Cr    Cr6+3 0.608020 0.610770 0.522990 1.084250
Cr2   Cr    Cr6+3 0.289390 0.599570 0.488050 1.039046
Cr3   Cr    Cr6+3 0.602610 0.289690 0.489020 1.060651
Cr4   Cr    Cr6+3 0.053780 0.052210 0.965970 1.080661
Cr5   Cr    Cr6+3 0.060060 0.372530 0.992430 1.049063
Cr6   Cr    Cr6+3 0.372600 0.061970 0.991430 1.059950
H1    H     H_    0.229564 0.416809 0.792008 0.094399
H2    H     H_    0.743528 0.193696 0.289927 0.191084
H3    H     H_    0.785020 0.438851 0.188799 0.077949
H4    H     H_    0.896305 0.383258 0.313653 0.101483
H5    H     H_    0.441526 0.989679 0.215651 0.168646
H6    H     H_    0.527132 0.843397 0.338317 0.168674
H7    H     H_    0.248228 0.842322 0.189055 0.142131
H8    H     H_    0.206573 0.924472 0.316917 0.127226
O1    O     O_R   0.749250 0.499990 0.439200 -0.508212
O2    O     O_R   0.299400 0.468710 0.556310 -0.527585
O3    O     O_R   0.489240 0.256450 0.560730 -0.449104
O4    O     O_R   0.723350 0.306730 0.584410 -0.490508
O5    O     O_3   0.500010 0.500010 0.500020 -0.290557
O6    O     O_R   0.170650 0.915100 0.051290 -0.467562
O7    O     O_R   0.941960 0.184500 0.049060 -0.443223
O8    O     O_R   0.922640 0.402670 0.071640 -0.509459
O9    O     O_R   0.196880 0.368740 0.083740 -0.493363
O10   O     O_R   0.411120 0.181190 0.091480 -0.493526
O11   O     O_R   0.364220 0.944920 0.062310 -0.489507
O12   O     O_R   0.477870 0.725740 0.440280 -0.475694
O13   O     O_R   0.158740 0.906940 0.874970 -0.507181
O14   O     O_R   0.930920 0.176940 0.885610 -0.494698
O15   O     O_R   0.910730 0.394510 0.895320 -0.497384
O16   O     O_R   0.185840 0.361180 0.920280 -0.506712
O17   O     O_R   0.399210 0.173040 0.915160 -0.500034
O18   O     O_R   0.353170 0.937370 0.898860 -0.487642
O19   O     O_3   0.162150 0.162240 0.983280 -0.308476
O20   O     O_R   0.260770 0.742210 0.412610 -0.501993
O21   O     O_R   0.297990 0.466320 0.394220 -0.495091
O22   O     O_R   0.487720 0.253870 0.385870 -0.508726
O23   O     O_R   0.721940 0.304340 0.422320 -0.500031
O24   O     O_R   0.750770 0.502570 0.614050 -0.508364
O25   O     O_R   0.479280 0.728140 0.602370 -0.432387
O26   O     O_R   0.262290 0.744790 0.587460 -0.500135
Cl1   Cl    Cl    0.849065 0.059578 0.139025 -0.575046
Cl2   Cl    Cl    0.496724 0.032383 0.634919 -0.577966
C31   C     C_3   0.143104 0.395263 0.644542 -0.405747
H9    H     H_    0.106641 0.349711 0.684895 0.124787
H10   H     H_    0.117476 0.507137 0.667337 0.144564
H11   H     H_    0.083081 0.394857 0.584466 0.155996
C32   C     C_3   0.575360 0.140949 0.804593 -0.295430
H12   H     H_    0.651738 0.137511 0.766036 0.161414
H13   H     H_    0.599614 0.185849 0.865623 0.150694
H14   H     H_    0.593097 0.030781 0.807298 0.188339

loop_
_geom_bond_atom_site_label_1
_geom_bond_atom_site_label_2
_ccdc_geom_bond_type
C27   O4    A    
C23   O1    A    
C2    C18   S    
C31   H9    S    
C18   O8    A    
C7    C8    S    
C32   H12   S    
C10   C22   S    
Cr4   O7    S    
C12   C28   S    
C10   H1    S    
C1    C5    S    
C28   C29   T    
C1    O12   A    
C8    H6    S    
C21   O15   A    
C22   O16   A    
Cr5   O9    S    
Cr3   O5    S    
Cr5   O15   S    
C23   O23   A    
C9    C13   D    
C20   O6    A    
C27   O24   A    
C11   C32   S    
C2    H3    S    
C16   C17   T    
Cr3   O22   S    
Cr4   O13   S    
Cr1   O12   S    
Cr6   O19   S    
C14   C27   S    
C19   O9    A    
C31   H10   S    
C9    C31   S    
Cr1   O5    S    
C20   O11   A    
Cr6   O18   S    
C9    C26   S    
C32   H13   S    
Cr1   O24   S    
Cr4   O6    S    
C17   C24   S    
C23   C30   S    
Cr2   O20   S    
C24   O13   A    
Cr2   O26   S    
C12   O22   A    
Cr5   O16   S    
C3    Cl1   S    
Cr1   O25   S    
C30   H4    S    
C26   O3    A    
C19   O10   A    
C5    H8    S    
C4    H2    S    
C6    H7    S    
Cr3   O3    S    
C31   H11   S    
C25   O25   A    
Cr6   O17   S    
C19   C29   S    
C1    O20   A    
Cr3   O23   S    
C32   H14   S    
C16   C25   S    
C24   O18   A    
Cr2   O2    S    
C5    C8    D    
C6    C7    D    
C13   Cl2   S    
C18   O7    A    
C6    C20   S    
C12   O21   A    
C2    C3    D    
C21   O14   A    
Cr6   O11   S    
C22   O17   A    
C11   C13   S    
Cr4   O19   S    
C7    H5    S    
Cr2   O5    S    
Cr6   O10   S    
C10   C11   D    
C26   O2    A    
C15   C21   S    
Cr1   O1    S    
Cr5   O8    S    
Cr4   O14   S    
Cr3   O4    S    
C14   C15   T    
Cr5   O19   S    
C25   O26   A    
C4    C30   D    
C3    C4    S    
Cr2   O21   S    
