data_mof_unit_49765.cif
_audit_creation_date              2012-12-10T17:29:23-0500
_audit_creation_method            fapswitch 2.2
_symmetry_space_group_name_H-M    P1
_symmetry_Int_Tables_number       1
_space_group_crystal_system       triclinic
_cell_length_a                    12.040448
_cell_length_b                    12.855415
_cell_length_c                    13.070989
_cell_angle_alpha                 87.212904
_cell_angle_beta                  114.423201
_cell_angle_gamma                 93.379698
_cell_volume                      1838.29124434

loop_
_atom_site_label
_atom_site_type_symbol
_atom_type_description
_atom_site_fract_x
_atom_site_fract_y
_atom_site_fract_z
_atom_type_partial_charge
C1    C     C_R   0.474649 0.299648 0.492310 0.993988
C2    C     C_R   0.613953 0.511695 0.832233 -0.105796
C3    C     C_R   0.534072 0.811492 0.492797 -0.018357
C4    C     C_R   0.568282 0.502092 0.709606 0.964737
C5    C     C_R   0.454987 0.188454 0.477613 -0.202095
C6    C     C_R   0.331024 0.031307 0.407915 -0.214021
C7    C     C_R   0.338359 0.138997 0.418243 0.459721
C8    C     C_R   0.560096 0.130823 0.519908 -0.266217
C9    C     C_R   0.552340 0.025086 0.507061 0.164975
C10   C     C_R   0.436784 0.974716 0.452195 0.101872
C11   C     C_R   0.428535 0.867866 0.444357 -0.151514
C12   C     C_R   0.552393 0.507779 0.986911 0.092295
C13   C     C_R   0.649550 0.861469 0.542796 -0.127853
C14   C     C_R   0.658694 0.968780 0.550120 -0.139869
C15   C     C_R   0.001990 0.592685 0.385684 -0.269435
C16   C     C_R   0.520956 0.700311 0.496769 0.938031
C17   C     C_R   0.123812 0.583903 0.398805 0.040328
C18   C     C_R   0.162160 0.463200 0.550082 0.054177
C19   C     C_R   0.040956 0.469458 0.539120 0.016530
C20   C     C_R   0.958872 0.534548 0.456761 0.077704
C21   C     C_R   0.836960 0.539105 0.448666 -0.059188
C22   C     C_R   0.881641 0.415282 0.600381 0.488335
C23   C     C_R   0.537023 0.546968 0.879707 -0.015162
C24   C     C_R   0.001337 0.410859 0.609483 -0.272585
C25   C     C_R   0.431744 0.500550 0.290828 0.948137
C26   C     C_R   0.262611 0.591828 0.994212 0.507115
C27   C     C_R   0.386712 0.505108 0.169228 -0.209461
C28   C     C_R   0.726065 0.470668 0.903265 -0.073244
C29   C     C_R   0.755749 0.456340 0.017636 -0.105908
C30   C     C_R   0.668689 0.472606 0.059098 -0.085166
C31   C     C_R   0.455379 0.514346 0.020846 -0.101772
C32   C     C_R   0.354168 0.576442 0.955458 -0.081800
C33   C     C_R   0.353553 0.630243 0.859803 -0.199146
C34   C     C_R   0.448238 0.622091 0.826500 0.303237
C35   C     C_R   0.456517 0.464256 0.119445 0.370395
C36   C     C_R   0.285119 0.562711 0.104832 -0.299328
H1    H     H_    0.226053 0.587885 0.141944 0.208046
H2    H     H_    0.694664 0.460970 0.148017 0.194039
H3    H     H_    0.844033 0.428010 0.073281 0.182975
H4    H     H_    0.339693 0.828225 0.403602 0.153425
H5    H     H_    0.015447 0.170029 0.234307 0.397675
H6    H     H_    0.867089 0.198243 0.612774 0.323357
H7    H     H_    0.155868 0.628468 0.343220 0.134304
H8    H     H_    0.286968 0.688223 0.817369 0.236677
H9    H     H_    0.078716 0.813091 0.853262 0.399474
H10   H     H_    0.657600 0.268773 0.307643 0.382176
H11   H     H_    0.789633 0.448589 0.870418 0.238840
H12   H     H_    0.731615 0.817516 0.580045 0.180199
H13   H     H_    0.301186 0.696498 0.623506 0.338353
H14   H     H_    0.243095 0.991213 0.364999 0.203134
H15   H     H_    0.747929 0.007269 0.591653 0.167708
H16   H     H_    0.649315 0.168149 0.563667 0.214552
H17   H     H_    0.773639 0.589940 0.385847 0.142892
H18   H     H_    0.942386 0.644013 0.320432 0.160421
H19   H     H_    0.065263 0.360739 0.673294 0.211800
H20   H     H_    0.224735 0.412394 0.613717 0.147760
N1    N     N_R   0.798200 0.480260 0.519790 -0.141241
N2    N     N_R   0.201820 0.519740 0.480210 -0.113348
O1    O     O_R   0.579910 0.341070 0.505280 -0.583611
O2    O     O_2   0.219507 0.297343 0.282306 -0.253465
O3    O     O_3   0.088075 0.126765 0.266489 -0.531739
O4    O     O_2   0.943965 0.372169 0.816958 -0.237238
O5    O     O_2   0.734034 0.317725 0.701213 -0.305543
O6    O     O_3   0.905329 0.213010 0.694033 -0.516142
O7    O     O_2   0.071551 0.612935 0.795059 -0.314987
O8    O     O_2   0.034813 0.636617 0.963310 -0.275858
O9    O     O_3   0.156891 0.783578 0.905454 -0.529433
O10   O     O_2   0.420200 0.273663 0.195576 -0.263765
O11   O     O_2   0.524654 0.282850 0.069758 -0.248284
O12   O     O_R   0.388440 0.353740 0.492580 -0.560397
O13   O     O_3   0.646097 0.340980 0.276141 -0.586326
O14   O     O_2   0.499874 0.825267 0.832050 -0.204921
O15   O     O_2   0.590281 0.724907 0.735127 -0.314080
O16   O     O_3   0.356296 0.759415 0.636539 -0.517143
O17   O     O_R   0.643280 0.490550 0.663120 -0.554672
O18   O     O_R   0.451810 0.503220 0.650420 -0.643709
O19   O     O_R   0.611560 0.646260 0.507420 -0.641067
O20   O     O_R   0.420090 0.658930 0.494720 -0.605499
O21   O     O_R   0.548190 0.496780 0.349580 -0.598808
O22   O     O_R   0.356720 0.509450 0.336880 -0.610155
O23   O     O_2   0.164717 0.245334 0.439297 -0.307445
S1    S     S_3+6 0.201025 0.206543 0.351345 0.061130
S2    S     S_3+6 0.859207 0.331679 0.704016 0.051314
S3    S     S_3+6 0.125472 0.654859 0.911834 0.034690
S4    S     S_3+6 0.511038 0.336204 0.163504 0.040276
S5    S     S_3+6 0.478358 0.734567 0.756849 0.059798
Zn1   Zn    Zn3+2 0.627850 0.491540 0.508480 1.049128
Zn2   Zn    Zn3+2 0.372150 0.508460 0.491520 1.021070

loop_
_geom_bond_atom_site_label_1
_geom_bond_atom_site_label_2
_ccdc_geom_bond_type
O4    S2    D    
C28   H11   S    
C26   C32   A    
C25   O22   A    
C19   C20   A    
H5    O3    S    
O12   Zn2   S    
C22   N1    A    
O21   Zn1   S    
O23   S1    D    
C24   H19   S    
C12   C23   A    
C1    C5    S    
C28   C29   A    
C18   C19   A    
O3    S1    S    
C1    O1    A    
O20   Zn2   S    
C30   H2    S    
C16   O19   A    
C34   S5    S    
C4    O17   A    
O13   S4    S    
O2    S1    D    
C18   N2    A    
C31   C32   A    
C8    C9    A    
H9    O9    S    
C9    C10   A    
C8    H16   S    
C16   O20   A    
C3    C13   A    
C18   H20   S    
C17   N2    A    
O9    S3    S    
C13   C14   A    
O10   S4    D    
C15   C20   A    
C15   H18   S    
C5    C7    A    
O7    S3    D    
C27   C35   A    
O16   S5    S    
N1    Zn1   S    
O5    S2    D    
C2    C4    S    
C9    C14   A    
C17   H7    S    
O6    S2    S    
C21   N1    A    
C29   C30   A    
C5    C8    A    
C14   H15   S    
C23   C34   A    
C29   H3    S    
C33   C34   A    
C6    H14   S    
H10   O13   S    
C26   C36   A    
C12   C31   A    
C31   C35   A    
H6    O6    S    
O11   S4    D    
O17   Zn1   S    
C15   C17   A    
O18   Zn2   S    
C36   H1    S    
C26   S3    S    
C12   C30   A    
C25   O21   A    
C33   H8    S    
N2    Zn2   S    
C6    C10   A    
C13   H12   S    
O14   S5    D    
C6    C7    A    
C27   C36   A    
C25   C27   S    
C1    O12   A    
C22   S2    S    
C19   C24   A    
O22   Zn2   S    
C32   C33   A    
C21   H17   S    
C35   S4    S    
C22   C24   A    
C11   H4    S    
O1    Zn1   S    
O15   S5    D    
C4    O18   A    
C3    C11   A    
C10   C11   A    
O8    S3    D    
C7    S1    S    
C20   C21   A    
O19   Zn1   S    
C2    C23   A    
H13   O16   S    
C2    C28   A    
C3    C16   S    
