data_mof_unit_17542.cif
_audit_creation_date              2013-03-05T16:32:26-0500
_audit_creation_method            fapswitch 2.2
_symmetry_space_group_name_H-M    P1
_symmetry_Int_Tables_number       1
_space_group_crystal_system       triclinic
_cell_length_a                    10.632888
_cell_length_b                    10.816157
_cell_length_c                    9.558072
_cell_angle_alpha                 90.175422
_cell_angle_beta                  90.035579
_cell_angle_gamma                 90.447101
_cell_volume                      1099.20620398

loop_
_atom_site_label
_atom_site_type_symbol
_atom_site_description
_atom_site_fract_x
_atom_site_fract_y
_atom_site_fract_z
_atom_type_partial_charge
O1    O     O_R   0.500000 0.319640 0.618810 -0.585762
O2    O     O_R   0.500010 0.319680 0.381230 -0.588949
C1    C     C_R   0.496949 0.262363 0.499801 0.794439
O3    O     O_R   0.316850 0.499950 0.618770 -0.582802
O4    O     O_R   0.316860 0.499990 0.381190 -0.589093
C2    C     C_R   0.259337 0.499490 0.499854 0.774109
Cu1   Cu    Cu3+1 0.499990 0.499980 0.640670 0.942844
Cu2   Cu    Cu3+1 0.500010 0.500020 0.359330 0.960258
O5    O     O_R   0.499990 0.680320 0.618770 -0.581600
O6    O     O_R   0.500000 0.680360 0.381190 -0.562118
O7    O     O_R   0.683140 0.500010 0.618810 -0.587037
O8    O     O_R   0.683150 0.500050 0.381230 -0.580014
C3    C     C_R   0.497068 0.737664 0.500063 0.817748
C4    C     C_R   0.740740 0.499645 0.500277 0.802997
C5    C     C_3   0.041325 0.389849 0.548823 -0.170138
C6    C     C_3   0.957314 0.406803 0.418157 -0.170872
H1    H     H_    0.919193 0.331528 0.350812 0.140257
H2    H     H_    0.078167 0.300720 0.588267 0.128286
C7    C     C_3   0.877753 0.498893 0.501289 0.011678
C8    C     C_3   0.959451 0.481783 0.632128 -0.133294
C9    C     C_3   0.043018 0.590759 0.582881 -0.173914
C10   C     C_3   0.959206 0.607811 0.452351 -0.159144
C11   C     C_3   0.040824 0.515913 0.368816 -0.131465
C12   C     C_3   0.122489 0.498929 0.499545 0.022577
H3    H     H_    0.924288 0.467265 0.740158 0.132601
H4    H     H_    0.081028 0.666107 0.650205 0.139356
H5    H     H_    0.924351 0.698257 0.415702 0.189043
H6    H     H_    0.076426 0.530009 0.260798 0.146182
C13   C     C_R   0.485684 0.064105 0.625349 0.099716
C14   C     C_R   0.482991 0.129248 0.499691 -0.100532
C15   C     C_R   0.460857 0.063878 0.374546 -0.198454
H7    H     H_    0.449872 0.111705 0.275947 0.165058
C16   C     C_R   0.460294 0.934834 0.374924 -0.141948
H8    H     H_    0.447913 0.886029 0.276803 0.197960
C17   C     C_R   0.483014 0.870687 0.500099 -0.100733
C18   C     C_R   0.486087 0.936938 0.625421 0.090896
C19   C     C_3   0.577397 0.931840 0.743761 -0.414983
C20   C     C_3   0.576605 0.072163 0.744227 -0.425478
H9    H     H_    0.534222 0.890697 0.838759 0.231178
H10   H     H_    0.533178 0.112082 0.839844 0.200496
H11   H     H_    0.668267 0.114239 0.713557 0.198065
C21   C     C_R   0.554535 0.595348 0.073923 0.209722
N1    N     N_R   0.500800 0.500930 0.147930 -0.213133
C22   C     C_R   0.434953 0.413116 0.074055 -0.079159
H12   H     H_    0.384231 0.341352 0.129424 0.138042
C23   C     C_R   0.434661 0.413308 0.925258 -0.072089
H13   H     H_    0.383586 0.341762 0.869354 0.137589
N2    N     N_R   0.500800 0.500890 0.852020 -0.181453
C24   C     C_R   0.556284 0.594067 0.926565 0.219906
C25   C     C_3   0.691626 0.631139 0.921105 -0.561816
C26   C     C_3   0.688984 0.636267 0.080164 0.123729
H14   H     H_    0.752263 0.555968 0.880595 0.182405
H15   H     H_    0.706555 0.721844 0.869680 0.218446
H16   H     H_    0.752799 0.568871 0.131007 0.123813
H17   H     H_    0.669455 0.892531 0.712131 0.193685
N3    N     N_R   0.702087 0.762304 0.134862 0.155616
O9    O     O_R   0.631004 0.851010 0.089361 -0.408777
O10   O     O_R   0.786854 0.786993 0.229023 -0.393942

loop_
_geom_bond_atom_site_label_1
_geom_bond_atom_site_label_2
_geom_bond_distance
_ccdc_geom_bond_type
C13   C20   1.493308 S    
C5    H2    1.110352 S    
C25   H14   1.110516 S    
C11   C12   1.533485 S    
C15   C16   1.395736 A    
C19   C20   1.517832 S    
N3    O10   1.299013 A    
C1    C14   1.446269 S    
C7    C8    1.534722 S    
Cu2   N1    2.020654 S    
C21   C26   1.494321 S    
Cu2   O8    1.958393 S    
C26   H16   1.112407 S    
C2    C12   1.455058 S    
Cu1   N2    2.020106 S    
C16   H8    1.082259 S    
Cu1   Cu2   2.689069 S    
C19   H9    1.110426 S    
C23   H13   1.081596 S    
C9    C10   1.545091 S    
N3    O9    1.301707 A    
Cu1   O7    1.958717 S    
C13   C18   1.375496 A    
C13   C14   1.394719 A    
O3    Cu1   1.958393 S    
C4    C7    1.456962 S    
Cu2   O6    1.961109 S    
N2    C24   1.362798 A    
C20   H10   1.111799 S    
C9    H4    1.110382 S    
O8    C4    1.291863 A    
C3    C17   1.447689 S    
C6    C11   1.546348 S    
O2    C1    1.293762 A    
C10   H5    1.106650 S    
C6    C7    1.532412 S    
N1    C22   1.369610 A    
O4    C2    1.288943 A    
O7    C4    1.288239 A    
C23   N2    1.369756 A    
O4    Cu2   1.958718 S    
C6    H1    1.110335 S    
C8    H3    1.109583 S    
C21   C24   1.408619 A    
C5    C6    1.547244 S    
C25   H15   1.109025 S    
C7    C10   1.531243 S    
C8    C9    1.545313 S    
C20   H11   1.112304 S    
O3    C2    1.290320 A    
C24   C25   1.491859 S    
C21   N1    1.365859 A    
C9    C12   1.531058 S    
O2    Cu2   1.962423 S    
Cu1   O5    1.962421 S    
O5    C3    1.295213 A    
C10   C11   1.545353 S    
C18   C19   1.491613 S    
O1    Cu1   1.961109 S    
C25   C26   1.521415 S    
C16   C17   1.406610 A    
C11   H6    1.110417 S    
C5    C12   1.531868 S    
O6    C3    1.293103 A    
C15   H7    1.083136 S    
C14   C15   1.406393 A    
C22   H12   1.081563 S    
C26   N3    1.464151 S    
C22   C23   1.422214 A    
C5    C8    1.546017 S    
O1    C1    1.293863 A    
C17   C18   1.394176 A    
C19   H17   1.111928 S    
