data_mof_unit_24282.cif
_audit_creation_date              2012-12-11T15:39:20-0500
_audit_creation_method            fapswitch 2.2
_symmetry_space_group_name_H-M    P1
_symmetry_Int_Tables_number       1
_space_group_crystal_system       triclinic
_cell_length_a                    14.307147
_cell_length_b                    14.817229
_cell_length_c                    33.227737
_cell_angle_alpha                 97.89154
_cell_angle_beta                  90.513701
_cell_angle_gamma                 118.73311
_cell_volume                      6095.35454209

loop_
_atom_site_label
_atom_site_type_symbol
_atom_type_description
_atom_site_fract_x
_atom_site_fract_y
_atom_site_fract_z
_atom_type_partial_charge
C1    C     C_R   0.616699 0.910061 0.436985 0.564724
C2    C     C_R   0.711835 0.436830 0.949385 0.555106
C3    C     C_R   0.556798 0.817689 0.775536 -0.156344
C4    C     C_R   0.563813 0.835453 0.735350 -0.027617
C5    C     C_R   0.601432 0.783966 0.706953 0.007508
C6    C     C_R   0.625584 0.709597 0.718535 -0.068204
C7    C     C_R   0.618876 0.691734 0.758828 0.394558
C8    C     C_R   0.587045 0.747964 0.787877 0.022181
C9    C     C_R   0.573873 0.734461 0.631309 -0.167572
C10   C     C_R   0.580864 0.761356 0.592093 0.029355
C11   C     C_R   0.687272 0.944451 0.622581 -0.099254
C12   C     C_2   0.149240 0.681261 0.381434 0.615840
C13   C     C_R   0.710286 0.739084 0.950097 0.612169
C14   C     C_2   0.119747 0.017371 0.195562 0.577053
C15   C     C_2   0.514424 0.708261 0.090338 0.599106
C16   C     C_2   0.462025 0.262026 0.823997 0.609384
C17   C     C_2   0.958836 0.819825 0.783380 0.650366
C18   C     C_2   0.200557 0.024168 0.591506 0.591907
C19   C     C_2   0.533201 0.676233 0.556394 0.598282
C20   C     C_2   0.726953 0.561280 0.331941 0.629313
C21   C     C_R   0.830622 0.433344 0.164140 -0.134413
C22   C     C_R   0.825963 0.446679 0.123465 -0.177895
C23   C     C_R   0.769463 0.342590 0.245134 -0.101680
C24   C     C_R   0.760929 0.328879 0.285812 -0.078070
C25   C     C_R   0.740948 0.395384 0.314410 0.080017
C26   C     C_R   0.737058 0.481833 0.302422 0.101915
C27   C     C_R   0.743095 0.492859 0.261083 -0.109240
C28   C     C_R   0.756447 0.422108 0.232314 -0.001561
C29   C     C_R   0.749289 0.427655 0.188608 -0.034453
C30   C     C_R   0.604199 0.332256 0.364563 0.360349
C31   C     C_R   0.593723 0.204904 0.456384 0.548670
C32   C     C_R   0.568397 0.286470 0.399292 -0.097765
C33   C     C_R   0.742972 0.304337 0.414750 -0.104166
C34   C     C_R   0.779246 0.350810 0.380191 0.347560
C35   C     C_R   0.709350 0.362947 0.354388 0.064381
C36   C     C_R   0.636436 0.269232 0.424001 -0.095657
C37   C     C_R   0.244465 0.879783 0.393278 0.002928
C38   C     C_R   0.268077 0.971953 0.377857 -0.144127
C39   C     C_R   0.247631 0.969873 0.336712 -0.103932
C40   C     C_R   0.680450 0.916612 0.661103 0.391643
C41   C     C_R   0.202744 0.875827 0.309977 0.008901
C42   C     C_R   0.171618 0.782332 0.324857 -0.101401
C43   C     C_R   0.294473 0.892400 0.434523 0.573490
C44   C     C_R   0.190054 0.782661 0.366657 0.042459
C45   C     C_R   0.195543 0.805161 0.162682 -0.135363
C46   C     C_R   0.166066 0.782494 0.121045 -0.115864
C47   C     C_R   0.104481 0.909666 0.128243 -0.131478
C48   C     C_R   0.134813 0.934339 0.170516 0.060323
C49   C     C_R   0.175442 0.876519 0.187834 0.015475
C50   C     C_1   0.185720 0.878486 0.231095 0.050306
C51   C     C_R   0.619635 0.811829 0.665845 0.015466
C52   C     C_1   0.192557 0.876720 0.267064 0.031113
C53   C     C_R   0.114594 0.830049 0.103817 -0.003330
C54   C     C_R   0.636406 0.877003 0.395470 -0.039627
C55   C     C_R   0.614749 0.905045 0.551278 0.581535
C56   C     C_R   0.551030 0.797356 0.368715 -0.084601
C57   C     C_R   0.562106 0.782673 0.326987 0.407889
C58   C     C_R   0.659049 0.846688 0.311752 0.041147
C59   C     C_R   0.746598 0.920910 0.338482 -0.177350
C60   C     C_R   0.735500 0.936028 0.380149 -0.136410
C61   C     C_R   0.787660 0.899127 0.176822 -0.113633
C62   C     C_R   0.633199 0.868536 0.588069 -0.051082
C63   C     C_R   0.802459 0.890110 0.135456 -0.131224
C64   C     C_R   0.611245 0.770935 0.119468 0.051106
C65   C     C_R   0.598118 0.780001 0.161448 -0.087205
C66   C     C_R   0.686446 0.841138 0.189885 -0.004942
C67   C     C_R   0.589338 0.198589 0.571159 0.543073
C68   C     C_1   0.674641 0.841384 0.232648 0.013424
C69   C     C_1   0.666987 0.842321 0.268657 0.068799
C70   C     C_R   0.716218 0.822186 0.106519 0.000892
C71   C     C_R   0.620340 0.244745 0.614711 0.013104
C72   C     C_R   0.553127 0.272555 0.637595 -0.108361
C73   C     C_R   0.052848 0.781506 0.063663 0.538682
C74   C     C_R   0.566599 0.290979 0.680137 -0.077040
C75   C     C_R   0.647429 0.282210 0.700255 0.039132
C76   C     C_R   0.719016 0.261363 0.677827 -0.098339
C77   C     C_R   0.705941 0.243179 0.635257 -0.122195
C78   C     C_R   0.754503 0.333757 0.845641 -0.110029
C79   C     C_R   0.287961 0.886641 0.548298 0.566802
C80   C     C_R   0.769045 0.367023 0.887606 -0.095385
C81   C     C_R   0.585824 0.333419 0.887419 -0.075411
C82   C     C_R   0.569496 0.298667 0.845085 0.066938
C83   C     C_R   0.657226 0.304112 0.823968 0.009079
C84   C     C_R   0.744406 0.487715 0.066546 0.554887
C85   C     C_1   0.654633 0.293728 0.780221 0.059377
C86   C     C_1   0.652560 0.288579 0.743749 0.047453
C87   C     C_R   0.686665 0.372472 0.908543 -0.010253
C88   C     C_R   0.073710 0.758152 0.909882 -0.024863
C89   C     C_R   0.108673 0.858426 0.900331 -0.120250
C90   C     C_R   0.134300 0.878096 0.861082 0.418068
C91   C     C_R   0.739119 0.453064 0.106571 0.021147
C92   C     C_R   0.124538 0.797243 0.831087 -0.007917
C93   C     C_R   0.099311 0.700009 0.841290 -0.121152
C94   C     C_R   0.074024 0.680139 0.880579 0.378411
C95   C     C_R   0.742286 0.789782 0.066063 0.567625
C96   C     C_R   0.219615 0.809752 0.769657 -0.082603
C97   C     C_R   0.230281 0.818946 0.728815 0.395837
C98   C     C_R   0.154033 0.829592 0.706143 0.009957
C99   C     C_R   0.068615 0.833604 0.724815 -0.168152
C100  C     C_R   0.055573 0.822592 0.765895 0.080434
C101  C     C_R   0.132984 0.810893 0.788368 -0.014586
C102  C     C_R   0.170733 0.920388 0.646962 -0.105001
C103  C     C_R   0.654302 0.440364 0.130757 0.389040
C104  C     C_R   0.198066 0.933924 0.606998 0.044798
C105  C     C_R   0.201537 0.769394 0.598209 -0.128935
C106  C     C_R   0.022157 0.732343 0.947660 0.575857
C107  C     C_R   0.172343 0.756259 0.637445 -0.066656
C108  C     C_R   0.163306 0.834542 0.662672 0.033101
C109  C     C_R   0.222835 0.861535 0.583524 0.000415
C110  C     C_R   0.659006 0.741401 0.911886 0.034306
C111  C     C_R   0.589986 0.647593 0.885830 0.331993
C112  C     C_R   0.560905 0.649719 0.845937 -0.021885
C113  C     C_R   0.599467 0.744908 0.831615 -0.066496
C114  C     C_R   0.660538 0.838463 0.858526 -0.096258
C115  C     C_R   0.660239 0.428694 0.171402 -0.064338
C116  C     C_R   0.690281 0.837014 0.898338 0.348386
Cr1   Cr    Cr6+3 0.424820 0.846020 0.489780 1.098558
Cr2   Cr    Cr6+3 0.657880 0.078580 0.505700 1.039616
Cr3   Cr    Cr6+3 0.417280 0.075360 0.504550 1.083743
Cr4   Cr    Cr6+3 0.903360 0.812540 0.006510 1.086556
Cr5   Cr    Cr6+3 0.914630 0.587050 0.006280 1.069645
Cr6   Cr    Cr6+3 0.673560 0.582680 0.008540 1.166171
F1    F     F_    0.567686 0.444188 0.116002 -0.584358
F2    F     F_    0.651561 0.625892 0.770005 -0.618877
F3    F     F_    0.534257 0.340740 0.339533 -0.603915
F4    F     F_    0.476826 0.709834 0.301319 -0.589224
F5    F     F_    0.881277 0.380484 0.371080 -0.603464
F6    F     F_    0.041436 0.582521 0.888687 -0.611966
F7    F     F_    0.315559 0.818297 0.711434 -0.647064
F8    F     F_    0.162105 0.973674 0.851679 -0.586231
F9    F     F_    0.557425 0.553496 0.897618 -0.597382
F10   F     F_    0.753989 0.929106 0.922897 -0.585983
F11   F     F_    0.730179 0.992599 0.693965 -0.626978
H1    H     H_    0.485760 0.259427 0.405537 0.168061
H2    H     H_    0.270936 0.042482 0.325488 0.168536
H3    H     H_    0.883176 0.930243 0.126436 0.167809
H4    H     H_    0.856137 0.947545 0.198770 0.162744
H5    H     H_    0.822040 0.970373 0.326905 0.142221
H6    H     H_    0.802696 0.997765 0.399983 0.166393
H7    H     H_    0.473645 0.750840 0.379587 0.174650
H8    H     H_    0.519376 0.738476 0.172163 0.178924
H9    H     H_    0.847531 0.396065 0.903014 0.197459
H10   H     H_    0.821719 0.337496 0.829680 0.154869
H11   H     H_    0.782129 0.254877 0.693200 0.150656
H12   H     H_    0.899619 0.431809 0.176964 0.146016
H13   H     H_    0.758821 0.221595 0.618596 0.137240
H14   H     H_    0.486354 0.274179 0.622763 0.162337
H15   H     H_    0.521352 0.335362 0.903665 0.212145
H16   H     H_    0.511166 0.307682 0.697327 0.162162
H17   H     H_    0.110652 0.920068 0.922649 0.172019
H18   H     H_    0.163089 0.687736 0.649002 0.154588
H19   H     H_    0.763926 0.262469 0.294591 0.143980
H20   H     H_    0.278934 0.801251 0.786827 0.137863
H21   H     H_    0.009936 0.840948 0.706707 0.164288
H22   H     H_    0.158528 0.978267 0.666358 0.168443
H23   H     H_    0.797266 0.292467 0.433450 0.168435
H24   H     H_    0.093142 0.637775 0.818168 0.151076
H25   H     H_    0.215521 0.710484 0.580630 0.157996
H26   H     H_    0.779982 0.287528 0.223265 0.131804
H27   H     H_    0.542719 0.891619 0.726631 0.208831
H28   H     H_    0.531432 0.861132 0.797378 0.135274
H29   H     H_    0.512243 0.576848 0.825657 0.199748
H30   H     H_    0.654767 0.669357 0.696901 0.140864
H31   H     H_    0.530403 0.653301 0.635193 0.166682
H32   H     H_    0.690831 0.912817 0.847989 0.164909
H33   H     H_    0.595716 0.422093 0.189781 0.169462
H34   H     H_    0.176228 0.721741 0.102894 0.154175
H35   H     H_    0.728552 0.026670 0.620245 0.154295
H36   H     H_    0.736711 0.556310 0.250939 0.159331
H37   H     H_    0.086914 0.597835 0.426815 0.366806
H38   H     H_    0.147479 0.111370 0.249496 0.356822
H39   H     H_    0.360136 0.594663 0.080902 0.352149
H40   H     H_    0.317613 0.254670 0.826662 0.371198
H41   H     H_    0.843799 0.861208 0.780535 0.358619
H42   H     H_    0.232896 0.174012 0.603915 0.345297
H43   H     H_    0.426455 0.525902 0.535003 0.350054
H44   H     H_    0.692047 0.678804 0.340739 0.350281
H45   H     H_    0.228058 0.761804 0.175682 0.139627
H46   H     H_    0.133162 0.709305 0.303803 0.157104
H47   H     H_    0.308871 0.047562 0.397123 0.149704
H48   H     H_    0.066759 0.947938 0.114769 0.162201
H49   H     H_    0.892383 0.456174 0.105768 0.151727
O1    O     O_R   0.318160 0.824460 0.443680 -0.477024
O2    O     O_R   0.668160 0.499860 0.053480 -0.426683
O3    O     O_R   0.689170 0.693840 0.050110 -0.465143
O4    O     O_R   0.525040 0.857250 0.449830 -0.491096
O5    O     O_R   0.803860 0.812940 0.962540 -0.444069
O6    O     O_R   0.982950 0.787950 0.964120 -0.512213
O7    O     O_R   0.007050 0.649970 0.960540 -0.431464
O8    O     O_R   0.807910 0.482370 0.965590 -0.495713
O9    O     O_R   0.643310 0.460980 0.963840 -0.469829
O10   O     O_R   0.666140 0.657800 0.967020 -0.438014
O11   O     O_3   0.830520 0.660760 0.007110 -0.289942
O12   O     O_R   0.645130 0.163230 0.552140 -0.506418
O13   O     O_R   0.684760 0.998800 0.456360 -0.505770
O14   O     O_R   0.647540 0.166310 0.470260 -0.499852
O15   O     O_R   0.500960 0.181750 0.467450 -0.510413
O16   O     O_R   0.331100 0.981120 0.457080 -0.500525
O17   O     O_R   0.315560 0.821140 0.532010 -0.511282
O18   O     O_R   0.522630 0.854180 0.531710 -0.463671
O19   O     O_R   0.682160 0.995480 0.544690 -0.515791
O20   O     O_2   0.142486 0.605425 0.358885 -0.450903
O21   O     O_R   0.114292 0.671040 0.420559 -0.654918
O22   O     O_2   0.070856 0.054911 0.180415 -0.536145
O23   O     O_R   0.498360 0.178430 0.555780 -0.499017
O24   O     O_R   0.163193 0.054957 0.236083 -0.684726
O25   O     O_2   0.515007 0.725779 0.055399 -0.494649
O26   O     O_R   0.420922 0.631119 0.103293 -0.671584
O27   O     O_2   0.437083 0.211064 0.789671 -0.493884
O28   O     O_R   0.387887 0.284176 0.843892 -0.641505
O29   O     O_2   0.921631 0.774180 0.812151 -0.475302
O30   O     O_R   0.908294 0.867732 0.766033 -0.663888
O31   O     O_2   0.168367 0.015160 0.556182 -0.488352
O32   O     O_R   0.235620 0.118529 0.617879 -0.700125
O33   O     O_2   0.566930 0.691105 0.522883 -0.486870
O34   O     O_R   0.328690 0.978040 0.538950 -0.459847
O35   O     O_R   0.451634 0.577545 0.561369 -0.700320
O36   O     O_2   0.749071 0.570852 0.368465 -0.479305
O37   O     O_R   0.694640 0.627518 0.317817 -0.675621
O38   O     O_3   0.499990 0.999990 0.500010 -0.271762
O39   O     O_R   0.828710 0.851830 0.052170 -0.513099
O40   O     O_R   0.005980 0.823990 0.047210 -0.506024
O41   O     O_R   0.031900 0.688850 0.050170 -0.514622
O42   O     O_R   0.830940 0.518420 0.048680 -0.522316

loop_
_geom_bond_atom_site_label_1
_geom_bond_atom_site_label_2
_ccdc_geom_bond_type
C22   C91   A    
C66   C68   S    
C99   H21   S    
C75   C76   A    
C93   C94   A    
C13   O5    A    
C61   H4    S    
Cr3   O16   S    
C41   C42   A    
H40   O28   S    
C9    C51   A    
C71   C77   A    
C7    F2    S    
C47   H48   S    
C11   C62   A    
C103  F1    S    
C81   C82   A    
C33   H23   S    
C7    C8    A    
C39   C41   A    
C54   C60   A    
C85   C86   T    
C105  C107  A    
C26   C27   A    
Cr4   O39   S    
C13   O10   A    
C30   C35   A    
H41   O30   S    
C32   C36   A    
C28   C29   S    
C1    O13   A    
C80   C87   A    
Cr1   O4    S    
Cr5   O7    S    
C5    C6    A    
C56   H7    S    
C98   C99   A    
C78   C80   A    
C55   O19   A    
C55   C62   S    
Cr4   O6    S    
C33   C36   A    
C98   C108  S    
C56   C57   A    
C46   C53   A    
Cr1   O38   S    
C34   C35   A    
C12   O21   S    
C61   C63   A    
C110  C111  A    
C92   C93   A    
C24   H19   S    
C78   C83   A    
C99   C100  A    
C68   C69   T    
C14   O22   D    
C47   C48   A    
C50   C52   T    
C15   C64   S    
C74   H16   S    
C102  C108  A    
C19   O35   S    
C84   C91   S    
C64   C70   A    
C67   O12   A    
Cr2   O14   S    
C9    C10   A    
C27   H36   S    
C41   C52   S    
C67   C71   S    
C15   O26   S    
C67   O23   A    
C47   C53   A    
C107  H18   S    
C88   C89   A    
C17   O30   S    
Cr6   O2    S    
C29   C115  A    
C30   F3    S    
Cr3   O34   S    
C21   C22   A    
C10   C62   A    
C90   F8    S    
C18   O32   S    
C32   H1    S    
C42   C44   A    
H44   O37   S    
C61   C66   A    
Cr5   O11   S    
C112  C113  A    
C97   C98   A    
C54   C56   A    
C96   H20   S    
C38   C39   A    
C88   C94   A    
C79   O17   A    
C46   H34   S    
C79   C109  S    
H42   O32   S    
Cr6   O9    S    
C38   H47   S    
C24   C25   A    
C77   H13   S    
C72   C74   A    
C3    C8    A    
C84   O42   A    
C57   F4    S    
C73   O41   A    
C31   O14   A    
C34   F5    S    
Cr6   O3    S    
C39   H2    S    
C59   H5    S    
C17   O29   D    
C25   C26   A    
C45   C46   A    
C21   C29   A    
C23   H26   S    
H38   O24   S    
C42   H46   S    
C21   H12   S    
C37   C43   S    
C9    H31   S    
C103  C115  A    
C1    C54   S    
C37   C38   A    
H39   O26   S    
C88   C106  S    
C75   C86   S    
C90   C92   A    
C55   O18   A    
C116  F10   S    
C63   C70   A    
C84   O2    A    
C10   C19   S    
C23   C24   A    
C81   H15   S    
C96   C97   A    
C16   C82   S    
C45   C49   A    
Cr5   O41   S    
C2    C87   S    
C95   O39   A    
C23   C28   A    
C76   C77   A    
C115  H33   S    
C93   H24   S    
Cr2   O13   S    
C13   C110  S    
H37   O21   S    
C81   C87   A    
Cr1   O18   S    
C8    C113  S    
C25   C35   S    
Cr3   O23   S    
C45   H45   S    
C111  F9    S    
C79   O34   A    
C83   C85   S    
C82   C83   A    
C80   H9    S    
H43   O35   S    
C14   O24   S    
Cr2   O38   S    
C11   H35   S    
C20   O37   S    
Cr2   O19   S    
C107  C108  A    
C3    C4    A    
C40   C51   A    
Cr4   O5    S    
C110  C116  A    
C74   C75   A    
C31   O15   A    
C95   O3    A    
C114  H32   S    
C113  C114  A    
C73   O40   A    
C105  C109  A    
C89   H17   S    
Cr4   O40   S    
C22   H49   S    
C111  C112  A    
Cr3   O15   S    
C20   O36   D    
C53   C73   S    
C2    O8    A    
C18   C104  S    
C91   C103  A    
C4    C5    A    
C76   H11   S    
Cr1   O17   S    
C4    H27   S    
C114  C116  A    
Cr1   O1    S    
C58   C69   S    
Cr6   O10   S    
C6    C7    A    
C94   F6    S    
C72   H14   S    
C112  H29   S    
C40   F11   S    
Cr4   O11   S    
C102  C104  A    
C63   H3    S    
C37   C44   A    
C16   O28   S    
C70   C95   S    
C58   C59   A    
C97   F7    S    
C12   O20   D    
C12   C44   S    
C105  H25   S    
C78   H10   S    
C65   H8    S    
C30   C32   A    
C1    O4    A    
C57   C58   A    
C104  C109  A    
C20   C26   S    
C92   C101  S    
Cr5   O8    S    
C48   C49   A    
C102  H22   S    
C64   C65   A    
C43   O1    A    
C100  C101  A    
Cr5   O42   S    
C33   C34   A    
C43   O16   A    
C19   O33   D    
C65   C66   A    
C11   C40   A    
Cr2   O12   S    
C17   C100  S    
C3    H28   S    
C60   H6    S    
C106  O6    A    
C18   O31   D    
C59   C60   A    
C71   C72   A    
C6    H30   S    
C16   O27   D    
C49   C50   S    
C27   C28   A    
C14   C48   S    
C31   C36   S    
C5    C51   S    
Cr6   O11   S    
C106  O7    A    
C89   C90   A    
C96   C101  A    
C2    O9    A    
Cr3   O38   S    
C15   O25   D    
