data_mof_unit_37500.cif
_audit_creation_date              2012-12-10T17:23:34-0500
_audit_creation_method            fapswitch 2.2
_symmetry_space_group_name_H-M    P1
_symmetry_Int_Tables_number       1
_space_group_crystal_system       triclinic
_cell_length_a                    10.208389
_cell_length_b                    10.501424
_cell_length_c                    15.639194
_cell_angle_alpha                 91.654205
_cell_angle_beta                  84.743647
_cell_angle_gamma                 93.752456
_cell_volume                      1665.49166029

loop_
_atom_site_label
_atom_site_type_symbol
_atom_type_description
_atom_site_fract_x
_atom_site_fract_y
_atom_site_fract_z
_atom_type_partial_charge
C1    C     C_R   0.553207 0.733910 0.499821 0.931081
C2    C     C_R   0.448259 0.266786 0.512819 0.926240
C3    C     C_2   0.502661 0.933679 0.575982 0.111486
C4    C     C_2   0.520549 0.072421 0.574651 0.126242
C5    C     C_2   0.926612 0.472420 0.523653 0.056131
C6    C     C_2   0.071950 0.471614 0.498993 0.132960
C7    C     C_R   0.504021 0.503067 0.661549 0.872174
C8    C     C_R   0.496101 0.498274 0.338361 0.908637
C9    C     C_3   0.467681 0.623350 0.036159 0.540389
C10   C     C_3   0.528076 0.401556 0.963747 0.537871
C11   C     C_3   0.593588 0.602661 0.977058 0.024788
C12   C     C_3   0.402241 0.422314 0.022747 0.023533
C13   C     C_1   0.513072 0.514217 0.749815 -0.191323
C14   C     C_1   0.487537 0.496125 0.249799 -0.188262
C15   C     C_3   0.380379 0.545263 0.975118 -0.399939
C16   C     C_3   0.615610 0.479578 0.024470 -0.397011
C17   C     C_3   0.507835 0.523338 0.916565 0.016192
C18   C     C_3   0.488231 0.501509 0.083248 0.017227
C19   C     C_1   0.514520 0.522537 0.825180 -0.001569
C20   C     C_1   0.484189 0.496232 0.174459 0.000606
C21   C     C_2   0.577072 0.869693 0.514893 -0.431288
C22   C     C_2   0.428403 0.133370 0.536719 -0.437062
H1    H     H_    0.709784 0.452356 0.046897 0.151298
H2    H     H_    0.286498 0.572341 0.952181 0.151229
H3    H     H_    0.338417 0.081148 0.520119 0.152479
H4    H     H_    0.653757 0.920037 0.473548 0.146779
H5    H     H_    0.120633 0.629132 0.567749 0.139217
H6    H     H_    0.879579 0.450597 0.402108 0.165250
N1    N     N_2   0.842700 0.448880 0.465440 -0.226655
N2    N     N_2   0.157300 0.551120 0.534560 -0.219316
O1    O     O_R   0.431060 0.692470 0.506960 -0.604402
O2    O     O_R   0.568940 0.307530 0.493040 -0.609210
O3    O     O_R   0.651120 0.659650 0.484770 -0.600882
O4    O     O_R   0.348880 0.340350 0.515230 -0.615660
O5    O     O_R   0.389990 0.516420 0.634310 -0.607153
O6    O     O_R   0.610010 0.483580 0.365690 -0.603943
O7    O     O_R   0.610050 0.483600 0.612130 -0.646267
O8    O     O_R   0.389950 0.516400 0.387870 -0.627307
Zn1   Zn    Zn3+2 0.353060 0.521920 0.514810 0.910121
Zn2   Zn    Zn3+2 0.646940 0.478080 0.485190 0.905116
C23   C     C_3   0.702811 0.702769 0.948174 -0.413263
C24   C     C_3   0.767032 0.766344 0.024740 -0.297253
C25   C     C_3   0.889623 0.850360 0.994945 -0.928813
H7    H     H_    0.965890 0.791238 0.961546 0.263740
H8    H     H_    0.864950 0.923960 0.950514 0.267113
H9    H     H_    0.930975 0.899022 0.051402 0.257312
H10   H     H_    0.695390 0.825749 0.062623 0.246137
H11   H     H_    0.796497 0.692278 0.067302 0.227153
H12   H     H_    0.778295 0.654232 0.906327 0.209090
H13   H     H_    0.661923 0.775773 0.910002 0.188356
C26   C     C_3   0.291213 0.323748 0.051536 -0.405137
C27   C     C_3   0.226668 0.262069 0.974357 -0.300674
C28   C     C_3   0.102940 0.179030 0.003010 -0.934424
H14   H     H_    0.126068 0.104465 0.047195 0.267139
H15   H     H_    0.027035 0.238689 0.036244 0.262618
H16   H     H_    0.061982 0.131594 0.945992 0.257007
H17   H     H_    0.198534 0.337148 0.932079 0.225911
H18   H     H_    0.297773 0.202257 0.936281 0.245961
H19   H     H_    0.331062 0.249357 0.089066 0.187914
H20   H     H_    0.216527 0.373091 0.094290 0.210765
O9    O     O_3   0.438080 0.736358 0.082820 -0.610391
C29   C     C_3   0.383495 0.820775 0.029558 0.096897
H21   H     H_    0.282898 0.784149 0.015298 0.147743
H22   H     H_    0.446339 0.835304 0.968227 0.134083
C30   C     C_3   0.372271 0.948983 0.076198 -0.853112
H23   H     H_    0.469234 0.983471 0.097812 0.255620
H24   H     H_    0.340368 0.019265 0.032144 0.219779
H25   H     H_    0.298928 0.939990 0.133039 0.257774
O10   O     O_3   0.557230 0.288803 0.916614 -0.619284
C31   C     C_3   0.609494 0.202766 0.969752 0.099801
H26   H     H_    0.546349 0.189272 0.031067 0.134409
H27   H     H_    0.710782 0.237187 0.983955 0.147032
C32   C     C_3   0.617285 0.074381 0.922962 -0.879324
H28   H     H_    0.691379 0.081664 0.866573 0.260752
H29   H     H_    0.646619 0.002801 0.967001 0.225158
H30   H     H_    0.519825 0.042664 0.900898 0.259303
C33   C     C_3   0.645406 0.137509 0.607988 -0.354558
C34   C     C_3   0.724800 0.048272 0.657340 -0.379344
C35   C     C_3   0.844180 0.118891 0.692323 -0.919218
H31   H     H_    0.909525 0.162960 0.639190 0.256820
H32   H     H_    0.811688 0.193252 0.739636 0.281695
H33   H     H_    0.900669 0.050898 0.725046 0.254656
H34   H     H_    0.661812 0.005010 0.711842 0.227436
H35   H     H_    0.761434 0.970269 0.613975 0.232304
H36   H     H_    0.712362 0.174187 0.553006 0.217841
H37   H     H_    0.616469 0.218549 0.651432 0.208467
C36   C     C_3   0.403726 0.868699 0.643070 -0.358191
C37   C     C_3   0.354058 0.957295 0.717613 -0.365755
C38   C     C_3   0.268927 0.882438 0.786848 -0.921445
H38   H     H_    0.181885 0.833483 0.759477 0.265420
H39   H     H_    0.327083 0.810338 0.814350 0.256253
H40   H     H_    0.233939 0.948824 0.839373 0.255608
H41   H     H_    0.438374 0.006583 0.747584 0.230630
H42   H     H_    0.294351 0.030760 0.693088 0.230511
H43   H     H_    0.316391 0.828909 0.611486 0.218169
H44   H     H_    0.451872 0.789225 0.670595 0.194551
C39   C     C_3   0.113022 0.367394 0.433965 -0.328114
C40   C     C_3   0.074485 0.233311 0.468686 -0.362709
C41   C     C_3   0.120867 0.129752 0.404561 -0.899800
H45   H     H_    0.072708 0.135852 0.344059 0.262420
H46   H     H_    0.229489 0.140357 0.389858 0.257867
H47   H     H_    0.094314 0.034325 0.432241 0.253436
H48   H     H_    0.118308 0.221605 0.530217 0.233773
H49   H     H_    0.965631 0.219828 0.481259 0.216258
H50   H     H_    0.066992 0.377952 0.373363 0.142693
H51   H     H_    0.216968 0.374817 0.411970 0.261809
C42   C     C_3   0.876756 0.477387 0.618269 -0.338816
C43   C     C_3   0.975592 0.457770 0.685084 -0.416153
C44   C     C_3   0.907456 0.463594 0.776032 -0.885433
H52   H     H_    0.881138 0.562874 0.791147 0.251388
H53   H     H_    0.816056 0.400247 0.782730 0.280165
H54   H     H_    0.975352 0.435545 0.822775 0.255084
H55   H     H_    0.019681 0.364259 0.673307 0.233852
H56   H     H_    0.055852 0.533506 0.683717 0.234625
H57   H     H_    0.831440 0.569856 0.632526 0.221012
H58   H     H_    0.803554 0.395317 0.627827 0.242106

loop_
_geom_bond_atom_site_label_1
_geom_bond_atom_site_label_2
_ccdc_geom_bond_type
C36   C37   S    
C1    C21   S    
C23   C24   S    
C21   H4    S    
C39   C40   S    
C1    O3    A    
C28   H14   S    
C9    O9    S    
H6    N1    S    
O7    Zn2   S    
C44   H53   S    
C8    O6    A    
C5    C6    S    
C10   C17   S    
C40   H48   S    
C1    O1    A    
C43   C44   S    
C2    O2    A    
C32   H28   S    
C43   H56   S    
C29   H22   S    
C34   H34   S    
C30   H24   S    
C22   H3    S    
C36   H43   S    
C2    C22   S    
C42   C43   S    
C31   H26   S    
C38   H39   S    
C39   H50   S    
C2    O4    A    
C33   H36   S    
H5    N2    S    
C32   H29   S    
O9    C29   S    
C8    O8    A    
C10   C12   S    
C23   H12   S    
C5    N1    D    
C28   H15   S    
C37   H42   S    
O3    Zn2   S    
C13   C19   T    
C3    C36   S    
C26   C27   S    
C6    C39   S    
C14   C20   T    
O6    Zn2   S    
C44   H54   S    
C35   H32   S    
C34   C35   S    
C33   C34   S    
O4    Zn1   S    
C43   H55   S    
O5    Zn1   S    
C25   H7    S    
C29   H21   S    
C4    C22   D    
C11   C16   S    
C41   H45   S    
C12   C15   S    
C30   H25   S    
C36   H44   S    
C31   C32   S    
C7    O7    A    
C24   H11   S    
C38   H40   S    
C25   H8    S    
C42   H57   S    
C27   H18   S    
C39   H51   S    
C15   H2    S    
C6    N2    D    
C33   H37   S    
C30   H23   S    
C16   H1    S    
C9    C11   S    
C32   H30   S    
C3    C21   D    
C26   H19   S    
C24   C25   S    
C3    C4    S    
C23   H13   S    
C12   C26   S    
C27   C28   S    
C5    C42   S    
C28   H16   S    
C15   C17   S    
C37   H41   S    
C11   C17   S    
C8    C14   S    
C29   C30   S    
C41   H46   S    
C7    O5    A    
C35   H33   S    
C9    C15   S    
C4    C33   S    
C10   C16   S    
C44   H52   S    
O8    Zn1   S    
C40   H49   S    
N1    Zn2   S    
C17   C19   S    
O1    Zn1   S    
N2    Zn1   S    
C11   C23   S    
C18   C20   S    
C24   H10   S    
O2    Zn2   S    
O10   C31   S    
C25   H9    S    
C42   H58   S    
C27   H17   S    
C35   H31   S    
C10   O10   S    
C34   H35   S    
C9    C18   S    
C7    C13   S    
C41   H47   S    
C37   C38   S    
C16   C18   S    
C40   C41   S    
C12   C18   S    
C31   H27   S    
C26   H20   S    
C38   H38   S    
