data_mof_unit_38975.cif
_audit_creation_date              2012-12-10T18:09:27-0500
_audit_creation_method            fapswitch 2.2
_symmetry_space_group_name_H-M    P1
_symmetry_Int_Tables_number       1
_space_group_crystal_system       triclinic
_cell_length_a                    15.58976
_cell_length_b                    15.213086
_cell_length_c                    10.653131
_cell_angle_alpha                 89.439761
_cell_angle_beta                  90.95817
_cell_angle_gamma                 90.27358
_cell_volume                      2526.08467838

loop_
_atom_site_label
_atom_site_type_symbol
_atom_type_description
_atom_site_fract_x
_atom_site_fract_y
_atom_site_fract_z
_atom_type_partial_charge
C1    C     C_R   0.117574 0.380972 0.500386 0.736927
C2    C     C_R   0.119016 0.617430 0.499270 0.721775
C3    C     C_R   0.618421 0.882213 0.501971 0.757176
C4    C     C_R   0.620077 0.116175 0.500562 0.758236
C5    C     C_3   0.093303 0.523186 0.079636 -0.204614
C6    C     C_3   0.093726 0.493731 0.926127 -0.249323
C7    C     C_3   0.595736 0.005652 0.080801 -0.205815
C8    C     C_3   0.595187 0.989487 0.918599 -0.237375
C9    C     C_R   0.883575 0.379652 0.500855 0.737748
C10   C     C_R   0.881635 0.618752 0.500232 0.745944
C11   C     C_R   0.384503 0.878842 0.499545 0.752064
C12   C     C_R   0.380792 0.117533 0.499914 0.746820
C13   C     C_3   0.853071 0.213625 0.540716 -0.357078
C14   C     C_3   0.771595 0.298140 0.378001 -0.373692
C15   C     C_3   0.832967 0.764277 0.600313 -0.307979
C16   C     C_3   0.799987 0.737266 0.380051 -0.306678
C17   C     C_3   0.308968 0.756448 0.622720 -0.334332
C18   C     C_3   0.337486 0.730063 0.406228 -0.362175
C19   C     C_3   0.292399 0.222632 0.633196 -0.381377
C20   C     C_3   0.333400 0.268220 0.422317 -0.336538
C21   C     C_3   0.231769 0.695920 0.624420 -0.346666
C22   C     C_3   0.265151 0.659370 0.406086 -0.349508
C23   C     C_3   0.222274 0.291962 0.631698 -0.345747
C24   C     C_3   0.264214 0.339970 0.421410 -0.367268
C25   C     C_3   0.781672 0.141678 0.535885 -0.405009
C26   C     C_3   0.704164 0.225836 0.374780 -0.376360
C27   C     C_3   0.764738 0.838184 0.596696 -0.366642
C28   C     C_3   0.728219 0.804257 0.379712 -0.374666
C29   C     C_3   0.746207 0.325557 0.601581 -0.370632
C30   C     C_3   0.721934 0.648651 0.535687 -0.397821
C31   C     C_3   0.228632 0.846992 0.459243 -0.402674
C32   C     C_3   0.220822 0.146928 0.460704 -0.406859
C33   C     C_3   0.815961 0.306034 0.505461 0.118660
C34   C     C_3   0.811024 0.689640 0.505283 0.089420
C35   C     C_3   0.316572 0.805768 0.496706 0.116557
C36   C     C_3   0.309013 0.186630 0.501642 0.135249
C37   C     C_3   0.190763 0.685825 0.494904 0.117850
C38   C     C_3   0.186802 0.309976 0.499359 0.114987
C39   C     C_3   0.692878 0.183273 0.503174 0.121686
C40   C     C_3   0.688515 0.812766 0.508202 0.099940
C41   C     C_3   0.155792 0.777953 0.458290 -0.357985
C42   C     C_3   0.152487 0.220325 0.447688 -0.333459
C43   C     C_3   0.672657 0.258574 0.594009 -0.340739
C44   C     C_3   0.652851 0.721076 0.547768 -0.340129
C45   C     C_3   0.942683 0.575926 0.078480 0.065063
C46   C     C_3   0.955400 0.587135 0.916978 0.104984
C47   C     C_3   0.971358 0.407520 0.083660 0.080216
C48   C     C_3   0.956321 0.412617 0.919444 0.048379
C49   C     C_3   0.451410 0.084257 0.078556 0.109083
C50   C     C_3   0.463653 0.090080 0.917319 0.087924
C51   C     C_3   0.457188 0.913256 0.085549 0.077721
C52   C     C_3   0.444624 0.918645 0.921201 0.088383
Cu1   Cu    Cu3+1 0.000100 0.500000 0.642410 1.103354
Cu2   Cu    Cu3+1 0.000100 0.500000 0.357590 1.119793
Cu3   Cu    Cu3+1 0.500100 0.000000 0.642410 1.102907
Cu4   Cu    Cu3+1 0.500100 0.000000 0.357590 1.097080
H1    H     H_    0.879517 0.213532 0.636988 0.234653
H2    H     H_    0.741214 0.361713 0.350773 0.222397
H3    H     H_    0.837219 0.738707 0.696624 0.257367
H4    H     H_    0.780591 0.690226 0.309628 0.282417
H5    H     H_    0.301160 0.799452 0.700228 0.272655
H6    H     H_    0.347009 0.754921 0.312245 0.252472
H7    H     H_    0.263903 0.169762 0.687661 0.234438
H8    H     H_    0.340991 0.248129 0.326441 0.291939
H9    H     H_    0.905873 0.195696 0.477812 0.162139
H10   H     H_    0.822117 0.277849 0.314989 0.231716
H11   H     H_    0.895978 0.794016 0.577132 0.164116
H12   H     H_    0.860138 0.772696 0.358406 0.238357
H13   H     H_    0.366425 0.715200 0.640555 0.208818
H14   H     H_    0.399106 0.698371 0.434436 0.164610
H15   H     H_    0.351193 0.248848 0.678902 0.232564
H16   H     H_    0.394831 0.296605 0.458149 0.140444
H17   H     H_    0.253884 0.630505 0.656408 0.179686
H18   H     H_    0.292348 0.595269 0.438078 0.158435
H19   H     H_    0.249592 0.353354 0.672296 0.236673
H20   H     H_    0.291549 0.402124 0.459733 0.152803
H21   H     H_    0.798155 0.091998 0.464240 0.186751
H22   H     H_    0.728130 0.173946 0.312223 0.238360
H23   H     H_    0.794683 0.900706 0.563719 0.172418
H24   H     H_    0.757264 0.868517 0.356918 0.205725
H25   H     H_    0.184200 0.726154 0.687131 0.275006
H26   H     H_    0.243678 0.649463 0.308756 0.239833
H27   H     H_    0.168372 0.264065 0.686353 0.266096
H28   H     H_    0.245453 0.353489 0.323035 0.263854
H29   H     H_    0.781088 0.105111 0.624748 0.200425
H30   H     H_    0.643049 0.254832 0.340921 0.222856
H31   H     H_    0.744732 0.851255 0.692468 0.249467
H32   H     H_    0.678556 0.785121 0.309479 0.274113
H33   H     H_    0.774831 0.317402 0.696271 0.256335
H34   H     H_    0.720818 0.393263 0.587693 0.159777
H35   H     H_    0.723036 0.607915 0.621645 0.232365
H36   H     H_    0.702404 0.603127 0.459068 0.157910
H37   H     H_    0.212968 0.900093 0.526053 0.166864
H38   H     H_    0.231486 0.877731 0.364971 0.224403
H39   H     H_    0.199108 0.098344 0.532452 0.167628
H40   H     H_    0.223242 0.106751 0.376212 0.209609
H41   H     H_    0.106605 0.798612 0.525436 0.149734
H42   H     H_    0.121978 0.778651 0.367202 0.226713
H43   H     H_    0.093368 0.200267 0.497816 0.166347
H44   H     H_    0.136219 0.225207 0.347563 0.262232
H45   H     H_    0.662195 0.232025 0.689025 0.278108
H46   H     H_    0.613858 0.293279 0.560749 0.156361
H47   H     H_    0.630091 0.722048 0.645220 0.227229
H48   H     H_    0.596209 0.703118 0.489586 0.149610
N1    N     N_3   0.001260 0.500000 0.143650 -0.288311
N2    N     N_3   0.001260 0.500000 0.856350 -0.283133
N3    N     N_3   0.501260 0.000000 0.143650 -0.314956
N4    N     N_3   0.501260 1.000000 0.856350 -0.297528
O1    O     O_R   0.091250 0.408820 0.620260 -0.510286
O2    O     O_R   0.091250 0.408820 0.379740 -0.451775
O3    O     O_R   0.091250 0.591180 0.620260 -0.512403
O4    O     O_R   0.091250 0.591180 0.379740 -0.471700
O5    O     O_R   0.591250 0.908820 0.620260 -0.488800
O6    O     O_R   0.591250 0.908820 0.379740 -0.513903
O7    O     O_R   0.591250 0.091180 0.620260 -0.514271
O8    O     O_R   0.591250 0.091180 0.379740 -0.478355
O9    O     O_R   0.908940 0.408800 0.620260 -0.489591
O10   O     O_R   0.908940 0.408800 0.379740 -0.515268
O11   O     O_R   0.908940 0.591200 0.620260 -0.481577
O12   O     O_R   0.908940 0.591200 0.379740 -0.476811
O13   O     O_R   0.408940 0.908800 0.620260 -0.479633
O14   O     O_R   0.408940 0.908800 0.379740 -0.532764
O15   O     O_R   0.408940 0.091200 0.620260 -0.502131
O16   O     O_R   0.408940 0.091200 0.379740 -0.476435
S1    S     S_3+6 0.949159 0.693373 0.149873 0.074445
O17   O     O_2   0.979468 0.701163 0.282471 -0.269082
O18   O     O_2   0.006194 0.760202 0.090703 -0.206242
O19   O     O_3   0.852829 0.741537 0.140504 -0.519320
H49   H     H_    0.861328 0.797064 0.093177 0.419996
S2    S     S_3+6 0.000313 0.698646 0.854623 0.079092
O20   O     O_2   0.940320 0.773770 0.879528 -0.259922
O21   O     O_2   0.084620 0.731989 0.903978 -0.183280
O22   O     O_3   0.006966 0.705971 0.699747 -0.532743
H50   H     H_    0.023393 0.767855 0.683427 0.335290
S3    S     S_3+6 0.034518 0.313241 0.160939 0.062606
O23   O     O_2   0.025792 0.225298 0.099885 -0.192519
O24   O     O_2   0.126943 0.327879 0.186382 -0.290549
O25   O     O_3   0.993808 0.289427 0.302696 -0.569134
H51   H     H_    0.982087 0.225417 0.305218 0.341225
S4    S     S_3+6 0.981762 0.298227 0.848736 0.067001
O26   O     O_2   0.993537 0.299088 0.710938 -0.309123
O27   O     O_2   0.060090 0.249737 0.893481 -0.239124
O28   O     O_3   0.900696 0.226890 0.874152 -0.476757
H52   H     H_    0.923252 0.168109 0.853382 0.375196
S5    S     S_3+6 0.465346 0.203859 0.145451 0.115136
O29   O     O_2   0.528367 0.267433 0.090940 -0.169547
O30   O     O_2   0.383642 0.254681 0.125278 -0.240494
O31   O     O_3   0.491222 0.208800 0.297689 -0.513156
H53   H     H_    0.499128 0.272143 0.315527 0.324298
S6    S     S_3+6 0.510597 0.197911 0.853208 0.063463
O32   O     O_2   0.457261 0.276489 0.886748 -0.195768
O33   O     O_2   0.597762 0.222865 0.899070 -0.217146
O34   O     O_3   0.507110 0.206509 0.697184 -0.569864
H54   H     H_    0.497352 0.269358 0.676626 0.329274
S7    S     S_3+6 0.508895 0.807262 0.148014 0.056985
O35   O     O_2   0.458993 0.726253 0.110764 -0.191008
O36   O     O_2   0.597622 0.791437 0.104900 -0.249478
O37   O     O_3   0.507788 0.793114 0.302788 -0.569123
H55   H     H_    0.524426 0.731051 0.316565 0.337120
S8    S     S_3+6 0.458467 0.800971 0.857592 0.069189
O38   O     O_2   0.479123 0.796225 0.722066 -0.304657
O39   O     O_2   0.524680 0.740363 0.912651 -0.187183
O40   O     O_3   0.366567 0.744629 0.882131 -0.489148
H56   H     H_    0.380254 0.681968 0.868414 0.378985
C53   C     C_2   0.845160 0.553927 0.106393 0.945343
O41   O     O_2   0.795824 0.522538 0.028740 -0.627054
O42   O     O_R   0.809241 0.564750 0.222529 -0.684658
H57   H     H_    0.746069 0.548334 0.226628 0.339211
C54   C     C_2   0.862106 0.619432 0.872026 0.966920
O43   O     O_2   0.821341 0.595489 0.783464 -0.592191
O44   O     O_R   0.818648 0.683051 0.939316 -0.682592
H58   H     H_    0.757640 0.694578 0.909485 0.352285
C55   C     C_2   0.887070 0.364369 0.131941 0.965814
O45   O     O_2   0.831395 0.403007 0.185053 -0.615497
O46   O     O_R   0.869737 0.275073 0.105043 -0.630306
H59   H     H_    0.808047 0.256304 0.117608 0.354539
C56   C     C_2   0.857401 0.407229 0.881234 0.930523
O47   O     O_2   0.807405 0.355319 0.928694 -0.519451
O48   O     O_R   0.822042 0.449946 0.780618 -0.701180
H60   H     H_    0.756724 0.450711 0.780481 0.344163
C57   C     C_2   0.351848 0.078561 0.108757 0.926273
O49   O     O_2   0.300250 0.041679 0.040690 -0.614356
O50   O     O_R   0.313795 0.122831 0.206020 -0.678519
H61   H     H_    0.251015 0.136057 0.187178 0.349065
C58   C     C_2   0.374131 0.118861 0.868448 0.913979
O51   O     O_2   0.332323 0.075482 0.799800 -0.596302
O52   O     O_R   0.330758 0.191017 0.917584 -0.687802
H62   H     H_    0.267280 0.190480 0.895663 0.331870
C59   C     C_2   0.367913 0.887709 0.144317 0.964108
O53   O     O_2   0.325243 0.935928 0.208007 -0.594878
O54   O     O_R   0.328797 0.806538 0.116195 -0.633890
H63   H     H_    0.267932 0.801359 0.147271 0.341222
C60   C     C_2   0.342454 0.920160 0.880719 1.005755
O55   O     O_2   0.284841 0.897635 0.949090 -0.508015
O56   O     O_R   0.309043 0.933737 0.760950 -0.698199
H64   H     H_    0.243838 0.934146 0.752758 0.336086
C61   C     C_2   0.129338 0.620450 0.091498 0.948166
O57   O     O_2   0.191501 0.645081 0.031382 -0.513676
O58   O     O_R   0.117964 0.670686 0.195251 -0.674411
H65   H     H_    0.147024 0.730213 0.188048 0.330399
C62   C     C_2   0.165935 0.540285 0.853040 0.983541
O59   O     O_2   0.155354 0.613208 0.816328 -0.518215
O60   O     O_R   0.249463 0.505411 0.841144 -0.722078
H66   H     H_    0.294230 0.549415 0.813216 0.324554
C63   C     C_2   0.176658 0.492320 0.151170 0.960826
O61   O     O_2   0.182619 0.494635 0.263878 -0.601269
O62   O     O_R   0.255750 0.491397 0.089256 -0.680731
H67   H     H_    0.306682 0.478749 0.147114 0.355615
C64   C     C_2   0.135382 0.402748 0.915525 1.001223
O63   O     O_2   0.139068 0.373117 0.813779 -0.561711
O64   O     O_R   0.192018 0.363766 0.000033 -0.653792
H68   H     H_    0.220127 0.308731 0.969523 0.382868
C65   C     C_2   0.650692 0.091150 0.091594 0.942936
O65   O     O_2   0.728084 0.088283 0.068762 -0.560839
O66   O     O_R   0.627417 0.161917 0.157066 -0.662565
H69   H     H_    0.665686 0.214358 0.136860 0.346843
C66   C     C_2   0.662187 0.042784 0.831933 0.981638
O67   O     O_2   0.691837 0.007242 0.739255 -0.621885
O68   O     O_R   0.701949 0.122013 0.859815 -0.678332
H70   H     H_    0.756362 0.135417 0.813166 0.344349
C67   C     C_2   0.663080 0.956455 0.171087 0.980311
O69   O     O_2   0.688356 0.993243 0.267314 -0.613097
O70   O     O_R   0.714685 0.887343 0.137522 -0.693680
H71   H     H_    0.776794 0.897637 0.162998 0.334246
C68   C     C_2   0.645708 0.901631 0.900358 0.999795
O71   O     O_2   0.722870 0.900573 0.925431 -0.562634
O72   O     O_R   0.621640 0.837954 0.818193 -0.647298
H72   H     H_    0.660239 0.784608 0.823705 0.319716

loop_
_geom_bond_atom_site_label_1
_geom_bond_atom_site_label_2
_ccdc_geom_bond_type
C16   C28   S    
S3    O25   S    
C9    C33   S    
O44   H58   S    
Cu3   O13   S    
C17   H13   S    
C53   O41   D    
Cu2   O12   S    
S7    O36   D    
C9    O9    A    
C54   O43   D    
C4    O7    A    
C19   H15   S    
O70   H71   S    
S4    O28   S    
O60   H66   S    
C30   C44   S    
O19   H49   S    
C14   C33   S    
C29   H33   S    
S5    O29   D    
C44   H48   S    
C7    C8    S    
C49   N3    S    
C6    C64   S    
C13   H9    S    
C55   O45   D    
Cu4   O16   S    
C60   O55   D    
C51   S7    S    
C26   H22   S    
C23   H27   S    
C25   H21   S    
C22   H26   S    
S4    O27   D    
C46   S2    S    
C38   C42   S    
C68   O72   S    
C27   H23   S    
C19   C36   S    
C5    C6    S    
C7    C67   S    
Cu1   O9    S    
C26   C39   S    
C58   O52   S    
C13   H1    S    
C28   C40   S    
O28   H52   S    
C21   H17   S    
Cu2   O2    S    
C61   O58   S    
C16   H4    S    
C59   O54   S    
C29   H34   S    
C41   H41   S    
C10   O11   A    
C1    O1    A    
Cu1   N2    S    
C48   N2    S    
O72   H72   S    
C29   C33   S    
C19   H7    S    
C60   O56   S    
S6    O34   S    
C28   H32   S    
S1    O19   S    
C24   C38   S    
S2    O21   D    
C16   H12   S    
C12   C36   S    
C18   C35   S    
C15   C34   S    
C51   C59   S    
C17   H5    S    
Cu1   O3    S    
C65   O66   S    
O58   H65   S    
C53   O42   S    
C29   C43   S    
S7    O37   S    
C50   N4    S    
C9    O10   A    
C62   O60   S    
C13   C25   S    
C11   O13   A    
C8    N4    S    
C48   C56   S    
S5    O30   D    
C44   H47   S    
C45   N1    S    
C68   O71   D    
C63   O62   S    
C14   H10   S    
C14   H2    S    
Cu3   O15   S    
C2    O3    A    
C48   S4    S    
C49   S5    S    
C51   C52   S    
S8    O40   S    
C20   C24   S    
S3    O23   D    
S4    O26   D    
C6    C62   S    
C30   H36   S    
C3    O5    A    
C57   O50   S    
C45   S1    S    
O68   H70   S    
C30   C34   S    
C24   H20   S    
C20   C36   S    
C5    N1    S    
Cu3   O5    S    
C47   N1    S    
C66   O67   D    
C57   O49   D    
C22   C37   S    
C17   C21   S    
O62   H67   S    
S8    O39   D    
O37   H55   S    
C20   H8    S    
C19   C23   S    
O50   H61   S    
C43   H45   S    
Cu4   N3    S    
C13   C33   S    
C67   O69   D    
C42   H44   S    
C1    O2    A    
C50   S6    S    
C15   C27   S    
O64   H68   S    
C12   O16   A    
C4    C39   S    
C65   O65   D    
C27   C40   S    
C26   H30   S    
C15   H11   S    
C14   C26   S    
Cu3   Cu4   S    
C25   H29   S    
C64   O63   D    
Cu4   O8    S    
Cu2   O4    S    
C59   O53   D    
C10   C34   S    
C47   C55   S    
O31   H53   S    
C27   H31   S    
C6    N2    S    
C52   N4    S    
C7    C65   S    
C55   O46   S    
C1    C38   S    
C49   C57   S    
C32   H40   S    
C21   H25   S    
C3    C40   S    
C49   C50   S    
Cu2   O10   S    
S1    O17   D    
S6    O33   D    
C11   O14   A    
C22   H18   S    
C23   C38   S    
C32   C36   S    
O42   H57   S    
S5    O31   S    
C54   O44   S    
Cu1   O1    S    
O54   H63   S    
S3    O24   D    
C63   O61   D    
C32   C42   S    
C31   C41   S    
Cu2   N1    S    
C47   S3    S    
C18   C22   S    
C15   H3    S    
C4    O8    A    
C18   H6    S    
C52   C60   S    
C23   H19   S    
C30   H35   S    
C47   C48   S    
C3    O6    A    
C8    C66   S    
C5    C61   S    
C8    C68   S    
Cu1   O11   S    
Cu1   Cu2   S    
O48   H60   S    
C66   O68   S    
C31   H38   S    
C18   H14   S    
S6    O32   D    
C46   C54   S    
Cu3   N4    S    
C16   C34   S    
S8    O38   D    
C11   C35   S    
S2    O20   D    
C24   H28   S    
C43   H46   S    
O52   H62   S    
C67   O70   S    
O46   H59   S    
C31   H37   S    
C42   H43   S    
C25   C39   S    
C2    C37   S    
C58   O51   D    
O22   H50   S    
C12   O15   A    
Cu3   O7    S    
C46   N2    S    
C31   C35   S    
C64   O64   S    
C2    O4    A    
C56   O48   S    
C7    N3    S    
O66   H69   S    
C37   C41   S    
C61   O57   D    
C28   H24   S    
O40   H56   S    
C10   O12   A    
O25   H51   S    
C5    C63   S    
O56   H64   S    
S2    O22   S    
C45   C46   S    
C40   C44   S    
C32   H39   S    
C21   C37   S    
C62   O59   D    
C39   C43   S    
C51   N3    S    
C56   O47   D    
S7    O35   D    
S1    O18   D    
Cu4   O6    S    
C41   H42   S    
C20   H16   S    
C17   C35   S    
O34   H54   S    
C50   C58   S    
C45   C53   S    
C52   S8    S    
Cu4   O14   S    
