data_mof_unit_20686.cif
_audit_creation_date              2013-03-05T16:22:59-0500
_audit_creation_method            fapswitch 2.2
_symmetry_space_group_name_H-M    P1
_symmetry_Int_Tables_number       1
_space_group_crystal_system       triclinic
_cell_length_a                    15.142555
_cell_length_b                    13.845984
_cell_length_c                    10.742608
_cell_angle_alpha                 90.15529
_cell_angle_beta                  90.229468
_cell_angle_gamma                 90.131543
_cell_volume                      2252.30126168

loop_
_atom_site_label
_atom_site_type_symbol
_atom_site_description
_atom_site_fract_x
_atom_site_fract_y
_atom_site_fract_z
_atom_type_partial_charge
O1    O     O_R   0.371450 0.581430 0.500010 -0.589872
O2    O     O_R   0.371450 0.418570 0.500010 -0.602120
C1    C     C_R   0.330234 0.499888 0.499860 0.826721
O3    O     O_R   0.499980 0.581440 0.317690 -0.609354
O4    O     O_R   0.499980 0.418560 0.317690 -0.577521
C2    C     C_R   0.499956 0.500064 0.259797 0.773659
Cu1   Cu    Cu3+1 0.499990 0.596430 0.500000 0.979332
Cu2   Cu    Cu3+1 0.499990 0.403570 0.500000 1.008880
O5    O     O_R   0.628540 0.581440 0.499990 -0.537482
O6    O     O_R   0.628540 0.418560 0.499990 -0.543001
O7    O     O_R   0.500010 0.581440 0.682310 -0.600884
O8    O     O_R   0.500010 0.418560 0.682310 -0.561875
C3    C     C_R   0.670544 0.500229 0.495954 0.982536
C4    C     C_R   0.502284 0.500073 0.740347 0.829147
C5    C     C_3   0.506627 0.605318 0.071648 -0.361323
C6    C     C_3   0.417579 0.450855 0.070398 -0.389184
H1    H     H_    0.568513 0.640929 0.104423 0.213517
H2    H     H_    0.413214 0.374957 0.103765 0.195778
H3    H     H_    0.450080 0.648507 0.107173 0.166077
H4    H     H_    0.357834 0.489377 0.104359 0.149728
C7    C     C_3   0.504001 0.605528 0.929071 -0.406082
C8    C     C_3   0.418811 0.451529 0.927108 -0.408880
H5    H     H_    0.443103 0.643334 0.897348 0.175279
H6    H     H_    0.360434 0.492586 0.892852 0.150651
H7    H     H_    0.560791 0.647991 0.892921 0.224172
H8    H     H_    0.409959 0.377243 0.890347 0.225225
H9    H     H_    0.643699 0.469631 0.125083 0.195563
H10   H     H_    0.577161 0.366956 0.107417 0.217597
C9    C     C_3   0.583476 0.443275 0.076365 -0.395491
C10   C     C_3   0.501841 0.500227 0.122193 0.051872
C11   C     C_3   0.505027 0.499880 0.878540 -0.015054
C12   C     C_3   0.591189 0.448154 0.930988 0.565542
C13   C     C_R   0.098725 0.562945 0.409505 0.460830
C14   C     C_R   0.095145 0.435997 0.567745 0.440358
C15   C     C_R   0.190724 0.564778 0.418302 -0.330772
C16   C     C_R   0.187055 0.434172 0.568437 -0.311049
H11   H     H_    0.228056 0.615506 0.362606 0.156397
H12   H     H_    0.221232 0.383329 0.628029 0.172611
C17   C     C_R   0.234564 0.499750 0.496015 -0.144350
C18   C     C_R   0.050648 0.500113 0.486959 -0.015347
C19   C     C_R   0.907009 0.417100 0.450755 0.359162
C20   C     C_R   0.908377 0.586089 0.515275 0.336280
C21   C     C_R   0.814593 0.416505 0.453309 0.196324
C22   C     C_R   0.816165 0.586660 0.516632 0.224652
C23   C     C_R   0.768099 0.501086 0.488701 -0.379112
C24   C     C_R   0.953734 0.501277 0.483427 -0.164173
C25   C     C_R   0.567581 0.108205 0.559450 -0.223988
C26   C     C_R   0.538922 0.892506 0.597809 -0.253057
H13   H     H_    0.622237 0.072374 0.604928 0.160943
H14   H     H_    0.568360 0.928866 0.677013 0.144639
C27   C     C_R   0.565896 0.209725 0.559130 0.203080
C28   C     C_R   0.538508 0.790959 0.595753 0.146632
H15   H     H_    0.617952 0.249315 0.605883 0.189416
H16   H     H_    0.568803 0.751988 0.671714 0.158178
N1    N     N_R   0.500020 0.258690 0.500000 -0.193255
N2    N     N_R   0.500020 0.741310 0.500000 -0.182210
C29   C     C_R   0.434306 0.209122 0.440521 0.083128
C30   C     C_R   0.461448 0.790327 0.404272 0.083032
H17   H     H_    0.382332 0.248253 0.393395 0.123927
H18   H     H_    0.430576 0.750854 0.328748 0.113127
C31   C     C_R   0.432800 0.107570 0.440021 -0.267218
C32   C     C_R   0.461384 0.891859 0.401894 -0.259342
H19   H     H_    0.378251 0.071221 0.394365 0.133272
H20   H     H_    0.431928 0.927699 0.322676 0.133770
C33   C     C_R   0.500212 0.054703 0.499740 0.108455
C34   C     C_R   0.500233 0.945367 0.499769 0.129891
N3    N     N_R   0.769118 0.330430 0.414444 0.150833
O9    O     O_R   0.720954 0.331429 0.313855 -0.385698
O10   O     O_R   0.786724 0.248283 0.467460 -0.316413
N4    N     N_R   0.772791 0.675114 0.548877 0.163065
O11   O     O_R   0.778948 0.749300 0.475363 -0.329117
O12   O     O_R   0.741584 0.686825 0.660501 -0.340699
N5    N     N_R   0.670040 0.505034 0.893833 0.106457
O13   O     O_R   0.693525 0.507594 0.777574 -0.353202
O14   O     O_R   0.713075 0.559365 0.972540 -0.415409
N6    N     N_R   0.600361 0.348312 0.882651 0.103952
O15   O     O_R   0.540785 0.283037 0.906099 -0.402934
O16   O     O_R   0.673826 0.320222 0.831549 -0.328477
O17   O     O_3   0.054539 0.625865 0.330993 -0.535475
C35   C     C_3   0.074823 0.604482 0.205519 0.067004
H21   H     H_    0.079893 0.525390 0.187364 0.094791
H22   H     H_    0.138723 0.638746 0.180151 0.103958
C36   C     C_3   0.003033 0.645410 0.120300 -0.365234
H23   H     H_    0.003587 0.725562 0.126347 0.234048
H24   H     H_    0.017767 0.624395 0.022626 0.161301
C37   C     C_3   0.911127 0.608257 0.154239 -0.673974
H25   H     H_    0.909931 0.528154 0.156570 0.219062
H26   H     H_    0.862662 0.633474 0.083800 0.263348
H27   H     H_    0.890966 0.636557 0.246612 0.283889
O18   O     O_3   0.049394 0.369919 0.639446 -0.555342
C38   C     C_3   0.023567 0.414592 0.751803 0.026222
H28   H     H_    0.990693 0.484970 0.734844 0.114779
H29   H     H_    0.082262 0.426069 0.812965 0.126925
C39   C     C_3   0.957183 0.349575 0.818159 -0.264104
H30   H     H_    0.901357 0.332790 0.753984 0.267363
H31   H     H_    0.989753 0.280709 0.844558 0.219838
C40   C     C_3   0.920770 0.398566 0.934563 -0.879464
H32   H     H_    0.975395 0.416721 0.999860 0.227883
H33   H     H_    0.873903 0.349226 0.982042 0.282943
H34   H     H_    0.885114 0.465787 0.909155 0.298181
O19   O     O_3   0.952009 0.332844 0.423224 -0.526268
C41   C     C_3   0.968832 0.329081 0.294243 0.086082
H35   H     H_    0.002015 0.396073 0.261863 0.104032
H36   H     H_    0.906038 0.318991 0.241439 0.180648
C42   C     C_3   0.029871 0.243742 0.268218 -0.286710
H37   H     H_    0.092408 0.253375 0.321508 0.221874
H38   H     H_    0.997660 0.175886 0.299712 0.249193
C43   C     C_3   0.051285 0.235094 0.130029 -0.946336
H39   H     H_    0.989843 0.223025 0.075346 0.275111
H40   H     H_    0.096011 0.172761 0.114871 0.264494
H41   H     H_    0.084804 0.301618 0.096850 0.249189
O20   O     O_3   0.953772 0.671292 0.538510 -0.530345
C44   C     C_3   0.972420 0.679522 0.667069 0.074500
H42   H     H_    0.035000 0.640923 0.688073 0.110546
H43   H     H_    0.918511 0.649881 0.726650 0.161251
C45   C     C_3   0.984767 0.786176 0.699487 -0.247897
H44   H     H_    0.040194 0.816334 0.644139 0.223648
H45   H     H_    0.923602 0.826341 0.675246 0.260227
C46   C     C_3   0.004580 0.800144 0.837739 -0.948155
H46   H     H_    0.948665 0.773033 0.894543 0.273417
H47   H     H_    0.014008 0.878185 0.857922 0.270542
H48   H     H_    0.065839 0.761063 0.864046 0.243274

loop_
_geom_bond_atom_site_label_1
_geom_bond_atom_site_label_2
_geom_bond_distance
_ccdc_geom_bond_type
C30   C32   1.406124 A    
O19   C41   1.410661 S    
H9    C9    1.110094 S    
N5    O14   1.302062 A    
N5    O13   1.300487 A    
C4    C11   1.484974 S    
C40   H32   1.110343 S    
Cu1   Cu2   2.670338 S    
C25   H13   1.081550 S    
C43   H39   1.110411 S    
C5    H3    1.113624 S    
C42   H38   1.111775 S    
C14   C18   1.413338 A    
H10   C9    1.112998 S    
C15   H11   1.083537 S    
N6    O16   1.302265 A    
C9    C12   1.568184 S    
O3    Cu1   1.968892 S    
O4    C2    1.290005 A    
Cu2   O6    1.957134 S    
O7    C4    1.289556 A    
C37   H26   1.109608 S    
C29   H17   1.081445 S    
C30   H18   1.081145 S    
O5    C3    1.293853 A    
C45   H44   1.111778 S    
C41   C42   1.527727 S    
C5    H1    1.113358 S    
C20   C24   1.403995 A    
C31   H19   1.081508 S    
C20   O20   1.385581 S    
C32   H20   1.081516 S    
C36   H23   1.111504 S    
C45   H45   1.111815 S    
C19   C24   1.405077 A    
C22   N4    1.433367 S    
N4    O11   1.300778 A    
N2    C30   1.363848 A    
C14   C16   1.392016 A    
C6    H4    1.113483 S    
C39   H31   1.111472 S    
C44   C45   1.527225 S    
C26   H14   1.081542 S    
C1    C17   1.449114 S    
C19   C21   1.399805 A    
C39   H30   1.112424 S    
C20   C22   1.396502 A    
Cu1   N2    2.006004 S    
C35   C36   1.529280 S    
Cu2   N1    2.006006 S    
O20   C44   1.412769 S    
C40   H33   1.110448 S    
C28   H16   1.080748 S    
Cu1   O7    1.970009 S    
C46   H47   1.110305 S    
C42   C43   1.525238 S    
C13   C18   1.408904 A    
C8    C11   1.558248 S    
C32   C34   1.410423 A    
N3    O9    1.301380 A    
C45   C46   1.525724 S    
N6    O15   1.301332 A    
C35   H22   1.111898 S    
C38   H28   1.110413 S    
C37   H25   1.109559 S    
C13   O17   1.385697 S    
C25   C27   1.405944 A    
C39   C40   1.526595 S    
O6    C3    1.297035 A    
O1    C1    1.288790 A    
C15   C17   1.396681 A    
C14   O18   1.384028 S    
C9    C10   1.549044 S    
C38   H29   1.114001 S    
C7    C11   1.559020 S    
C11   C12   1.591626 S    
C5    C7    1.532021 S    
Cu2   O8    1.968890 S    
C41   H36   1.113582 S    
C21   C23   1.419588 A    
C6    H2    1.113152 S    
C36   H24   1.111724 S    
O8    C4    1.288230 A    
N1    C29   1.363404 A    
C8    H6    1.113920 S    
O3    C2    1.285494 A    
C18   C24   1.467987 S    
C12   N5    1.485398 S    
C40   H34   1.111217 S    
C22   C23   1.419866 A    
C5    C10   1.556105 S    
C44   H42   1.111661 S    
C46   H48   1.110930 S    
N3    O10   1.301093 A    
Cu1   O5    1.958082 S    
C7    H7    1.112457 S    
C6    C8    1.539553 S    
C2    C10   1.478622 S    
O1    Cu1   1.957001 S    
C16   C17   1.397353 A    
O2    Cu2   1.957949 S    
C35   H21   1.114683 S    
C37   H27   1.110104 S    
C12   N6    1.482406 S    
O4    Cu2   1.970011 S    
C46   H46   1.110900 S    
C43   H40   1.110348 S    
C29   C31   1.406213 A    
C42   H37   1.112164 S    
C43   H41   1.110925 S    
C26   C34   1.410445 A    
C7    H5    1.114091 S    
O2    C1    1.288583 A    
C38   C39   1.527766 S    
C3    C23   1.479621 S    
O18   C38   1.411825 S    
C16   H12   1.083841 S    
C13   C15   1.396090 A    
C19   O19   1.384249 S    
C27   N1    1.363302 A    
C41   H35   1.111253 S    
O17   C35   1.414363 S    
C31   C33   1.410722 A    
C26   C28   1.406121 A    
C36   C37   1.528447 S    
C21   N3    1.435295 S    
C33   C34   1.513869 S    
C8    H8    1.108428 S    
N4    O12   1.300528 A    
C27   H15   1.080482 S    
C6    C10   1.546995 S    
C25   C33   1.410537 A    
C28   N2    1.363765 A    
C44   H43   1.117383 S    
