data_mof_unit_19561.cif
_audit_creation_date              2012-12-10T19:12:25-0500
_audit_creation_method            fapswitch 2.2
_symmetry_space_group_name_H-M    P1
_symmetry_Int_Tables_number       1
_space_group_crystal_system       triclinic
_cell_length_a                    15.700384
_cell_length_b                    11.111011
_cell_length_c                    9.894633
_cell_angle_alpha                 88.779097
_cell_angle_beta                  90.256306
_cell_angle_gamma                 91.024488
_cell_volume                      1725.40823692

loop_
_atom_site_label
_atom_site_type_symbol
_atom_type_description
_atom_site_fract_x
_atom_site_fract_y
_atom_site_fract_z
_atom_type_partial_charge
C1    C     C_R   0.504372 0.258686 0.501337 0.892289
C2    C     C_3   0.083573 0.491474 0.502002 -0.109430
C3    C     C_3   0.973400 0.572965 0.590898 -0.006087
C4    C     C_3   0.916080 0.492259 0.503192 -0.110183
C5    C     C_3   0.029208 0.601215 0.466242 0.569929
C6    C     C_3   0.971573 0.520734 0.378842 0.573017
C7    C     C_1   0.174399 0.493969 0.500431 0.078145
C8    C     C_1   0.825351 0.494522 0.502053 0.087225
C9    C     C_3   0.582481 0.077504 0.616262 0.325356
C10   C     C_3   0.573736 0.930991 0.631128 0.395431
C11   C     C_3   0.417163 0.064157 0.534537 0.231645
C12   C     C_R   0.338431 0.499502 0.499745 0.919610
C13   C     C_3   0.541919 0.079088 0.352677 0.297088
C14   C     C_3   0.511295 0.123241 0.502701 -0.135491
C15   C     C_3   0.519620 0.881549 0.501321 -0.259185
C16   C     C_3   0.424220 0.926786 0.504410 0.350719
C17   C     C_3   0.566144 0.940973 0.370088 0.476522
C18   C     C_3   0.453666 0.389975 0.081456 -0.263625
C19   C     C_3   0.460632 0.384682 0.921206 0.518062
C20   C     C_3   0.456088 0.605082 0.074668 0.479243
C21   C     C_3   0.586415 0.495168 0.084309 0.516350
C22   C     C_3   0.449036 0.598595 0.916906 -0.100546
C23   C     C_R   0.510999 0.742189 0.499373 0.950351
C24   C     C_3   0.588106 0.503737 0.923034 0.493285
C25   C     C_R   0.661539 0.499766 0.500333 0.860065
C26   C     C_3   0.970169 0.381933 0.539206 0.137873
C27   C     C_3   0.026262 0.410660 0.414350 -0.005052
C28   C     C_1   0.249649 0.496654 0.499564 -0.152334
C29   C     C_1   0.750193 0.497095 0.501198 -0.115111
C30   C     C_3   0.028234 0.462785 0.626973 0.130817
H1    H     H_    0.397160 0.907773 0.403874 0.111480
H2    H     H_    0.487976 0.310880 0.119847 0.152055
H3    H     H_    0.502046 0.309035 0.899916 0.102985
H4    H     H_    0.394094 0.620179 0.124445 0.130654
H5    H     H_    0.615519 0.408806 0.117217 0.090628
H6    H     H_    0.477798 0.680648 0.875204 0.211334
N1    N     N_3   0.498170 0.499750 0.138610 -0.165930
N2    N     N_3   0.498850 0.496730 0.861320 -0.154042
O1    O     O_R   0.499980 0.314910 0.616040 -0.594525
O2    O     O_R   0.500040 0.314680 0.383960 -0.645279
O3    O     O_R   0.376750 0.500100 0.616020 -0.556954
O4    O     O_R   0.376810 0.499870 0.383940 -0.641948
O5    O     O_R   0.499960 0.685320 0.616040 -0.623513
O6    O     O_R   0.500020 0.685090 0.383960 -0.585890
O7    O     O_R   0.623190 0.500130 0.616060 -0.601635
O8    O     O_R   0.623250 0.499900 0.383980 -0.550196
Zn1   Zn    Zn3+2 0.499960 0.500150 0.654960 0.998691
Zn2   Zn    Zn3+2 0.500040 0.499850 0.345040 0.994653
C31   C     C_3   0.057554 0.319825 0.313905 -0.772722
H7    H     H_    0.002189 0.274791 0.264982 0.258103
H8    H     H_    0.097002 0.366609 0.235463 0.245462
H9    H     H_    0.096513 0.251274 0.367475 0.236934
C32   C     C_3   0.529238 0.888450 0.767193 -0.838294
H10   H     H_    0.463430 0.855850 0.757355 0.297819
H11   H     H_    0.562291 0.813126 0.811884 0.223572
H12   H     H_    0.530901 0.948292 0.854039 0.217885
C33   C     C_3   0.383873 0.083417 0.681199 -0.681854
H13   H     H_    0.414112 0.032462 0.761662 0.221506
H14   H     H_    0.384254 0.180067 0.705625 0.275388
H15   H     H_    0.317114 0.050305 0.694228 0.255154
F1    F     F_    0.371045 0.857467 0.587812 -0.673103
C34   C     C_3   0.470870 0.092947 0.239447 -0.958031
H16   H     H_    0.424039 0.019171 0.234020 0.209861
H17   H     H_    0.434420 0.174645 0.248229 0.282449
H18   H     H_    0.497174 0.094835 0.135284 0.235161
C35   C     C_3   0.619602 0.155492 0.290347 -0.688460
H19   H     H_    0.604098 0.204789 0.195226 0.200843
H20   H     H_    0.642889 0.228997 0.354418 0.206242
H21   H     H_    0.674535 0.100702 0.261172 0.264764
F2    F     F_    0.652666 0.929700 0.384749 -0.702188
C36   C     C_3   0.554444 0.875878 0.238806 -0.547112
H22   H     H_    0.594147 0.793969 0.240934 0.342966
H23   H     H_    0.486017 0.855095 0.225396 0.229315
H24   H     H_    0.578984 0.929749 0.150992 0.218326
C37   C     C_3   0.340972 0.119839 0.449704 -0.852241
H25   H     H_    0.277920 0.108514 0.499373 0.251679
H26   H     H_    0.348809 0.218244 0.433707 0.220174
H27   H     H_    0.325831 0.076370 0.353579 0.226041
C38   C     C_3   0.360654 0.370110 0.128295 -0.701727
H28   H     H_    0.320065 0.448702 0.106999 0.227440
H29   H     H_    0.331705 0.291488 0.076704 0.253786
H30   H     H_    0.357758 0.345414 0.236321 0.244205
C39   C     C_3   0.934606 0.258295 0.580388 -0.818775
H31   H     H_    0.987845 0.195945 0.600388 0.250989
H32   H     H_    0.895784 0.265499 0.673228 0.245996
H33   H     H_    0.893966 0.222579 0.497840 0.243621
F3    F     F_    0.384632 0.355209 0.857827 -0.674037
C40   C     C_3   0.355626 0.612726 0.869633 -0.735750
H34   H     H_    0.315774 0.530276 0.878742 0.289560
H35   H     H_    0.324257 0.681215 0.931658 0.191929
H36   H     H_    0.352636 0.651703 0.765994 0.298866
F4    F     F_    0.637543 0.582684 0.143419 -0.605568
F5    F     F_    0.634742 0.407654 0.878440 -0.705923
C41   C     C_3   0.639853 0.616378 0.878134 -0.655277
H37   H     H_    0.709193 0.597941 0.881102 0.260510
H38   H     H_    0.622886 0.643740 0.775413 0.219920
H39   H     H_    0.629721 0.693814 0.944208 0.245078
F6    F     F_    0.504157 0.704175 0.095052 -0.721659
F7    F     F_    0.940985 0.551032 0.251571 -0.612109
F8    F     F_    0.060961 0.713702 0.428152 -0.617208
C42   C     C_3   0.942128 0.665257 0.689706 -0.746154
H40   H     H_    0.997497 0.710460 0.738418 0.258121
H41   H     H_    0.903536 0.733496 0.634922 0.245497
H42   H     H_    0.902300 0.619607 0.768472 0.245116
C43   C     C_3   0.062109 0.430045 0.767056 -0.788914
H43   H     H_    0.008028 0.414278 0.837436 0.255594
H44   H     H_    0.100168 0.347061 0.762081 0.240579
H45   H     H_    0.103056 0.504725 0.804600 0.245666
C44   C     C_3   0.578484 0.138199 0.758193 -0.812049
H46   H     H_    0.516529 0.139827 0.806163 0.219097
H47   H     H_    0.622789 0.093755 0.830943 0.228794
H48   H     H_    0.602196 0.232376 0.755899 0.311562
C45   C     C_3   0.675677 0.122976 0.578520 -0.841641
H49   H     H_    0.678694 0.222657 0.566693 0.213502
H50   H     H_    0.722180 0.101510 0.660492 0.241523
H51   H     H_    0.705328 0.086724 0.489025 0.290685
C46   C     C_3   0.664323 0.870413 0.643216 -0.738408
H52   H     H_    0.690840 0.879192 0.747093 0.208918
H53   H     H_    0.660157 0.773878 0.619124 0.208888
H54   H     H_    0.716654 0.905857 0.579699 0.285576

loop_
_geom_bond_atom_site_label_1
_geom_bond_atom_site_label_2
_ccdc_geom_bond_type
C35   H20   S    
C26   C39   S    
C2    C7    S    
C4    C8    S    
C32   H10   S    
C16   H1    S    
C43   H44   S    
C26   C27   S    
C42   H40   S    
C12   C28   S    
C8    C29   T    
C18   N1    S    
C19   F3    S    
C10   C15   S    
C46   H53   S    
C5    C6    S    
C11   C14   S    
C33   H14   S    
C35   H21   S    
C15   C16   S    
C22   N2    S    
C23   O5    A    
C15   C17   S    
C18   C19   S    
C10   C32   S    
C34   H17   S    
C1    O2    A    
C13   C34   S    
C39   H31   S    
C18   C38   S    
C31   H8    S    
C24   N2    S    
C40   H36   S    
C2    C27   S    
C22   C40   S    
C9    C10   S    
C44   H46   S    
C24   F5    S    
C45   H51   S    
C20   H4    S    
C3    C42   S    
O7    Zn1   S    
C35   H19   S    
C17   F2    S    
C42   H41   S    
C13   C14   S    
C9    C44   S    
C13   C35   S    
C32   H11   S    
C25   C29   S    
C43   H45   S    
O8    Zn2   S    
C12   O4    A    
C4    C6    S    
C19   H3    S    
C46   H54   S    
C38   H29   S    
C9    C14   S    
C1    O1    A    
C33   H15   S    
C41   H39   S    
C7    C28   T    
C3    C30   S    
C37   H25   S    
C34   H16   S    
C19   N2    S    
C24   C41   S    
C36   H24   S    
C11   C16   S    
C6    C27   S    
C5    F8    S    
C31   H9    S    
O3    Zn1   S    
C20   F6    S    
O4    Zn2   S    
N1    Zn2   S    
C41   H38   S    
C37   H26   S    
N2    Zn1   S    
C39   H32   S    
C40   H35   S    
C17   C36   S    
C42   H42   S    
C30   C43   S    
C44   H48   S    
C2    C5    S    
C18   H2    S    
C16   F1    S    
C3    C4    S    
C25   O7    A    
C12   O3    A    
O1    Zn1   S    
C45   H49   S    
C32   H12   S    
O2    Zn2   S    
C34   H18   S    
C20   C22   S    
C3    C5    S    
C38   H30   S    
C4    C26   S    
C26   C30   S    
C21   H5    S    
C22   H6    S    
C43   H43   S    
C13   C17   S    
C2    C30   S    
C9    C45   S    
C6    F7    S    
C44   H47   S    
C36   H22   S    
C10   C46   S    
C11   C37   S    
C46   H52   S    
C20   N1    S    
C33   H13   S    
C15   C23   S    
C41   H37   S    
C37   H27   S    
C23   O6    A    
C38   H28   S    
O6    Zn2   S    
C39   H33   S    
C21   N1    S    
C40   H34   S    
C31   H7    S    
C21   C24   S    
C36   H23   S    
C1    C14   S    
C11   C33   S    
O5    Zn1   S    
C25   O8    A    
C27   C31   S    
C45   H50   S    
C21   F4    S    
