data_mof_unit_48892.cif
_audit_creation_date              2012-12-10T18:11:07-0500
_audit_creation_method            fapswitch 2.2
_symmetry_space_group_name_H-M    P1
_symmetry_Int_Tables_number       1
_space_group_crystal_system       triclinic
_cell_length_a                    10.724398
_cell_length_b                    9.493805
_cell_length_c                    10.658444
_cell_angle_alpha                 90.564087
_cell_angle_beta                  88.369881
_cell_angle_gamma                 90.062331
_cell_volume                      1084.7010319

loop_
_atom_site_label
_atom_site_type_symbol
_atom_type_description
_atom_site_fract_x
_atom_site_fract_y
_atom_site_fract_z
_atom_type_partial_charge
C1    C     C_R   0.259898 0.499814 0.503384 0.755135
C2    C     C_3   0.499306 0.497779 0.123161 -0.015054
C3    C     C_3   0.069040 0.609784 0.601037 -0.386765
C4    C     C_3   0.070152 0.352083 0.543524 -0.376243
C5    C     C_3   0.925242 0.610971 0.599576 -0.377042
C6    C     C_3   0.927033 0.352628 0.544909 -0.378425
C7    C     C_3   0.075774 0.534692 0.373077 -0.382404
C8    C     C_3   0.121788 0.499111 0.505419 0.175038
C9    C     C_3   0.877893 0.499059 0.504918 0.181007
C10   C     C_3   0.932092 0.531807 0.372137 -0.392158
C11   C     C_3   0.627959 0.084227 0.475907 0.193269
C12   C     C_3   0.629360 0.917400 0.484192 0.192322
C13   C     C_3   0.456590 0.084613 0.625630 -0.265968
C14   C     C_3   0.450722 0.917779 0.623581 -0.266603
C15   C     C_3   0.415983 0.081975 0.407793 -0.183904
C16   C     C_3   0.421226 0.915808 0.403268 -0.177961
C17   C     C_R   0.499417 0.499261 0.259774 0.817142
C18   C     C_R   0.739790 0.499859 0.502656 0.746497
C19   C     C_R   0.500534 0.500781 0.740105 0.815530
C20   C     C_3   0.404513 0.573428 0.043164 0.145766
C21   C     C_3   0.490836 0.368957 0.036040 0.176731
C22   C     C_3   0.392203 0.442654 0.957404 -0.278916
C23   C     C_3   0.500931 0.502440 0.876131 -0.075221
C24   C     C_3   0.509763 0.636208 0.959714 -0.131080
C25   C     C_3   0.599348 0.424436 0.952515 -0.222959
C26   C     C_3   0.604253 0.555926 0.038396 0.133745
Cu1   Cu    Cu3+1 0.499860 0.642410 0.500060 0.894241
Cu2   Cu    Cu3+1 0.499860 0.357590 0.500060 0.886987
H1    H     H_    0.304513 0.396106 0.922629 0.125017
H2    H     H_    0.897327 0.634818 0.339269 0.162498
H3    H     H_    0.901109 0.449961 0.304281 0.144514
H4    H     H_    0.318264 0.116072 0.428290 0.127217
H5    H     H_    0.324849 0.873291 0.412912 0.141275
H6    H     H_    0.440504 0.122841 0.313453 0.189047
H7    H     H_    0.456676 0.881690 0.308896 0.182940
H8    H     H_    0.517672 0.746723 0.927343 0.129671
H9    H     H_    0.679958 0.363192 0.913674 0.126233
H10   H     H_    0.104602 0.716806 0.577509 0.163922
H11   H     H_    0.104703 0.269799 0.475965 0.162694
H12   H     H_    0.100199 0.584942 0.697071 0.144082
H13   H     H_    0.103008 0.323549 0.638120 0.149817
H14   H     H_    0.893218 0.717906 0.573418 0.160130
H15   H     H_    0.894906 0.268955 0.479603 0.158222
H16   H     H_    0.109814 0.640876 0.344733 0.165664
H17   H     H_    0.113816 0.456980 0.303120 0.141707
N1    N     N_3   0.500250 0.143650 0.502780 -0.142456
N2    N     N_3   0.500250 0.856350 0.502780 -0.146937
O1    O     O_R   0.317570 0.620260 0.500070 -0.592347
O2    O     O_R   0.317570 0.379740 0.500070 -0.597260
O3    O     O_R   0.499850 0.620240 0.316900 -0.587760
O4    O     O_R   0.499850 0.379760 0.316900 -0.596662
O5    O     O_R   0.682190 0.620260 0.500030 -0.603584
O6    O     O_R   0.682190 0.379740 0.500030 -0.616689
O7    O     O_R   0.499910 0.620280 0.683200 -0.597282
O8    O     O_R   0.499910 0.379720 0.683200 -0.589928
H18   H     H_    0.692183 0.125604 0.547943 0.074774
H19   H     H_    0.684858 0.888915 0.567307 0.069024
N3    N     N_3   0.677451 0.126484 0.350977 -0.551436
H20   H     H_    0.664952 0.231895 0.332676 0.276797
H21   H     H_    0.774184 0.111880 0.348343 0.184234
N4    N     N_3   0.695944 0.861535 0.371464 -0.571578
H22   H     H_    0.656551 0.773475 0.331599 0.297065
H23   H     H_    0.788698 0.840393 0.392125 0.183666
H24   H     H_    0.520253 0.118629 0.700766 0.147004
H25   H     H_    0.505156 0.878194 0.703044 0.148739
H26   H     H_    0.362991 0.127925 0.651948 0.159421
H27   H     H_    0.352857 0.882361 0.641043 0.154577
N5    N     N_3   0.299673 0.654751 0.094478 -0.604748
H28   H     H_    0.251138 0.693700 0.018610 0.208582
H29   H     H_    0.239911 0.584303 0.140855 0.196008
N6    N     N_3   0.480375 0.223708 0.077337 -0.582508
H30   H     H_    0.487091 0.159490 0.997207 0.210922
H31   H     H_    0.389914 0.210746 0.114492 0.197676
N7    N     N_3   0.718553 0.617859 0.084725 -0.605667
H32   H     H_    0.774609 0.643671 0.006530 0.211369
H33   H     H_    0.765298 0.539057 0.132305 0.194671
H34   H     H_    0.886440 0.589002 0.695403 0.143808
H35   H     H_    0.890167 0.326584 0.640629 0.151148

loop_
_geom_bond_atom_site_label_1
_geom_bond_atom_site_label_2
_ccdc_geom_bond_type
Cu1   O1    S    
C7    C10   S    
C5    H14   S    
C22   H1    S    
C1    C8    S    
C4    C8    S    
C17   O4    A    
C6    C9    S    
Cu1   O7    S    
C18   O5    A    
C7    C8    S    
Cu2   N1    S    
C24   H8    S    
N7    H33   S    
C21   N6    S    
C7    H17   S    
C24   C26   S    
C16   H7    S    
C13   N1    S    
Cu2   O4    S    
C6    H35   S    
C4    H13   S    
Cu1   N2    S    
C15   C16   S    
N4    H23   S    
C18   O6    A    
C25   H9    S    
C10   H3    S    
C20   C24   S    
C3    H10   S    
N5    H28   S    
C14   H27   S    
C11   N3    S    
C9    C10   S    
C15   H6    S    
Cu1   O3    S    
C13   C14   S    
C2    C17   S    
C12   N2    S    
C16   N2    S    
Cu2   O8    S    
C13   H26   S    
N7    H32   S    
C2    C20   S    
C15   H4    S    
C4    C6    S    
C3    C8    S    
N6    H31   S    
C25   C26   S    
C19   C23   S    
C5    C9    S    
C16   H5    S    
Cu2   O2    S    
C10   H2    S    
C4    H11   S    
C23   C24   S    
C2    C21   S    
C2    C26   S    
C7    H16   S    
C12   H19   S    
C19   O7    A    
C20   C22   S    
C3    H12   S    
C6    H15   S    
C5    H34   S    
Cu1   O5    S    
C19   O8    A    
C21   C25   S    
C20   N5    S    
C3    C5    S    
C17   O3    A    
Cu2   O6    S    
C1    O1    A    
C14   N2    S    
N3    H20   S    
N6    H30   S    
C12   N4    S    
C13   H24   S    
C1    O2    A    
C26   N7    S    
C14   H25   S    
C23   C25   S    
N4    H22   S    
C9    C18   S    
N5    H29   S    
Cu1   Cu2   S    
C22   C23   S    
C11   N1    S    
C15   N1    S    
C21   C22   S    
N3    H21   S    
C11   H18   S    
C11   C12   S    
