data_mof_unit_45262.cif
_audit_creation_date              2013-03-05T16:33:55-0500
_audit_creation_method            fapswitch 2.2
_symmetry_space_group_name_H-M    P1
_symmetry_Int_Tables_number       1
_space_group_crystal_system       triclinic
_cell_length_a                    17.782283
_cell_length_b                    10.876768
_cell_length_c                    9.523285
_cell_angle_alpha                 91.145916
_cell_angle_beta                  89.754169
_cell_angle_gamma                 90.892972
_cell_volume                      1841.3278082

loop_
_atom_site_label
_atom_site_type_symbol
_atom_site_description
_atom_site_fract_x
_atom_site_fract_y
_atom_site_fract_z
_atom_type_partial_charge
O1    O     O_R   0.500000 0.319640 0.618810 -0.577957
O2    O     O_R   0.500010 0.319680 0.381230 -0.589553
C1    C     C_R   0.498546 0.262589 0.498796 0.791402
O3    O     O_R   0.391250 0.499990 0.618840 -0.561596
O4    O     O_R   0.391260 0.500020 0.381250 -0.584137
C2    C     C_R   0.355148 0.507993 0.500445 0.822153
Cu1   Cu    Cu3+1 0.500000 0.499980 0.640670 1.034637
Cu2   Cu    Cu3+1 0.500000 0.500020 0.359330 0.993614
O5    O     O_R   0.499990 0.680320 0.618770 -0.539359
O6    O     O_R   0.500000 0.680360 0.381190 -0.578359
O7    O     O_R   0.608740 0.499980 0.618750 -0.572782
O8    O     O_R   0.608750 0.500010 0.381160 -0.593471
C3    C     C_R   0.499602 0.737898 0.501058 0.881464
C4    C     C_R   0.644364 0.497764 0.499569 0.843263
C5    C     C_R   0.845553 0.490722 0.626323 0.378736
C6    C     C_R   0.766841 0.492386 0.625439 -0.197522
H1    H     H_    0.736883 0.496371 0.724280 0.188465
C7    C     C_R   0.726983 0.491658 0.498561 -0.098049
C8    C     C_R   0.766626 0.484087 0.371046 -0.150874
H2    H     H_    0.737352 0.481045 0.271636 0.171196
C9    C     C_R   0.844791 0.479201 0.370466 -0.170003
H3    H     H_    0.874448 0.472813 0.270958 0.184771
C10   C     C_R   0.884430 0.482857 0.496974 -0.003471
C11   C     C_1   0.964733 0.477029 0.491553 0.081087
C12   C     C_1   0.032164 0.475400 0.489093 0.060554
C13   C     C_R   0.150935 0.472087 0.619308 -0.056407
C14   C     C_R   0.228553 0.500047 0.626031 -0.096183
C15   C     C_R   0.270755 0.517200 0.500213 -0.102843
C16   C     C_R   0.231043 0.533340 0.371979 -0.071400
C17   C     C_R   0.152196 0.512977 0.366884 -0.077363
C18   C     C_R   0.113217 0.479743 0.489977 0.027218
C19   C     C_R   0.496851 0.067601 0.623437 -0.083858
C20   C     C_R   0.492717 0.129963 0.497718 -0.093446
C21   C     C_R   0.480659 0.061391 0.373071 -0.150551
H4    H     H_    0.473418 0.106503 0.273771 0.185410
C22   C     C_R   0.481424 0.932775 0.375211 -0.124057
H5    H     H_    0.474147 0.882119 0.277051 0.217633
C23   C     C_R   0.494744 0.871264 0.501742 -0.082424
C24   C     C_R   0.498068 0.941641 0.626272 0.048543
C25   C     C_3   0.546221 0.945624 0.757242 0.484141
C26   C     C_3   0.543713 0.086766 0.752089 -0.307905
H6    H     H_    0.510940 0.130147 0.839229 0.198468
C27   C     C_R   0.564662 0.524000 0.074006 0.229977
N1    N     N_R   0.500470 0.500930 0.147930 -0.183079
C28   C     C_R   0.439349 0.457975 0.073913 -0.019852
H7    H     H_    0.390133 0.424426 0.128751 0.115675
C29   C     C_R   0.439533 0.457504 0.925001 0.015101
H8    H     H_    0.391036 0.422095 0.869248 0.126637
N2    N     N_R   0.500480 0.500890 0.852020 -0.179410
C30   C     C_R   0.565052 0.521994 0.926487 0.253568
C31   C     C_3   0.613413 0.634364 0.922630 -0.363068
C32   C     C_3   0.611733 0.638119 0.081922 -0.426079
H9    H     H_    0.670191 0.616596 0.879034 0.209176
H10   H     H_    0.583484 0.709844 0.874058 0.265001
H11   H     H_    0.667647 0.622475 0.129198 0.199454
H12   H     H_    0.580818 0.717771 0.127004 0.254105
N3    N     N_R   0.884581 0.498782 0.758365 0.145950
O9    O     O_R   0.945766 0.565159 0.770924 -0.317302
O10   O     O_R   0.853536 0.454552 0.871000 -0.333404
N4    N     N_R   0.506971 0.898692 0.881376 0.089812
O11   O     O_R   0.447875 0.827219 0.868745 -0.316963
O12   O     O_R   0.530998 0.929275 0.006305 -0.372068
N5    N     N_R   0.622372 0.895853 0.740959 0.068934
O13   O     O_R   0.670806 0.911348 0.842103 -0.299113
O14   O     O_R   0.643604 0.840636 0.625320 -0.404030
C33   C     C_2   0.617810 0.151340 0.723380 0.517130
H13   H     H_    0.651931 0.124381 0.633412 0.093600
O15   O     O_2   0.639626 0.235112 0.800821 -0.522076
C34   C     C_2   0.108819 0.439443 0.749833 0.438607
H14   H     H_    0.123528 0.482086 0.850135 0.098341
O16   O     O_2   0.058553 0.361659 0.747075 -0.480982
C35   C     C_2   0.263084 0.517281 0.766641 0.394309
H15   H     H_    0.255097 0.448112 0.846135 0.006357
O17   O     O_2   0.297234 0.612398 0.796840 -0.457967
C36   C     C_2   0.270321 0.576173 0.243526 0.518333
H16   H     H_    0.260603 0.529387 0.143353 0.059366
O18   O     O_2   0.311357 0.667266 0.247958 -0.488344
C37   C     C_2   0.108516 0.528130 0.234540 0.342450
H17   H     H_    0.058859 0.471269 0.214572 0.096235
O19   O     O_2   0.125245 0.606883 0.149836 -0.503565

loop_
_geom_bond_atom_site_label_1
_geom_bond_atom_site_label_2
_geom_bond_distance
_ccdc_geom_bond_type
C12   C18   1.441407 S    
C33   O15   1.220320 D    
N5    O14   1.301179 A    
C25   N4    1.466685 S    
C26   H6    1.113419 S    
C4    C7    1.471664 S    
C8    H2    1.082017 S    
C27   N1    1.361179 A    
Cu1   Cu2   2.679289 S    
C29   N2    1.367851 A    
C28   H7    1.079612 S    
Cu1   O7    1.943988 S    
C13   C14   1.410129 A    
C25   N5    1.472584 S    
O4    C2    1.303812 A    
C22   H5    1.082769 S    
C8    C9    1.391782 A    
C7    C8    1.403170 A    
C17   C18   1.409763 A    
O7    C4    1.297421 A    
C37   O19   1.220887 D    
C27   C32   1.487083 S    
N3    O10   1.301563 A    
C1    C20   1.444491 S    
C5    C6    1.400158 A    
N4    O12   1.301066 A    
C21   H4    1.083133 S    
C19   C24   1.371356 A    
C34   O16   1.221137 D    
O5    C3    1.295059 A    
C2    C15   1.505610 S    
C6    H1    1.080035 S    
C10   C11   1.431025 S    
C32   H11   1.110139 S    
C5    C10   1.411722 A    
C33   H13   1.085937 S    
C13   C18   1.409507 A    
C9    H3    1.084067 S    
C5    N3    1.439350 S    
O3    Cu1   1.945856 S    
C30   C31   1.484413 S    
C28   C29   1.418029 A    
C31   C32   1.516893 S    
C11   C12   1.199598 T    
Cu1   N2    2.012627 S    
C35   O17   1.221397 D    
C24   C25   1.515455 S    
C37   H17   1.085388 S    
N4    O11   1.301931 A    
O1    C1    1.289725 A    
C36   H16   1.085424 S    
C16   C17   1.416937 A    
C29   H8    1.076735 S    
Cu2   O8    1.945854 S    
C20   C21   1.404680 A    
C36   O18   1.221473 D    
C3    C23   1.454384 S    
O3    C2    1.304936 A    
C25   C26   1.538279 S    
O8    C4    1.296516 A    
C9    C10   1.398008 A    
C19   C26   1.494015 S    
N1    C28   1.368943 A    
Cu1   O5    1.976718 S    
C15   C16   1.428534 A    
O1    Cu1   1.968388 S    
Cu2   O6    1.968388 S    
O2    Cu2   1.976718 S    
Cu2   N1    2.013426 S    
C35   H15   1.085275 S    
O6    C3    1.290863 A    
O4    Cu2   1.943990 S    
C27   C30   1.404587 A    
C26   C33   1.509934 S    
C16   C36   1.485478 S    
C31   H10   1.096422 S    
C19   C20   1.390576 A    
C22   C23   1.412571 A    
O2    C1    1.291072 A    
N3    O9    1.300967 A    
C23   C24   1.399557 A    
C21   C22   1.399763 A    
C34   H14   1.084707 S    
N5    O13   1.301561 A    
C17   C37   1.496550 S    
C6    C7    1.403268 A    
N2    C30   1.366141 A    
C14   C15   1.424965 A    
C13   C34   1.494473 S    
C31   H9    1.108324 S    
C14   C35   1.482814 S    
C32   H12   1.111337 S    
