data_mof_unit_26444.cif
_audit_creation_date              2012-12-11T16:28:30-0500
_audit_creation_method            fapswitch 2.2
_symmetry_space_group_name_H-M    P1
_symmetry_Int_Tables_number       1
_space_group_crystal_system       triclinic
_cell_length_a                    16.557369
_cell_length_b                    7.25818
_cell_length_c                    15.228174
_cell_angle_alpha                 90.008768
_cell_angle_beta                  94.723899
_cell_angle_gamma                 90.004947
_cell_volume                      1823.85004688

loop_
_atom_site_label
_atom_site_type_symbol
_atom_type_description
_atom_site_fract_x
_atom_site_fract_y
_atom_site_fract_z
_atom_type_partial_charge
O1    O     O_R   0.663460 0.361760 0.165970 -0.533412
O2    O     O_R   0.336540 0.638240 0.834030 -0.533412
O3    O     O_R   0.836540 0.861760 0.334030 -0.533397
O4    O     O_R   0.163460 0.138240 0.665970 -0.533397
O5    O     O_R   0.827100 0.689870 0.163730 -0.527849
O6    O     O_R   0.172900 0.310130 0.836270 -0.527849
O7    O     O_R   0.672900 0.189870 0.336270 -0.527832
O8    O     O_R   0.327100 0.810130 0.663730 -0.527832
H1    H     H_    0.212781 0.961019 0.502733 0.091584
H2    H     H_    0.787219 0.038980 0.497267 0.091584
H3    H     H_    0.287186 0.461712 0.997190 0.091565
H4    H     H_    0.712814 0.538288 0.002809 0.091565
C1    C     C_R   0.853313 0.522940 0.143646 0.703095
C2    C     C_R   0.146687 0.477060 0.856354 0.703095
C3    C     C_R   0.646687 0.022953 0.356356 0.703082
C4    C     C_R   0.353313 0.977047 0.643644 0.703081
O9    O     O_R   0.663490 0.691370 0.155500 -0.537239
O10   O     O_R   0.336510 0.308630 0.844500 -0.537239
O11   O     O_R   0.836510 0.191370 0.344500 -0.537254
O12   O     O_R   0.163490 0.808630 0.655500 -0.537254
O13   O     O_R   0.671770 0.863320 0.325740 -0.520828
O14   O     O_R   0.328230 0.136680 0.674260 -0.520828
O15   O     O_R   0.828230 0.363320 0.174260 -0.520785
O16   O     O_R   0.171770 0.636680 0.825740 -0.520784
C5    C     C_R   0.634991 0.523090 0.135220 0.693059
C6    C     C_R   0.365009 0.476909 0.864780 0.693060
C7    C     C_R   0.864990 0.023127 0.364807 0.693032
C8    C     C_R   0.135010 0.976873 0.635193 0.693031
H5    H     H_    0.134969 0.990495 0.232238 0.122936
H6    H     H_    0.865031 0.009505 0.767762 0.122936
H7    H     H_    0.364960 0.490739 0.267709 0.122943
H8    H     H_    0.635040 0.509261 0.732291 0.122943
O17   O     O_3   0.752910 0.528800 0.305860 -0.367730
O18   O     O_3   0.247090 0.471200 0.694140 -0.367730
O19   O     O_3   0.747090 0.028800 0.194140 -0.367711
O20   O     O_3   0.252910 0.971200 0.805860 -0.367711
V1    V     V_3+5 0.749460 0.803010 0.239640 1.491977
V2    V     V_3+5 0.250540 0.196990 0.760360 1.491978
V3    V     V_3+5 0.750540 0.303010 0.260360 1.492025
V4    V     V_3+5 0.249460 0.696990 0.739640 1.492025
C9    C     C_1   0.468828 0.994741 0.530131 0.015290
C10   C     C_1   0.531172 0.005258 0.469869 0.015290
C11   C     C_1   0.031172 0.494769 0.969868 0.015265
C12   C     C_1   0.968828 0.505231 0.030132 0.015265
H9    H     H_    0.757475 0.037218 0.649142 0.123878
H10   H     H_    0.242525 0.962782 0.350858 0.123879
H11   H     H_    0.742593 0.536629 0.850952 0.123876
H12   H     H_    0.257407 0.463371 0.149048 0.123876
C13   C     C_R   0.037856 0.003528 0.318691 -0.044975
C14   C     C_R   0.962144 0.996472 0.681309 -0.044975
C15   C     C_R   0.462101 0.503645 0.181288 -0.044972
C16   C     C_R   0.537899 0.496355 0.818712 -0.044972
C17   C     C_R   0.118832 0.988979 0.299842 -0.144773
C18   C     C_R   0.881168 0.011021 0.700158 -0.144773
C19   C     C_R   0.381108 0.489242 0.200113 -0.144762
C20   C     C_R   0.618892 0.510758 0.799887 -0.144762
C21   C     C_R   0.180135 0.973516 0.366667 -0.136818
C22   C     C_R   0.819865 0.026484 0.633333 -0.136818
C23   C     C_R   0.319811 0.473997 0.133265 -0.136838
C24   C     C_R   0.680189 0.526003 0.866735 -0.136838
C25   C     C_R   0.161922 0.972676 0.453784 -0.125150
C26   C     C_R   0.838078 0.027324 0.546216 -0.125150
C27   C     C_R   0.338039 0.473189 0.046160 -0.125074
C28   C     C_R   0.661961 0.526811 0.953840 -0.125074
C29   C     C_R   0.080965 0.986386 0.476950 0.069819
C30   C     C_R   0.919035 0.013613 0.523050 0.069819
C31   C     C_R   0.419021 0.486664 0.023019 0.069850
C32   C     C_R   0.580979 0.513335 0.976981 0.069850
C33   C     C_R   0.016554 0.001163 0.408534 0.024687
C34   C     C_R   0.983446 0.998837 0.591466 0.024687
C35   C     C_R   0.483417 0.501249 0.091459 0.024635
C36   C     C_R   0.516583 0.498750 0.908541 0.024635
C37   C     C_R   0.064993 0.986142 0.567333 -0.177417
C38   C     C_R   0.935007 0.013858 0.432667 -0.177417
C39   C     C_R   0.435011 0.486294 0.932652 -0.177414
C40   C     C_R   0.564989 0.513706 0.067348 -0.177414
C41   C     C_1   0.416019 0.986152 0.581511 -0.155436
C42   C     C_1   0.583981 0.013847 0.418489 -0.155436
C43   C     C_1   0.083981 0.486200 0.918487 -0.155442
C44   C     C_1   0.916019 0.513799 0.081513 -0.155442
C45   C     C_1   0.980966 0.022695 0.242089 0.251430
N1    N     N_1   0.936532 0.037785 0.179740 -0.316128
C46   C     C_1   0.019033 0.977305 0.757911 0.251430
N2    N     N_1   0.063468 0.962214 0.820260 -0.316128
C47   C     C_1   0.518993 0.522570 0.257917 0.251392
N3    N     N_1   0.563423 0.537449 0.320273 -0.316183
C48   C     C_1   0.481007 0.477430 0.742083 0.251392
N4    N     N_1   0.436577 0.462550 0.679727 -0.316183

loop_
_geom_bond_atom_site_label_1
_geom_bond_atom_site_label_2
_ccdc_geom_bond_type
C22   C26   A    
C48   N4    T    
C19   C23   A    
C9    C10   S    
O10   C6    A    
C15   C47   S    
C45   N1    T    
C47   N3    T    
H6    C18   S    
O17   V3    S    
C2    O16   A    
H1    C25   S    
C28   C32   A    
O19   V1    S    
H3    C27   S    
C9    C41   T    
C35   C40   A    
O12   V4    S    
C29   C33   A    
C3    C42   S    
O5    V1    S    
C11   C43   T    
C30   C38   A    
C29   C37   A    
C1    O15   A    
C4    C41   S    
C13   C45   S    
H11   C24   S    
C31   C35   A    
O6    V2    S    
C7    C38   S    
O11   C7    A    
O5    C1    A    
O7    C3    A    
C1    C44   S    
O8    C4    A    
C13   C33   A    
O1    C5    A    
H2    C26   S    
C15   C35   A    
C36   C39   A    
C8    C37   S    
O4    C8    A    
C14   C46   S    
C27   C31   A    
H9    C22   S    
C26   C30   A    
C12   C44   T    
C17   C21   A    
O9    V1    S    
O12   C8    A    
C20   C24   A    
C11   C12   S    
C16   C36   A    
C25   C29   A    
O6    C2    A    
C46   N2    T    
C32   C36   A    
C34   C37   A    
C6    C39   S    
C33   C38   A    
O2    C6    A    
C14   C18   A    
C2    C43   S    
O11   V3    S    
O4    V2    S    
C10   C42   T    
H10   C21   S    
O18   V4    S    
C31   C39   A    
H12   C23   S    
C18   C22   A    
H4    C28   S    
C4    O14   A    
C16   C48   S    
C21   C25   A    
C32   C40   A    
C23   C27   A    
C24   C28   A    
C5    C40   S    
O9    C5    A    
O3    C7    A    
C14   C34   A    
C30   C34   A    
H5    C17   S    
C13   C17   A    
O20   V2    S    
O16   V4    S    
H8    C20   S    
C15   C19   A    
O10   V2    S    
O1    V3    S    
O2    V4    S    
C3    O13   A    
O13   V1    S    
O3    V1    S    
O7    V3    S    
O8    V4    S    
H7    C19   S    
O15   V3    S    
C16   C20   A    
O14   V2    S    
