data_mof_unit_45256.cif
_audit_creation_date              2013-03-05T16:04:02-0500
_audit_creation_method            fapswitch 2.2
_symmetry_space_group_name_H-M    P1
_symmetry_Int_Tables_number       1
_space_group_crystal_system       triclinic
_cell_length_a                    8.495123
_cell_length_b                    14.508071
_cell_length_c                    26.882132
_cell_angle_alpha                 94.138395
_cell_angle_beta                  92.698434
_cell_angle_gamma                 87.752654
_cell_volume                      3298.72848162

loop_
_atom_site_label
_atom_site_type_symbol
_atom_site_description
_atom_site_fract_x
_atom_site_fract_y
_atom_site_fract_z
_atom_type_partial_charge
P1    P     P_3+3 0.090020 0.577590 0.608380 0.512387
O1    O     O_2   0.918080 0.549800 0.616640 -0.349219
O2    O     O_3   0.150070 0.549720 0.556460 -0.437438
O3    O     O_3   0.658250 0.379560 0.591530 -0.338870
O4    O     O_2   0.819471 0.438697 0.671899 -0.321011
O5    O     O_3   0.081809 0.698711 0.615885 -0.518471
O6    O     O_3   0.691268 0.286738 0.680468 -0.478872
H1    H     H_    0.494350 0.239195 0.638540 0.056699
C1    C     C_3   0.594422 0.137311 0.688521 -0.473363
H2    H     H_    0.672455 0.139102 0.722929 0.154649
P2    P     P_3+3 0.614340 0.285150 0.467650 0.478344
P3    P     P_3+3 0.088516 0.210845 0.567352 0.485545
O7    O     O_2   0.790750 0.271170 0.482550 -0.344058
O8    O     O_3   0.062300 0.331660 0.568480 -0.399749
O9    O     O_2   0.970499 0.168738 0.527511 -0.337671
O10   O     O_3   0.596867 0.255437 0.403282 -0.591907
O11   O     O_3   0.020929 0.174134 0.622705 -0.473268
C2    C     C_3   0.108148 0.217043 0.662880 0.284554
H3    H     H_    0.090038 0.293554 0.663849 0.120579
H4    H     H_    0.235037 0.199233 0.659501 -0.002258
C3    C     C_3   0.054755 0.184540 0.712140 -0.661010
H5    H     H_    0.935712 0.214500 0.719774 0.251244
C4    C     C_3   0.203904 0.269066 0.424634 0.441672
H6    H     H_    0.310053 0.309129 0.433864 0.106257
H7    H     H_    0.127607 0.273738 0.457268 0.110651
C5    C     C_3   0.253247 0.168392 0.411713 -0.852685
H8    H     H_    0.381522 0.155895 0.416173 0.239439
H9    H     H_    0.196485 0.123692 0.436829 0.253369
H10   H     H_    0.222557 0.148483 0.371950 0.291633
Ba1   Ba    Ba6+2 0.849670 0.455410 0.524690 1.612527
C6    C     C_3   0.023706 0.735007 0.571312 0.426586
H11   H     H_    0.905740 0.708171 0.560793 0.068816
H12   H     H_    0.104693 0.716803 0.540602 0.137589
C7    C     C_3   0.010011 0.840217 0.578894 -0.919630
H13   H     H_    0.932143 0.861755 0.609963 0.261076
H14   H     H_    0.960642 0.870227 0.544599 0.217346
H15   H     H_    0.127751 0.869146 0.587195 0.267867
C8    C     C_3   0.704446 0.298313 0.375407 0.323297
H16   H     H_    0.766113 0.354988 0.397489 0.058397
C9    C     C_3   0.611866 0.340498 0.331674 -0.934758
H17   H     H_    0.693799 0.370157 0.306806 0.177994
H18   H     H_    0.537406 0.396878 0.348471 0.247443
P4    P     P_3+3 0.099670 0.422330 0.391610 0.473513
O12   O     O_2   0.271610 0.450170 0.383330 -0.349835
O13   O     O_3   0.039630 0.450200 0.443530 -0.416349
O14   O     O_3   0.531440 0.620360 0.408460 -0.319547
O15   O     O_3   0.119932 0.302749 0.383541 -0.569658
P5    P     P_3+3 0.089382 0.784763 0.419686 0.517401
O16   O     O_3   0.643350 0.612530 0.521650 -0.332282
O17   O     O_3   0.127390 0.668260 0.431510 -0.342476
O18   O     O_2   0.203849 0.834205 0.458458 -0.326055
O19   O     O_3   0.169979 0.805943 0.361246 -0.513080
Ba2   Ba    Ba6+2 0.340150 0.544510 0.475310 1.603795
P6    P     P_3+3 0.659838 0.395359 0.657076 0.543490
C10   C     C_3   0.551772 0.237969 0.676617 0.276970
H19   H     H_    0.469158 0.269740 0.704414 0.051382
O20   O     O_3   0.546340 0.387390 0.478340 -0.375698
C11   C     C_3   0.590696 0.721407 0.633421 0.092564
H20   H     H_    0.614198 0.647893 0.620864 0.153514
C12   C     C_3   0.719468 0.753053 0.672633 -0.717471
H21   H     H_    0.703540 0.828905 0.681654 0.207612
H22   H     H_    0.836029 0.741500 0.656525 0.236259
P7    P     P_3+3 0.580500 0.729670 0.533030 0.476028
O21   O     O_2   0.398940 0.728800 0.517420 -0.338823
O22   O     O_3   0.596659 0.780561 0.594498 -0.628000
H23   H     H_    0.136461 0.210252 0.742922 0.213321
C13   C     C_3   0.080321 0.792659 0.314580 0.208188
C14   C     C_3   0.058702 0.888952 0.291394 -0.761458
H24   H     H_    0.955789 0.926860 0.307014 0.197672
H25   H     H_    0.163636 0.929916 0.302513 0.220574
P8    P     P_3+3 0.542537 0.611673 0.343556 0.524985
C15   C     C_3   0.540731 0.793513 0.333730 0.321791
H26   H     H_    0.661084 0.776522 0.345364 -0.025514
O23   O     O_2   0.425574 0.537073 0.324584 -0.388065
O24   O     O_3   0.454918 0.713218 0.320401 -0.495046
H27   H     H_    0.630127 0.909305 0.297553 0.203850
C16   C     C_3   0.534509 0.859249 0.290357 -0.680772
H28   H     H_    0.421377 0.899839 0.290087 0.194848
C17   C     C_R   0.966622 0.402045 0.175890 0.547350
O25   O     O_2   0.959466 0.330286 0.196697 -0.538027
N1    N     N_R   0.933855 0.485960 0.201965 -0.174803
C18   C     C_R   0.944121 0.567299 0.178350 0.529491
C19   C     C_2   0.756462 0.537092 0.268218 -0.144529
C20   C     C_3   0.743907 0.575021 0.321834 0.237088
C21   C     C_1   0.972052 0.473511 0.342710 0.296588
C22   C     C_2   0.003404 0.457131 0.294586 -0.143877
C23   C     C_2   0.890754 0.490785 0.254234 0.107424
C24   C     C_R   0.014014 0.481617 0.100768 -0.061867
C25   C     C_R   0.006482 0.398800 0.124943 -0.079702
C26   C     C_R   0.038480 0.314716 0.097573 -0.041686
C27   C     C_R   0.984934 0.566202 0.128072 -0.078283
C28   C     C_2   0.847295 0.523429 0.358414 -0.496368
H29   H     H_    0.114032 0.422713 0.284186 0.168326
H30   H     H_    0.032766 0.249722 0.114770 0.184421
C29   C     C_2   0.355483 0.479809 0.643229 -0.540476
C30   C     C_R   0.129953 0.393760 0.971498 0.040318
C31   C     C_R   0.065741 0.560506 0.972514 0.062150
C32   C     C_R   0.113997 0.476656 0.946368 0.089579
C33   C     C_R   0.187552 0.313128 0.944435 -0.190393
C34   C     C_R   0.225415 0.314065 0.894445 -0.067835
C35   C     C_R   0.205191 0.394990 0.868880 -0.031830
C36   C     C_R   0.146127 0.476010 0.894577 -0.061827
C37   C     C_R   0.119475 0.556646 0.868627 -0.093665
C38   C     C_R   0.160857 0.556808 0.818282 0.620108
N2    N     N_R   0.227204 0.478224 0.794057 -0.158723
C39   C     C_R   0.245400 0.397096 0.818443 0.547819
C40   C     C_2   0.440240 0.466772 0.734155 -0.196738
C41   C     C_3   0.493215 0.475949 0.681166 0.189274
C42   C     C_1   0.215557 0.515828 0.655905 0.301461
C43   C     C_2   0.169464 0.508529 0.702013 -0.158532
C44   C     C_2   0.283887 0.482330 0.743741 0.100897
O26   O     O_2   0.298808 0.327027 0.796425 -0.642677
C45   C     C_R   0.086906 0.394418 0.022418 0.043916
C46   C     C_R   0.051322 0.480094 0.049372 0.098983
C47   C     C_R   0.054630 0.564447 0.025508 -0.026981
C48   C     C_R   0.078044 0.312433 0.047586 -0.194977
H31   H     H_    0.271210 0.250596 0.875805 0.174088
H32   H     H_    0.209105 0.248447 0.961357 0.139565
H33   H     H_    0.097463 0.244748 0.029177 0.141587
O27   O     O_2   0.918871 0.641496 0.201345 -0.530297
C49   C     C_R   0.005102 0.648880 0.105616 -0.101564
H34   H     H_    0.672373 0.561030 0.240064 0.183572
H35   H     H_    0.996715 0.714100 0.127870 0.198842
C50   C     C_R   0.022096 0.636539 0.944212 -0.134382
C51   C     C_R   0.051322 0.635358 0.893596 -0.049393
O28   O     O_2   0.141440 0.627660 0.796418 -0.542443
C52   C     C_R   0.048364 0.649106 0.056028 -0.143496
H36   H     H_    0.962338 0.697585 0.960610 0.131538
H37   H     H_    0.020888 0.696855 0.874112 0.182980
H38   H     H_    0.048454 0.525611 0.710779 0.200808
H39   H     H_    0.834432 0.542392 0.397845 0.171884
C53   C     C_R   0.683722 0.061363 0.472196 -0.072197
C54   C     C_R   0.518619 0.197905 0.503606 0.274152
C55   C     C_R   0.382631 0.228359 0.527794 -0.494519
C56   C     C_R   0.287046 0.168138 0.549487 0.189569
C57   C     C_R   0.331664 0.074500 0.549632 -0.212872
C58   C     C_R   0.467583 0.040066 0.525447 0.083877
C59   C     C_R   0.559652 0.100726 0.500689 0.008084
H40   H     H_    0.339516 0.297540 0.523568 0.123908
C60   C     C_R   0.634863 0.906001 0.496644 -0.000445
C61   C     C_R   0.720441 0.964572 0.468866 -0.008094
C62   C     C_R   0.675633 0.809606 0.494513 0.320715
C63   C     C_R   0.802780 0.774154 0.466747 -0.480676
C64   C     C_R   0.891637 0.831374 0.440370 0.083655
C65   C     C_R   0.842969 0.925446 0.438703 -0.204031
C66   C     C_R   0.507518 0.944887 0.524081 -0.129737
H41   H     H_    0.255900 0.027917 0.566225 0.153446
H42   H     H_    0.838633 0.701921 0.468039 0.151256
H43   H     H_    0.752746 0.106127 0.452542 0.197700
H44   H     H_    0.434655 0.901491 0.543645 0.160885
C67   C     C_2   0.825536 0.226920 0.357502 1.103962
O29   O     O_2   0.899278 0.182649 0.388228 -0.637563
O30   O     O_R   0.856489 0.211673 0.306831 -0.767261
H45   H     H_    0.941833 0.161930 0.300509 0.346254
C68   C     C_2   0.684532 0.084138 0.647795 0.751502
H46   H     H_    0.729935 0.014559 0.653592 -0.017510
O31   O     O_2   0.707799 0.117590 0.608535 -0.543879
C69   C     C_2   0.504702 0.275784 0.300336 1.319991
O32   O     O_2   0.500401 0.194156 0.308409 -0.544411
O33   O     O_R   0.408846 0.309069 0.261434 -0.762576
H47   H     H_    0.421558 0.377345 0.257684 0.289229
C70   C     C_2   0.450074 0.087636 0.700147 0.411280
H48   H     H_    0.391091 0.107759 0.734386 0.087157
O34   O     O_2   0.397707 0.025318 0.671967 -0.602332
C71   C     C_2   0.432145 0.735110 0.657065 1.079574
O35   O     O_2   0.391991 0.679077 0.685173 -0.624659
O36   O     O_R   0.335342 0.814088 0.651189 -0.705573
H49   H     H_    0.380725 0.860810 0.630274 0.327759
C72   C     C_2   0.722764 0.704450 0.720161 1.151614
O37   O     O_2   0.685823 0.746954 0.759067 -0.577089
O38   O     O_R   0.773094 0.611933 0.720069 -0.781938
H50   H     H_    0.780371 0.588885 0.754820 0.322868
C73   C     C_2   0.166905 0.721885 0.280340 1.171734
O39   O     O_2   0.231368 0.743809 0.243495 -0.656952
O40   O     O_R   0.167490 0.628758 0.290049 -0.763617
H51   H     H_    0.216123 0.587406 0.262382 0.329194
C74   C     C_2   0.925205 0.751394 0.318377 0.404616
H52   H     H_    0.896820 0.717596 0.350954 -0.016463
O41   O     O_2   0.836246 0.744465 0.281674 -0.552896
C75   C     C_2   0.032868 0.890560 0.235377 1.208965
O42   O     O_2   0.132294 0.923486 0.211062 -0.581433
O43   O     O_R   0.894591 0.857583 0.211542 -0.727145
H53   H     H_    0.891282 0.863683 0.174174 0.342906
C76   C     C_2   0.478536 0.843783 0.379636 1.029354
O44   O     O_2   0.462590 0.800307 0.415873 -0.562709
O45   O     O_R   0.439990 0.938700 0.381649 -0.780743
H54   H     H_    0.397067 0.962671 0.414855 0.350832
C77   C     C_2   0.547908 0.815389 0.238048 1.405118
O46   O     O_2   0.545856 0.865511 0.203347 -0.592989
O47   O     O_R   0.558750 0.719558 0.228419 -0.728984
H55   H     H_    0.565898 0.700434 0.191543 0.320132
C78   C     C_2   0.561254 0.459699 0.775832 1.054109
O48   O     O_2   0.679875 0.410368 0.770319 -0.618959
O49   O     O_R   0.541104 0.511139 0.821277 -0.795593
H56   H     H_    0.631615 0.500911 0.846461 0.324912
C79   C     C_2   0.111478 0.736496 0.040881 1.019309
O50   O     O_2   0.050537 0.811042 0.054988 -0.616505
O51   O     O_R   0.244408 0.733610 0.011938 -0.774531
H57   H     H_    0.276781 0.797440 0.004322 0.343192
C80   C     C_2   0.390652 0.467542 0.590950 0.727758
H58   H     H_    0.326600 0.419297 0.566721 -0.014763
O52   O     O_2   0.481292 0.518424 0.574005 -0.524732
C81   C     C_2   0.903170 0.978658 0.400223 1.024513
O53   O     O_2   0.809936 0.012176 0.369872 -0.638192
O54   O     O_R   0.064459 0.988644 0.397440 -0.760092
H59   H     H_    0.089026 0.023927 0.367950 0.329646
C82   C     C_2   0.050830 0.081073 0.711976 0.651987
H60   H     H_    0.078900 0.037129 0.678925 0.095527
O55   O     O_2   0.014069 0.045361 0.749288 -0.551616

loop_
_geom_bond_atom_site_label_1
_geom_bond_atom_site_label_2
_geom_bond_distance
_ccdc_geom_bond_type
C19   C23   1.355713 D    
C10   H19   1.112517 S    
P7    O22   1.762063 S    
O47   H55   1.013929 S    
O16   P7    1.770886 S    
C3    H23   1.107863 S    
C68   O31   1.220452 D    
C2    C3    1.531351 S    
P2    O7    1.542340 D    
C72   O37   1.222796 D    
Ba1   O13   2.769123 S    
C18   O27   1.218703 D    
O38   H50   1.013098 S    
N1    C18   1.387286 Am   
C56   C57   1.396232 A    
C39   O26   1.221419 D    
C21   C22   1.335728 D    
C81   O54   1.389508 S    
C5    H8    1.100031 S    
C71   O35   1.217725 D    
C12   C72   1.501827 S    
C9    C69   1.516785 S    
C8    C9    1.534355 S    
C60   C62   1.425259 A    
C7    H13   1.109472 S    
C31   C50   1.412661 A    
P2    C54   1.878555 S    
C8    H16   1.112182 S    
Ba2   O21   2.879958 S    
C53   C59   1.410454 A    
C63   C64   1.395083 A    
C7    H15   1.106691 S    
C30   C33   1.415263 A    
C53   C61   1.423851 A    
C47   C52   1.427625 A    
C76   O44   1.213649 D    
P5    C64   1.879632 S    
C12   H22   1.101363 S    
P1    O1    1.560451 D    
C4    C5    1.523848 S    
C11   C71   1.516257 S    
O43   H53   1.013759 S    
C34   C35   1.403475 A    
C45   C46   1.422178 A    
P1    C42   1.880005 S    
C14   H24   1.098467 S    
O12   Ba2   2.786517 S    
P4    Ba2   3.413763 S    
P5    O18   1.548499 D    
C19   C20   1.512259 S    
P2    Ba1   3.464306 S    
C80   H58   1.068132 S    
C74   O41   1.214981 D    
P3    C56   1.846704 S    
C30   C32   1.420211 A    
C40   C78   1.490789 S    
C52   C79   1.486302 S    
C4    H6    1.100816 S    
C6    H12   1.110130 S    
C26   H30   1.083434 S    
O51   H57   1.013774 S    
C1    C10   1.543165 S    
C26   C48   1.398191 A    
C31   C47   1.429015 A    
C1    H2    1.111663 S    
C2    H4    1.104970 S    
C61   C65   1.424722 A    
C50   H36   1.079768 S    
C45   C48   1.416402 A    
C9    H18   1.098215 S    
O49   H56   1.013940 S    
N2    C44   1.462925 S    
O13   Ba2   3.003237 S    
C54   C59   1.436484 A    
C71   O36   1.397899 S    
C66   H44   1.079414 S    
C3    H5    1.107222 S    
C67   O30   1.399683 S    
C69   O33   1.397057 S    
C53   H43   1.073920 S    
C72   O38   1.392493 S    
C1    C70   1.502889 S    
O8    Ba1   2.778913 S    
C15   O24   1.413738 S    
H1    C10   1.113965 S    
C81   O53   1.222976 D    
C38   N2    1.385141 Am   
C21   C28   1.328057 D    
C75   O43   1.395812 S    
C31   C32   1.416528 A    
C70   O34   1.220716 D    
C73   O40   1.394217 S    
C63   H42   1.082330 S    
C29   C80   1.447508 S    
Ba1   Ba2   4.688844 S    
C68   H46   1.085622 S    
O17   Ba2   2.779702 S    
C4    O15   1.394388 S    
P7    O21   1.579551 D    
C82   H60   1.085824 S    
P4    C21   1.843427 S    
C35   C36   1.407057 A    
O4    P6    1.540443 D    
C28   H39   1.085201 S    
H27   C16   1.111668 S    
C15   C76   1.495071 S    
C15   H26   1.079429 S    
C79   O51   1.398807 S    
C13   C74   1.479393 S    
C60   C66   1.414131 A    
C55   H40   1.066833 S    
C65   C81   1.457248 S    
Ba2   O20   2.823321 S    
C22   C23   1.507622 S    
C2    H3    1.113251 S    
C11   H20   1.108612 S    
C73   O39   1.221581 D    
C14   C75   1.513216 S    
C18   C27   1.409904 A    
P1    O5    1.753269 S    
C12   H21   1.114022 S    
P1    O2    1.530091 S    
C78   O49   1.398875 S    
P8    C20   1.878302 S    
O2    Ba1   3.002309 S    
P4    O12   1.560783 D    
C15   C16   1.556438 S    
C22   H29   1.085593 S    
P2    O10   1.753619 S    
O7    Ba1   2.879768 S    
C11   O22   1.404250 S    
C33   C34   1.397590 A    
C24   C27   1.403214 A    
C67   O29   1.218009 D    
O11   C2    1.402403 S    
C6    C7    1.525892 S    
C43   C44   1.509148 S    
C60   C61   1.414001 A    
P4    O13   1.530060 S    
O14   P8    1.746931 S    
N1    C23   1.464745 S    
O19   C13   1.441396 S    
O6    C10   1.399739 S    
C80   O52   1.213044 D    
C13   C14   1.571208 S    
Ba1   O16   2.823986 S    
P3    O8    1.756455 S    
P3    O9    1.542041 D    
C29   C42   1.328874 D    
C69   O32   1.221542 D    
C30   C45   1.432660 A    
O1    Ba1   2.785947 S    
C40   C41   1.530284 S    
C8    C67   1.501256 S    
O36   H49   1.010029 S    
C49   H35   1.084128 S    
C75   O42   1.223752 D    
C17   N1    1.385498 Am   
C70   H48   1.084749 S    
N2    C39   1.387999 Am   
C35   C39   1.416455 A    
O54   H59   1.008255 S    
C9    H17   1.106952 S    
O3    P6    1.759872 S    
C62   C63   1.401886 A    
C40   C44   1.371825 D    
C6    H11   1.106278 S    
C79   O50   1.223473 D    
P8    O23   1.541337 D    
C49   C52   1.399588 A    
C46   C47   1.423992 A    
C55   C56   1.391591 A    
C58   C59   1.420131 A    
C43   H38   1.080796 S    
C5    H9    1.107846 S    
C48   H33   1.077617 S    
P6    C41   1.907156 S    
C64   C65   1.413676 A    
C58   C66   1.407248 A    
C3    C82   1.502461 S    
O45   H54   1.013219 S    
O40   H51   1.014350 S    
C32   C36   1.430618 A    
C42   C43   1.329942 D    
C78   O48   1.221408 D    
C33   H32   1.077656 S    
P8    O24   1.764810 S    
O2    Ba2   2.769533 S    
C54   C55   1.393492 A    
P4    O15   1.735592 S    
C13   C73   1.520100 S    
O16   Ba2   2.979900 S    
O14   Ba2   2.789586 S    
P5    O17   1.757051 S    
P1    Ba1   3.412953 S    
P7    C62   1.842765 S    
C76   O45   1.400708 S    
O5    C6    1.404172 S    
C7    H14   1.105723 S    
Ba1   O20   2.980941 S    
C4    H7    1.111677 S    
C19   H34   1.082265 S    
C24   C46   1.430418 A    
C36   C37   1.410184 A    
C37   C51   1.401393 A    
O33   H47   1.013337 S    
C77   O47   1.395975 S    
C57   H41   1.083795 S    
C29   C41   1.517544 S    
C17   O25   1.221726 D    
C51   H37   1.083439 S    
P3    O11   1.745375 S    
P5    O19   1.794059 S    
C38   O28   1.222322 D    
C24   C25   1.411625 A    
C1    C68   1.513416 S    
C5    H10   1.108647 S    
C14   H25   1.108154 S    
C74   H52   1.075467 S    
C27   C49   1.401058 A    
C37   C38   1.414403 A    
C82   O55   1.220336 D    
C16   C77   1.508447 S    
C16   H28   1.107280 S    
C77   O46   1.222556 D    
C17   C25   1.423274 A    
C34   H31   1.083513 S    
C20   C28   1.507320 S    
O6    P6    1.744793 S    
C25   C26   1.402386 A    
P2    O20   1.582210 S    
C11   C12   1.542587 S    
O3    Ba1   2.790093 S    
C57   C58   1.408558 A    
O10   C8    1.399991 S    
C50   C51   1.393355 A    
O30   H45   1.014005 S    
