data_mof_unit_51720.cif
_audit_creation_date              2012-12-11T20:00:33-0500
_audit_creation_method            fapswitch 2.2
_symmetry_space_group_name_H-M    P1
_symmetry_Int_Tables_number       1
_space_group_crystal_system       triclinic
_cell_length_a                    8.299011
_cell_length_b                    16.331674
_cell_length_c                    26.828678
_cell_angle_alpha                 72.602676
_cell_angle_beta                  96.616815
_cell_angle_gamma                 96.093195
_cell_volume                      3436.94176618

loop_
_atom_site_label
_atom_site_type_symbol
_atom_type_description
_atom_site_fract_x
_atom_site_fract_y
_atom_site_fract_z
_atom_type_partial_charge
Ba1   Ba    Ba6+2 0.337820 0.939830 0.518500 1.629032
Ba2   Ba    Ba6+2 0.851970 0.060110 0.481480 1.628576
C1    C     C_3   0.079133 0.537534 0.607811 -0.378513
C2    C     C_R   0.421620 0.387182 0.187596 0.575183
C3    C     C_2   0.247599 0.249704 0.272468 -0.092745
C4    C     C_3   0.541854 0.636499 0.633751 0.311696
C5    C     C_3   0.201424 0.192043 0.325565 -0.039045
C6    C     C_1   0.473660 0.141728 0.341213 0.040925
C7    C     C_2   0.513835 0.188140 0.293681 -0.105792
C8    C     C_2   0.396160 0.247148 0.256410 0.197780
C9    C     C_R   0.518705 0.399483 0.102654 -0.078000
C10   C     C_R   0.537517 0.310369 0.119954 -0.035400
C11   C     C_R   0.595841 0.272172 0.085975 -0.061557
C12   C     C_3   0.089568 0.633983 0.601264 0.329748
C13   C     C_R   0.460324 0.437877 0.136890 -0.028857
C14   C     C_2   0.350323 0.160700 0.361479 -0.289539
C15   C     C_2   0.844330 0.842126 0.638624 -0.286925
C16   C     C_3   0.476392 0.572033 0.682670 -0.350761
C17   C     C_R   0.655015 0.460827 0.965467 0.019879
C18   C     C_R   0.576270 0.590600 0.982770 0.019963
C19   C     C_R   0.634875 0.550745 0.948640 0.050095
C20   C     C_R   0.713305 0.424620 0.929756 -0.100069
C21   C     C_R   0.750684 0.474469 0.879846 -0.061266
C22   C     C_R   0.732195 0.563043 0.862807 -0.029517
C23   C     C_3   0.071932 0.026720 0.649502 0.300694
C24   C     C_R   0.673988 0.601430 0.897086 -0.077847
C25   C     C_R   0.655312 0.690561 0.879830 -0.035335
C26   C     C_R   0.696215 0.740041 0.829059 0.592391
C27   C     C_R   0.770877 0.613794 0.812097 0.576388
C28   C     C_3   0.601362 0.886234 0.389449 0.306284
C29   C     C_2   0.945939 0.752256 0.727656 -0.093967
C30   C     C_3   0.992761 0.810086 0.674645 -0.036120
C31   C     C_1   0.718770 0.859238 0.658759 0.040648
C32   C     C_2   0.678262 0.812183 0.706077 -0.105854
C33   C     C_2   0.796614 0.753908 0.743430 0.199208
C34   C     C_3   0.056916 0.001138 0.708266 -0.368106
C35   C     C_R   0.616479 0.410297 0.016976 0.019926
C36   C     C_R   0.557818 0.450152 0.051095 0.050052
C37   C     C_R   0.537606 0.540062 0.034254 0.019934
C38   C     C_R   0.634497 0.320628 0.035902 -0.099309
C39   C     C_R   0.441653 0.526430 0.119820 -0.061297
C40   C     C_3   0.577595 0.814570 0.363235 -0.380810
C41   C     C_R   0.558446 0.680287 0.963884 -0.099369
C42   C     C_R   0.597134 0.728758 0.913829 -0.061657
C43   C     C_R   0.479082 0.576263 0.069925 -0.100340
C44   C     C_2   0.404697 0.246370 0.512137 -0.283098
C45   C     C_3   0.649727 0.363364 0.364054 0.312317
C46   C     C_R   0.799494 0.760678 0.490190 -0.296306
C47   C     C_2   0.249993 0.315610 0.558813 -0.131362
C48   C     C_2   0.268106 0.247359 0.542519 0.041294
C49   C     C_2   0.511118 0.314882 0.497976 0.026646
C50   C     C_3   0.467097 0.400399 0.501454 -0.050043
C51   C     C_3   0.373332 0.391613 0.549089 0.018499
C52   C     C_3   0.595374 0.114549 0.609930 0.307130
C53   C     C_2   0.606343 0.466799 0.499120 -0.069203
C54   C     C_2   0.574504 0.549250 0.486006 -0.073884
C55   C     C_R   0.842418 0.617764 0.457932 -0.001516
C56   C     C_3   0.717163 0.425544 0.314740 -0.343060
C57   C     C_R   0.703548 0.618898 0.482837 -0.040307
C58   C     C_R   0.956293 0.688495 0.447800 -0.134792
C59   C     C_R   0.932162 0.761155 0.462551 0.074072
C60   C     C_R   0.682213 0.690971 0.499211 0.018291
C61   C     C_3   0.628602 0.187475 0.635043 -0.377996
C62   C     C_3   0.127690 0.980998 0.353762 0.304845
C63   C     C_3   0.144365 0.002681 0.295216 -0.371166
C64   C     C_3   0.467168 0.369048 0.360172 -0.319920
C65   C     C_3   0.725365 0.634603 0.637926 -0.317672
C66   C     C_3   0.103488 0.365827 0.399610 0.332493
C67   C     C_3   0.111849 0.462100 0.393269 -0.371685
C68   C     C_R   0.496608 0.260916 0.170745 0.592782
H1    H     H_    0.202838 0.663284 0.583290 0.120086
H2    H     H_    0.251078 0.979006 0.374520 0.027577
H3    H     H_    0.061411 0.030903 0.361468 0.034379
H4    H     H_    0.061692 0.526485 0.568581 0.086522
H5    H     H_    0.201387 0.950146 0.286931 0.139745
H6    H     H_    0.222170 0.062971 0.281517 0.076924
H7    H     H_    0.022597 0.010539 0.273104 0.122487
H8    H     H_    0.986206 0.661467 0.573669 -0.005446
H9    H     H_    0.975853 0.503848 0.630486 0.119157
H10   H     H_    0.947444 0.028240 0.629269 0.030235
H11   H     H_    0.138926 0.978305 0.640391 0.034828
H12   H     H_    0.653091 0.830834 0.329505 0.133420
H13   H     H_    0.997266 0.051303 0.718184 0.139279
H14   H     H_    0.982043 0.939449 0.720838 0.075918
H15   H     H_    0.179423 0.993872 0.729917 0.124796
H16   H     H_    0.192496 0.509003 0.628355 0.134840
H17   H     H_    0.537159 0.585631 0.718747 0.118204
H18   H     H_    0.675421 0.297633 0.365130 0.101418
H19   H     H_    0.848591 0.419744 0.315147 0.153221
H20   H     H_    0.657418 0.410071 0.279106 0.114973
H21   H     H_    0.697505 0.493050 0.312026 0.124562
H22   H     H_    0.207564 0.338557 0.426932 -0.009227
H23   H     H_    0.613793 0.753153 0.391282 0.058753
H24   H     H_    0.991238 0.335772 0.417862 0.124466
H25   H     H_    0.219216 0.495809 0.372774 0.114032
H26   H     H_    0.121140 0.472746 0.432539 0.086950
H27   H     H_    0.510811 0.701029 0.633285 0.103619
H28   H     H_    0.000986 0.490655 0.370557 0.137623
H29   H     H_    0.632120 0.183950 0.281556 0.131381
H30   H     H_    0.612061 0.203838 0.098015 0.122209
H31   H     H_    0.036827 0.713831 0.754162 0.106860
H32   H     H_    0.794904 0.442835 0.854448 0.122175
H33   H     H_    0.731892 0.357361 0.938902 0.069408
H34   H     H_    0.447584 0.805988 0.349034 0.122614
H35   H     H_    0.678428 0.285040 0.013040 0.069497
H36   H     H_    0.156869 0.288504 0.246146 0.108230
H37   H     H_    0.397252 0.558069 0.145185 0.122230
H38   H     H_    0.514713 0.715898 0.986768 0.069471
H39   H     H_    0.581067 0.797108 0.901819 0.122229
H40   H     H_    0.559585 0.815770 0.718140 0.130394
H41   H     H_    0.460270 0.643497 0.060757 0.069363
H42   H     H_    0.352737 0.150346 0.403469 0.080540
H43   H     H_    0.844214 0.854525 0.596531 0.081365
H44   H     H_    0.154481 0.313265 0.583761 0.083367
H45   H     H_    0.464699 0.108500 0.597104 0.003042
H46   H     H_    0.058784 0.687972 0.426388 0.096082
H47   H     H_    0.424278 0.186587 0.504714 0.060685
H48   H     H_    0.782284 0.817022 0.501693 0.070748
H49   H     H_    0.730134 0.448378 0.510838 0.100763
H50   H     H_    0.345161 0.577428 0.683086 0.149497
H51   H     H_    0.448804 0.565554 0.477619 0.104795
H52   H     H_    0.496308 0.505187 0.683959 0.126423
H53   H     H_    0.731345 0.895015 0.402622 0.012325
H54   H     H_    0.527023 0.867891 0.423523 0.063739
H55   H     H_    0.409987 0.366721 0.321204 0.151508
H56   H     H_    0.668605 0.129825 0.575760 0.072215
H57   H     H_    0.441171 0.429850 0.366898 0.123044
H58   H     H_    0.414585 0.313338 0.390010 0.040500
H59   H     H_    0.756336 0.574666 0.631241 0.122682
H60   H     H_    0.775887 0.691288 0.608223 0.040017
H61   H     H_    0.780306 0.637630 0.677011 0.147279
H62   H     H_    0.551165 0.175871 0.667957 0.131174
H63   H     H_    0.601750 0.249732 0.605924 0.059832
H64   H     H_    0.758649 0.191570 0.650185 0.124197
N1    N     N_R   0.439465 0.299297 0.204245 -0.423007
N2    N     N_R   0.753261 0.701681 0.795543 -0.423075
O1    O     O_2   0.431310 0.922990 0.623550 -0.462135
O2    O     O_2   0.845763 0.307237 0.503392 -0.499146
O3    O     O_3   0.724611 0.386057 0.408539 -0.609529
O4    O     O_3   0.663280 0.983100 0.563360 -0.496442
O5    O     O_3   0.016420 0.932050 0.462720 -0.486062
O6    O     O_2   0.959730 0.164640 0.549160 -0.459024
O7    O     O_3   0.157760 0.107618 0.634842 -0.639331
O8    O     O_2   0.886805 0.232678 0.334602 -0.507184
O9    O     O_3   0.107154 0.350650 0.350687 -0.610635
O10   O     O_2   0.509557 0.183321 0.184731 -0.597257
O11   O     O_2   0.819330 0.579366 0.782572 -0.608302
O12   O     O_3   0.039270 0.901355 0.369446 -0.634175
O13   O     O_2   0.372956 0.421694 0.217038 -0.609955
O14   O     O_2   0.683302 0.817641 0.815089 -0.597145
O15   O     O_3   0.126250 0.812630 0.574830 -0.490498
O16   O     O_2   0.305761 0.768117 0.664815 -0.505973
O17   O     O_3   0.637318 0.038191 0.647358 -0.627190
O18   O     O_3   0.084820 0.649850 0.649969 -0.608327
O19   O     O_2   0.229950 0.835370 0.450810 -0.464334
O20   O     O_3   0.517580 0.797570 0.545130 -0.492426
O21   O     O_2   0.345720 0.694807 0.494913 -0.501329
O22   O     O_3   0.471166 0.613907 0.588727 -0.607575
O23   O     O_2   0.758370 0.077020 0.376420 -0.462124
O24   O     O_3   0.526390 0.016840 0.436620 -0.497919
O25   O     O_3   0.063420 0.187310 0.425160 -0.483691
O26   O     O_3   0.552768 0.961851 0.352608 -0.626984
O27   O     O_3   0.173250 0.067890 0.537260 -0.476104
O28   O     O_3   0.672100 0.202370 0.454860 -0.489867
P1    P     P_3+3 0.610630 0.953360 0.619150 0.994290
P2    P     P_3+3 0.057260 0.861390 0.437850 0.985339
P3    P     P_3+3 0.502754 0.699077 0.531401 0.923855
P4    P     P_3+3 0.579040 0.046590 0.380840 0.992694
P5    P     P_3+3 0.689599 0.302882 0.466458 0.925119
P6    P     P_3+3 0.127029 0.760731 0.641909 0.946137
P7    P     P_3+3 0.143018 0.147394 0.566441 0.952239
P8    P     P_3+3 0.064785 0.239977 0.358221 0.945086

loop_
_geom_bond_atom_site_label_1
_geom_bond_atom_site_label_2
_ccdc_geom_bond_type
C6    C7    D    
C53   C54   D    
C26   O14   D    
Ba2   P4    S    
C9    C36   A    
C40   H23   S    
O12   P2    S    
C12   H1    S    
C40   H12   S    
C19   C24   A    
C67   H26   S    
C1    H9    S    
O21   P3    D    
C52   O17   S    
O1    P1    D    
C15   H43   S    
C65   H59   S    
C64   H57   S    
C2    O13   D    
C52   H56   S    
C24   C25   A    
C63   H6    S    
C29   H31   S    
C17   C19   A    
C22   C24   A    
Ba1   Ba2   S    
C35   C38   A    
C36   C37   A    
C32   C33   S    
Ba1   O1    S    
C55   C57   A    
C21   H32   S    
O6    P7    D    
C52   C61   S    
C34   H13   S    
C23   H10   S    
C12   H8    S    
O23   P4    D    
O18   P6    S    
C59   P2    S    
Ba1   O19   S    
C1    H4    S    
C22   C27   A    
C11   C38   A    
C30   P6    S    
C17   C35   A    
O25   P8    S    
C9    C13   A    
C25   C42   A    
C61   H63   S    
Ba2   O23   S    
C21   C22   A    
O3    P5    S    
C48   P7    S    
C68   O10   D    
C45   H18   S    
C6    P4    S    
C56   H21   S    
C45   C64   S    
C50   C53   S    
C37   C43   A    
C42   H39   S    
C44   C48   S    
C62   H2    S    
C60   P3    S    
O9    P8    S    
C6    C14   D    
C5    P8    S    
C62   O12   S    
C1    H16   S    
C23   H11   S    
O28   P5    S    
C23   O7    S    
C15   C31   D    
Ba2   O25   S    
C4    O22   S    
O22   P3    S    
C3    H36   S    
C4    C16   S    
C31   P1    S    
C63   H7    S    
C49   C50   S    
C61   H64   S    
C49   P5    S    
C17   C20   A    
C8    N1    S    
C13   C39   A    
Ba2   O28   S    
C3    C5    S    
C18   C37   A    
C66   C67   S    
C55   C58   A    
C46   H48   S    
O20   P3    S    
C44   C49   D    
C66   H24   S    
C20   H33   S    
C44   H47   S    
C58   C59   A    
O15   P6    S    
C33   N2    S    
Ba1   O20   S    
C41   C42   A    
C4    H27   S    
C35   C36   A    
O16   P6    D    
C46   C60   A    
C29   C30   S    
C54   C57   S    
Ba1   P1    S    
C62   H3    S    
C52   H45   S    
C31   C32   D    
O5    P2    S    
C61   H62   S    
C10   C11   A    
C28   H53   S    
C56   H20   S    
Ba1   O4    S    
C16   H52   S    
C2    N1    Am   
O26   P4    S    
Ba2   O24   S    
C4    C65   S    
C28   H54   S    
C68   N1    Am   
Ba2   O6    S    
C29   C33   D    
C58   H46   S    
C65   H60   S    
C28   O26   S    
C16   H50   S    
C18   C41   A    
O27   P7    S    
C50   C51   S    
C14   H42   S    
C7    C8    S    
O4    P1    S    
C15   C30   S    
C10   C68   A    
C5    C14   S    
C57   C60   A    
C39   H37   S    
O17   P1    S    
C26   N2    Am   
Ba1   O24   S    
C65   H61   S    
C34   H14   S    
C67   H25   S    
C40   H34   S    
Ba2   O27   S    
C27   O11   D    
C9    C10   A    
C43   H41   S    
C1    C12   S    
C34   H15   S    
O8    P8    D    
C16   H17   S    
C63   H5    S    
C64   H55   S    
Ba2   O4    S    
C54   H51   S    
C2    C13   A    
O7    P7    S    
C3    C8    D    
C67   H28   S    
C45   C56   S    
C47   H44   S    
C46   C59   A    
Ba1   P2    S    
C11   H30   S    
C47   C51   S    
C62   C63   S    
C66   H22   S    
C64   H58   S    
Ba1   O15   S    
C41   H38   S    
O24   P4    S    
C56   H19   S    
Ba1   O5    S    
C23   C34   S    
C53   H49   S    
C27   N2    Am   
C18   C19   A    
Ba1   O27   S    
C7    H29   S    
C47   C48   D    
C45   O3    S    
C25   C26   A    
Ba2   O5    S    
C39   C43   A    
C20   C21   A    
C28   C40   S    
O19   P2    D    
C32   H40   S    
C12   O18   S    
C66   O9    S    
C38   H35   S    
O2    P5    D    
