data_mof_unit_68222.cif
_audit_creation_date              2013-03-05T16:09:37-0500
_audit_creation_method            fapswitch 2.2
_symmetry_space_group_name_H-M    P1
_symmetry_Int_Tables_number       1
_space_group_crystal_system       triclinic
_cell_length_a                    14.641848
_cell_length_b                    7.266123
_cell_length_c                    13.545748
_cell_angle_alpha                 90.005559
_cell_angle_beta                  99.93269
_cell_angle_gamma                 89.999789
_cell_volume                      1419.52400573

loop_
_atom_site_label
_atom_site_type_symbol
_atom_site_description
_atom_site_fract_x
_atom_site_fract_y
_atom_site_fract_z
_atom_type_partial_charge
O1    O     O_R   0.398210 0.494340 0.401550 -0.599517
O2    O     O_R   0.601790 0.994340 0.598450 -0.599473
O3    O     O_R   0.586310 0.821730 0.403360 -0.563283
O4    O     O_R   0.413690 0.321730 0.596640 -0.563228
C1    C     C_R   0.614820 0.656280 0.381926 0.991630
C2    C     C_R   0.385171 0.156288 0.618061 0.991628
O5    O     O_R   0.397970 0.823900 0.389580 -0.583260
O6    O     O_R   0.602030 0.323900 0.610420 -0.583212
O7    O     O_R   0.412100 0.996500 0.584560 -0.574072
O8    O     O_R   0.587900 0.496500 0.415440 -0.574024
C3    C     C_R   0.364960 0.655582 0.363340 0.984254
C4    C     C_R   0.635041 0.155591 0.636660 0.984305
O9    O     O_3   0.504860 0.661550 0.563990 -0.260849
O10   O     O_3   0.495140 0.161550 0.436010 -0.260905
V1    V     V_3+5 0.499100 0.935510 0.488130 1.268376
V2    V     V_3+5 0.500900 0.435510 0.511870 1.268442
C5    C     C_1   0.716522 0.146463 0.716262 -0.190120
C6    C     C_1   0.283481 0.646442 0.283735 -0.190185
C7    C     C_1   0.784535 0.135777 0.782631 -0.163043
C8    C     C_1   0.215469 0.635776 0.217363 -0.163080
C9    C     C_3   0.201331 0.333102 0.776831 0.082496
C10   C     C_3   0.798760 0.833170 0.223289 0.082582
H1    H     H_    0.227903 0.409609 0.846970 0.207347
H2    H     H_    0.772264 0.909705 0.153155 0.207626
C11   C     C_3   0.275720 0.346148 0.707744 0.135908
C12   C     C_3   0.724279 0.846180 0.292281 0.135937
H3    H     H_    0.243961 0.403144 0.633963 0.172011
H4    H     H_    0.755949 0.903244 0.366080 0.172084
C13   C     C_3   0.156670 0.005251 0.713400 0.091872
C14   C     C_3   0.843473 0.505505 0.286774 0.091608
C15   C     C_3   0.287861 0.052267 0.865698 0.684236
C16   C     C_3   0.712264 0.552321 0.134351 0.684228
C17   C     C_3   0.187035 0.127361 0.810637 -0.484107
C18   C     C_3   0.813066 0.627431 0.189470 -0.483842
C19   C     C_3   0.313736 0.150199 0.687864 -0.377501
C20   C     C_3   0.686287 0.650196 0.312151 -0.377582
C21   C     C_3   0.231636 0.018679 0.643181 0.032042
C22   C     C_3   0.768404 0.518765 0.356887 0.032237
C23   C     C_3   0.358182 0.068081 0.790110 -0.449259
C24   C     C_3   0.641903 0.567996 0.209891 -0.449114
H5    H     H_    0.421558 0.144039 0.823768 0.234600
H6    H     H_    0.578519 0.643909 0.176216 0.234475
H7    H     H_    0.386558 0.931271 0.775106 0.217704
H8    H     H_    0.613570 0.431127 0.224842 0.217771
H9    H     H_    0.158162 0.860473 0.738305 0.166656
H10   H     H_    0.842201 0.360669 0.262030 0.167214
H11   H     H_    0.262061 0.878434 0.643975 0.162070
H12   H     H_    0.738014 0.378470 0.356012 0.162028
O11   O     O_R   0.912140 0.786650 0.084610 -0.569415
O12   O     O_R   0.087860 0.286650 0.915390 -0.569409
O13   O     O_R   0.102040 0.454810 0.110430 -0.595445
O14   O     O_R   0.897960 0.954810 0.889570 -0.595353
C25   C     C_R   0.134690 0.623860 0.137030 1.036661
C26   C     C_R   0.865312 0.123855 0.862966 1.036248
O15   O     O_R   0.913690 0.457060 0.096650 -0.544420
O16   O     O_R   0.086310 0.957060 0.903350 -0.544034
O17   O     O_R   0.898200 0.284560 0.901540 -0.588201
O18   O     O_R   0.101800 0.784560 0.098460 -0.587986
C27   C     C_R   0.884467 0.624189 0.117698 1.005164
C28   C     C_R   0.115596 0.124167 0.882371 1.005364
O19   O     O_3   0.995160 0.617270 0.936040 -0.248406
O20   O     O_3   0.004840 0.117270 0.063960 -0.248516
V3    V     V_3+5 0.000900 0.343280 0.011870 1.305693
V4    V     V_3+5 0.999100 0.843280 0.988130 1.305921
N1    N     N_R   0.114948 0.426906 0.730414 0.256573
O21   O     O_R   0.081662 0.558331 0.778644 -0.311363
O22   O     O_R   0.080988 0.407628 0.635807 -0.236906
N2    N     N_R   0.885140 0.926892 0.269835 0.256691
O23   O     O_R   0.918717 0.057856 0.221554 -0.310816
O24   O     O_R   0.918838 0.908031 0.364534 -0.237203
N3    N     N_R   0.349585 0.476128 0.750010 0.246575
O25   O     O_R   0.367003 0.617396 0.697463 -0.406342
O26   O     O_R   0.395117 0.458745 0.840853 -0.324388
N4    N     N_R   0.650410 0.976080 0.249938 0.246649
O27   O     O_R   0.632919 0.117360 0.302452 -0.406244
O28   O     O_R   0.604997 0.958700 0.159040 -0.324216
N5    N     N_R   0.060873 0.030934 0.659652 0.305221
O29   O     O_R   0.031210 0.925149 0.583302 -0.192239
O30   O     O_R   0.998900 0.115141 0.701252 -0.352811
N6    N     N_R   0.939215 0.531697 0.340587 0.305137
O31   O     O_R   0.968907 0.426353 0.417108 -0.192151
O32   O     O_R   0.001180 0.615631 0.298855 -0.353049
N7    N     N_R   0.194042 0.056544 0.537059 0.273425
O33   O     O_R   0.156560 0.213561 0.507605 -0.283774
O34   O     O_R   0.199856 0.930703 0.470027 -0.327830
N8    N     N_R   0.805874 0.556600 0.463048 0.273457
O35   O     O_R   0.843158 0.713746 0.492604 -0.283996
O36   O     O_R   0.800103 0.430631 0.530012 -0.327820
N9    N     N_R   0.292424 0.854879 0.897385 0.188226
O37   O     O_R   0.219808 0.753725 0.899056 -0.431414
O38   O     O_R   0.372863 0.783905 0.934057 -0.357551
N10   N     N_R   0.707757 0.354992 0.102546 0.188192
O39   O     O_R   0.780392 0.253163 0.102128 -0.431188
O40   O     O_R   0.627387 0.283984 0.065613 -0.357927
O41   O     O_3   0.321769 0.169879 0.949191 -0.640840
C29   C     C_3   0.307968 0.098237 0.043021 0.272093
H13   H     H_    0.362062 0.994035 0.069910 0.173719
H14   H     H_    0.238383 0.034601 0.038463 0.072156
C30   C     C_3   0.317605 0.249348 0.121645 -0.352030
H15   H     H_    0.390071 0.301575 0.135828 0.242591
H16   H     H_    0.270778 0.364615 0.093590 0.213503
C31   C     C_3   0.292924 0.173122 0.218910 -0.836282
H17   H     H_    0.219401 0.127525 0.207027 0.277171
H18   H     H_    0.302651 0.279124 0.278023 0.278731
H19   H     H_    0.338484 0.054917 0.245498 0.265122
O42   O     O_3   0.678390 0.670030 0.050894 -0.640873
C32   C     C_3   0.692117 0.598412 0.957022 0.271815
H20   H     H_    0.637940 0.494391 0.930095 0.173809
H21   H     H_    0.761657 0.534576 0.961538 0.071765
C33   C     C_3   0.682543 0.749559 0.878442 -0.351743
H22   H     H_    0.610102 0.801917 0.864283 0.242521
H23   H     H_    0.729420 0.864734 0.906527 0.213460
C34   C     C_3   0.707172 0.673295 0.781149 -0.836158
H24   H     H_    0.780682 0.627631 0.793000 0.277221
H25   H     H_    0.697450 0.779289 0.722044 0.278702
H26   H     H_    0.661578 0.555128 0.754558 0.265054

loop_
_geom_bond_atom_site_label_1
_geom_bond_atom_site_label_2
_geom_bond_distance
_ccdc_geom_bond_type
C29   C30   1.519113 S    
C3    C6    1.465129 S    
O15   C27   1.334584 A    
O41   C29   1.419850 S    
O1    C3    1.338191 A    
O2    C4    1.338169 A    
C2    O7    1.330802 A    
C23   H5    1.107958 S    
N5    O29   1.301514 A    
O5    C3    1.340288 A    
N4    O28   1.300640 A    
C22   N8    1.473846 S    
O15   V3    2.034344 S    
C19   C21   1.572740 S    
N8    O36   1.301662 A    
C9    C17   1.587946 S    
O42   C32   1.419907 S    
C1    C20   1.526901 S    
C13   C17   1.586666 S    
C2    C19   1.526829 S    
C14   C22   1.574653 S    
C31   H19   1.108858 S    
C33   H22   1.111934 S    
C12   N4    1.475051 S    
N7    O33   1.298677 A    
N2    O23   1.298456 A    
C15   N9    1.495321 S    
C29   H14   1.110853 S    
C4    C5    1.465135 S    
C32   H20   1.110725 S    
O16   V4    2.034436 S    
C11   N3    1.475035 S    
N9    O38   1.303109 A    
C22   H12   1.111525 S    
C34   H26   1.108881 S    
C14   N6    1.476541 S    
C24   H6    1.107988 S    
O6    V2    1.987604 S    
O11   V4    2.018076 S    
C16   O42   1.436056 S    
O12   V3    2.018021 S    
C32   H21   1.110909 S    
O14   C26   1.344529 A    
O17   V3    1.975183 S    
N5    O30   1.300615 A    
O18   V4    1.975244 S    
C10   C18   1.587920 S    
N4    O27   1.299278 A    
C14   C18   1.586872 S    
C20   C24   1.545027 S    
O13   V3    1.987431 S    
O4    C2    1.321179 A    
O14   V4    1.987532 S    
N3    O26   1.300630 A    
N8    O35   1.298703 A    
C8    C25   1.465089 S    
C23   H7    1.109597 S    
N1    O22   1.299723 A    
O16   C28   1.334564 A    
C13   H9    1.103846 S    
O13   C25   1.344499 A    
C16   C18   1.628933 S    
O4    V2    2.034345 S    
O19   V4    1.784321 S    
C19   C23   1.544979 S    
O20   V3    1.784447 S    
C30   H15   1.111930 S    
C24   H8    1.109588 S    
O6    C4    1.340293 A    
C29   H13   1.110758 S    
N10   O40   1.303124 A    
O1    V2    1.975240 S    
C31   H18   1.102379 S    
O2    V1    1.975179 S    
C33   C34   1.528977 S    
C10   N2    1.478424 S    
C11   C19   1.568801 S    
C7    C26   1.465099 S    
C12   C20   1.568920 S    
N7    O34   1.301657 A    
C17   C28   1.545797 S    
C9    H1    1.111507 S    
C18   C27   1.545736 S    
C32   C33   1.519070 S    
C10   H2    1.111417 S    
C21   H11   1.111461 S    
O3    V1    2.034253 S    
C34   H24   1.111197 S    
C9    C11   1.556525 S    
C15   C17   1.629006 S    
C9    N1    1.478301 S    
C14   H10   1.103631 S    
N6    O31   1.301537 A    
O3    C1    1.321185 A    
C25   O18   1.334785 A    
C11   H3    1.107403 S    
C12   H4    1.107372 S    
O11   C27   1.349561 A    
O12   C28   1.349590 A    
C20   C22   1.572773 S    
O7    V1    2.024641 S    
C1    O8    1.330850 A    
O8    V2    2.024698 S    
C16   N10   1.495280 S    
C15   O41   1.435968 S    
O5    V1    1.987501 S    
N10   O39   1.296388 A    
C5    C7    1.223561 T    
N6    O32   1.300636 A    
C15   C23   1.576513 S    
C6    C8    1.223555 T    
C16   C24   1.576384 S    
C31   H17   1.111198 S    
C33   H23   1.107269 S    
N3    O25   1.299267 A    
C30   C31   1.528936 S    
C13   N5    1.476503 S    
N2    O24   1.299775 A    
N1    O21   1.298457 A    
C10   C12   1.556655 S    
O9    V2    1.784670 S    
C13   C21   1.574561 S    
O10   V1    1.784796 S    
C21   N7    1.473844 S    
N9    O37   1.295957 A    
C30   H16   1.107316 S    
C34   H25   1.102368 S    
C26   O17   1.334734 A    
