data_mof_unit_6467.cif
_audit_creation_date              2012-12-10T16:59:56-0500
_audit_creation_method            fapswitch 2.2
_symmetry_space_group_name_H-M    P1
_symmetry_Int_Tables_number       1
_space_group_crystal_system       triclinic
_cell_length_a                    15.090043
_cell_length_b                    15.078827
_cell_length_c                    10.129161
_cell_angle_alpha                 91.457181
_cell_angle_beta                  91.098364
_cell_angle_gamma                 90.329548
_cell_volume                      2303.57721416

loop_
_atom_site_label
_atom_site_type_symbol
_atom_type_description
_atom_site_fract_x
_atom_site_fract_y
_atom_site_fract_z
_atom_type_partial_charge
C1    C     C_R   0.382125 0.880594 0.497577 1.002053
C2    C     C_2   0.761513 0.170693 0.410520 -0.098535
C3    C     C_2   0.237954 0.299405 0.391192 -0.114724
C4    C     C_2   0.265903 0.666415 0.425210 -0.130162
C5    C     C_2   0.702871 0.834946 0.505214 -0.374893
C6    C     C_2   0.703971 0.164496 0.509660 -0.392385
C7    C     C_2   0.202246 0.335214 0.500237 -0.357955
C8    C     C_2   0.200582 0.668410 0.512993 -0.367704
C9    C     C_2   0.318831 0.250968 0.407706 0.395083
C10   C     C_2   0.338844 0.729120 0.447228 0.440629
C11   C     C_2   0.831873 0.761658 0.423139 0.431303
C12   C     C_R   0.383898 0.120714 0.500150 0.984389
C13   C     C_2   0.835061 0.233111 0.427782 0.447448
C14   C     C_2   0.318571 0.187583 0.498149 -0.434260
C15   C     C_2   0.317950 0.811716 0.488503 -0.415901
C16   C     C_2   0.819687 0.689293 0.496185 -0.430458
C17   C     C_2   0.818500 0.311089 0.489740 -0.444714
C18   C     C_2   0.557177 0.042325 0.931230 0.011598
C19   C     C_2   0.045713 0.446574 0.927786 0.006333
C20   C     C_2   0.541840 0.057247 0.076976 -0.047354
C21   C     C_2   0.060587 0.463836 0.073727 -0.057783
C22   C     C_1   0.741030 0.853816 0.271834 0.382818
C23   C     C_R   0.882353 0.380347 0.497705 0.987985
C24   C     C_1   0.752228 0.121975 0.285836 0.372596
C25   C     C_1   0.193544 0.290712 0.263473 0.327960
C26   C     C_1   0.265974 0.606947 0.310490 0.405278
C27   C     C_1   0.641108 0.071462 0.882503 0.202314
C28   C     C_1   0.076168 0.362715 0.875743 0.226142
C29   C     C_1   0.517608 0.911799 0.111124 0.463050
C30   C     C_1   0.913908 0.479615 0.110448 0.496648
C31   C     C_R   0.883226 0.620276 0.499833 0.986396
C32   C     C_R   0.623372 0.113794 0.501961 0.960674
C33   C     C_R   0.622881 0.885791 0.500237 1.000883
C34   C     C_R   0.122609 0.614512 0.502470 0.987425
C35   C     C_R   0.121559 0.384346 0.499679 1.000709
C36   C     C_2   0.756324 0.819682 0.402699 -0.107808
H1    H     H_    0.721957 0.812510 0.602918 0.176025
H2    H     H_    0.124398 0.447862 0.117328 0.145507
H3    H     H_    0.359228 0.383461 0.186746 0.358821
H4    H     H_    0.515666 0.566971 0.399542 0.400365
H5    H     H_    0.992220 0.906852 0.268009 0.392920
H6    H     H_    0.004714 0.084143 0.296067 0.389981
H7    H     H_    0.258279 0.998999 0.808563 0.376891
H8    H     H_    0.887945 0.697077 0.975094 0.399519
H9    H     H_    0.719139 0.195827 0.605412 0.176090
H10   H     H_    0.237545 0.332348 0.594816 0.165202
H11   H     H_    0.208098 0.707490 0.604432 0.192204
H12   H     H_    0.262846 0.178469 0.563175 0.164735
H13   H     H_    0.249670 0.832381 0.500996 0.148228
H14   H     H_    0.757047 0.674848 0.542411 0.145443
H15   H     H_    0.753487 0.327928 0.526807 0.138816
H16   H     H_    0.564367 0.119188 0.123361 0.185384
N1    N     N_2   0.501330 0.000000 0.852150 0.028905
N2    N     N_1   0.100579 0.294824 0.835325 -0.128976
N3    N     N_1   0.531424 0.838749 0.080578 -0.128924
N4    N     N_1   0.841356 0.462252 0.080252 -0.180878
N5    N     N_2   0.001330 0.500000 0.852150 0.022017
N6    N     N_2   0.501360 0.000000 0.147810 -0.129508
N7    N     N_2   0.001360 0.500000 0.147810 -0.120544
N8    N     N_1   0.729671 0.880539 0.166824 -0.182446
N9    N     N_1   0.745678 0.083425 0.185900 -0.182926
N10   N     N_1   0.158718 0.281921 0.161218 -0.158688
N11   N     N_1   0.266176 0.559552 0.218831 -0.165007
N12   N     N_1   0.709101 0.094718 0.844773 -0.157815
O1    O     O_R   0.409520 0.909540 0.613040 -0.527933
O2    O     O_R   0.590440 0.909540 0.613100 -0.615281
O3    O     O_R   0.090440 0.590460 0.613100 -0.575097
O4    O     O_R   0.090440 0.409540 0.613100 -0.638468
O5    O     O_R   0.590480 0.090460 0.386960 -0.621136
O6    O     O_R   0.590480 0.909540 0.386960 -0.638647
O7    O     O_R   0.090480 0.590460 0.386960 -0.585823
O8    O     O_R   0.090480 0.409540 0.386960 -0.622486
O9    O     O_2   0.495799 0.267746 0.384446 -0.282509
O10   O     O_2   0.410730 0.219037 0.187112 -0.268366
O11   O     O_3   0.401959 0.384653 0.262234 -0.492774
O12   O     O_R   0.409520 0.090460 0.613040 -0.556260
O13   O     O_2   0.488571 0.733311 0.309474 -0.296855
O14   O     O_2   0.503620 0.720551 0.549617 -0.314693
O15   O     O_3   0.452361 0.581399 0.411912 -0.507632
O16   O     O_2   0.008507 0.777293 0.454834 -0.304828
O17   O     O_2   0.951757 0.733385 0.233949 -0.253591
O18   O     O_3   0.934842 0.897560 0.311655 -0.519176
O19   O     O_2   0.962599 0.255696 0.250306 -0.306218
O20   O     O_2   0.009825 0.222236 0.476862 -0.326983
O21   O     O_3   0.944234 0.094361 0.329380 -0.511815
O22   O     O_2   0.369313 0.904701 0.953545 -0.293906
O23   O     O_R   0.909520 0.409540 0.613040 -0.615707
O24   O     O_2   0.366920 0.065353 0.999319 -0.259429
O25   O     O_3   0.317984 0.006649 0.771309 -0.498137
O26   O     O_2   0.061630 0.637967 0.007417 -0.259572
O27   O     O_2   0.005187 0.672864 0.790713 -0.222717
O28   O     O_3   0.891080 0.631811 0.962600 -0.549247
O29   O     O_R   0.909520 0.590460 0.613040 -0.556563
O30   O     O_R   0.409560 0.909540 0.386900 -0.601250
O31   O     O_R   0.409560 0.090460 0.386900 -0.555343
O32   O     O_R   0.909560 0.409540 0.386900 -0.605630
O33   O     O_R   0.909560 0.590460 0.386900 -0.588928
O34   O     O_R   0.590440 0.090460 0.613100 -0.638490
S1    S     S_3+6 0.410268 0.278567 0.308335 0.066312
S2    S     S_3+6 0.449726 0.692587 0.429232 0.038192
S3    S     S_3+6 0.935490 0.790618 0.354542 0.060344
S4    S     S_3+6 0.941602 0.203067 0.369904 0.038399
S5    S     S_3+6 0.389084 0.994175 0.898765 0.141345
S6    S     S_3+6 0.992787 0.612165 0.903871 0.142086
Zn1   Zn    Zn3+2 0.499970 0.000000 0.650990 1.099087
Zn2   Zn    Zn3+2 0.999970 0.500000 0.650990 1.089350
Zn3   Zn    Zn3+2 0.500030 0.000000 0.349010 1.059712
Zn4   Zn    Zn3+2 0.000030 0.500000 0.349010 1.060246

loop_
_geom_bond_atom_site_label_1
_geom_bond_atom_site_label_2
_ccdc_geom_bond_type
C6    C32   S    
C24   N9    T    
O19   S4    D    
C5    H1    S    
O20   S4    D    
O27   S6    D    
C26   N11   T    
C17   H15   S    
O5    Zn3   S    
O17   S3    D    
C19   N5    D    
C16   C31   S    
H7    O25   S    
O34   Zn1   S    
C11   C36   S    
C6    H9    S    
C16   H14   S    
C21   N7    D    
C3    C7    D    
O6    Zn3   S    
C22   N8    T    
C5    C36   D    
C23   O32   A    
O13   S2    D    
N6    Zn3   S    
C2    C13   S    
C18   N1    D    
O33   Zn4   S    
C21   H2    S    
O8    Zn4   S    
C1    O30   A    
C5    C33   S    
C1    O1    A    
C12   O31   A    
C1    C15   S    
H3    O11   S    
H8    O28   S    
C4    C8    D    
C15   H13   S    
N5    Zn2   S    
O32   Zn4   S    
C9    S1    S    
C23   O23   A    
O7    Zn4   S    
O25   S5    S    
C2    C6    D    
O4    Zn2   S    
O22   S5    D    
O1    Zn1   S    
C33   O2    A    
O30   Zn3   S    
C7    H10   S    
O15   S2    S    
C3    C25   S    
C28   N2    T    
C8    C34   S    
C29   N3    T    
C31   O29   A    
C30   N4    T    
C9    C14   D    
C3    C9    S    
O29   Zn2   S    
C11   C16   D    
C30   N7    S    
O11   S1    S    
H4    O15   S    
C11   S3    S    
H6    O21   S    
C17   C23   S    
C10   S2    S    
C19   C28   S    
O26   S6    D    
O10   S1    D    
O31   Zn3   S    
C33   O6    A    
C12   C14   S    
C35   O8    A    
C12   O12   A    
O14   S2    D    
O2    Zn1   S    
C20   N6    D    
O24   S5    D    
O9    S1    D    
N5    S6    S    
C19   C21   S    
C7    C35   S    
C18   C27   S    
C34   O3    A    
C4    C26   S    
O3    Zn2   S    
C32   O5    A    
C22   C36   S    
N7    Zn4   S    
C13   C17   D    
O16   S3    D    
C10   C15   D    
C8    H11   S    
C20   H16   S    
C2    C24   S    
O23   Zn2   S    
C35   O4    A    
N1    S5    S    
H5    O18   S    
O18   S3    S    
C32   O34   A    
C18   C20   S    
C25   N10   T    
C31   O33   A    
C27   N12   T    
O28   S6    S    
N1    Zn1   S    
C29   N6    S    
C14   H12   S    
C13   S4    S    
C4    C10   S    
C34   O7    A    
O12   Zn1   S    
O21   S4    S    
