data_mof_unit_49203.cif
_audit_creation_date              2012-10-26T19:58:13-0400
_audit_creation_method            fapswitch 2.2
_symmetry_space_group_name_H-M    P1
_symmetry_Int_Tables_number       1
_space_group_crystal_system       triclinic
_cell_length_a                    7.421212
_cell_length_b                    8.691188
_cell_length_c                    13.385751
_cell_angle_alpha                 93.998376
_cell_angle_beta                  76.976261
_cell_angle_gamma                 103.233801
_cell_volume                      818.673274146

loop_
_atom_site_label
_atom_site_type_symbol
_atom_type_description
_atom_site_fract_x
_atom_site_fract_y
_atom_site_fract_z
_atom_type_partial_charge
C1    C     C_R   0.545234 0.800258 0.503316 0.536565
C2    C     C_R   0.329763 0.479762 0.808540 -0.016817
C3    C     C_2   0.570611 0.968177 0.505167 -0.143680
C4    C     C_R   0.396817 0.490938 0.695119 0.560803
C5    C     C_2   0.428696 0.031836 0.496074 -0.137540
C6    C     C_R   0.454475 0.199745 0.497198 0.566991
C7    C     C_R   0.602503 0.511408 0.305640 0.530915
C8    C     C_R   0.875850 0.684172 0.051473 -0.132136
C9    C     C_R   0.664693 0.537050 0.194911 -0.008858
C10   C     C_R   0.146383 0.388946 0.853837 0.220924
C11   C     C_R   0.097117 0.368434 0.959568 -0.125656
C12   C     C_R   0.414870 0.500710 0.977330 0.037126
C13   C     C_R   0.228684 0.419708 0.019968 -0.170663
C14   C     C_R   0.458156 0.546382 0.873475 0.007669
C15   C     C_R   0.557983 0.541395 0.035683 0.055130
C16   C     C_R   0.734563 0.641979 0.993867 0.058272
C17   C     C_R   0.765443 0.703248 0.896510 -0.101277
C18   C     C_R   0.628431 0.658648 0.837988 -0.070120
C19   C     C_R   0.530730 0.484340 0.134669 -0.120941
C20   C     C_R   0.840266 0.633373 0.152166 -0.143648
Cu1   Cu    Cu3+1 0.321300 0.483160 0.488710 1.023980
Cu2   Cu    Cu3+1 0.678700 0.516840 0.511290 1.007953
H1    H     H_    0.945773 0.675214 0.197812 0.131194
H2    H     H_    0.657031 0.716425 0.765440 0.144540
H3    H     H_    0.707292 0.039746 0.513823 0.155234
H4    H     H_    0.833900 0.082810 0.873572 0.329746
H5    H     H_    0.291942 0.960274 0.487555 0.138108
H6    H     H_    0.011981 0.619969 0.577824 0.253023
H7    H     H_    0.988373 0.380788 0.421703 0.230396
H8    H     H_    0.896269 0.786129 0.865281 0.111183
H9    H     H_    0.011198 0.761011 0.019872 0.116927
H10   H     H_    0.403650 0.400747 0.168340 0.115421
H11   H     H_    0.178086 0.397089 0.100730 0.109889
H12   H     H_    0.956384 0.306409 0.996310 0.160827
N1    N     N_2   0.947230 0.542220 0.528320 -0.224058
N2    N     N_2   0.052770 0.457780 0.471680 -0.239822
O1    O     O_R   0.383920 0.714220 0.492660 -0.518979
O2    O     O_2   0.059558 0.189778 0.699473 -0.284056
O3    O     O_3   0.787935 0.176572 0.860942 -0.524735
O4    O     O_R   0.685730 0.742660 0.511730 -0.507481
O5    O     O_R   0.275440 0.478800 0.636790 -0.430610
O6    O     O_R   0.577250 0.507240 0.655860 -0.477620
O7    O     O_R   0.314270 0.257340 0.488270 -0.471740
O8    O     O_R   0.616080 0.285780 0.507340 -0.496210
O9    O     O_R   0.422750 0.492760 0.344140 -0.515112
O10   O     O_R   0.724560 0.521200 0.363210 -0.518562
O11   O     O_2   0.902419 0.412586 0.738417 -0.240122
S1    S     S_3+6 0.973877 0.291467 0.784041 0.017625

loop_
_geom_bond_atom_site_label_1
_geom_bond_atom_site_label_2
_ccdc_geom_bond_type
C2    C4    S    
C20   H1    S    
C13   H11   S    
Cu2   N1    S    
C14   C18   A    
C9    C20   A    
O2    S1    D    
N1    N2    D    
C12   C15   A    
C1    O1    A    
Cu2   O4    S    
C17   C18   A    
C8    C16   A    
Cu1   N2    S    
C6    O8    A    
Cu1   Cu2   S    
C15   C19   A    
C17   H8    S    
C11   C13   A    
H7    N2    S    
Cu2   O6    S    
C4    O6    A    
C8    C20   A    
Cu1   O5    S    
C19   H10   S    
C7    O9    A    
Cu2   O10   S    
C12   C14   A    
Cu1   O9    S    
C6    O7    A    
C10   S1    S    
C5    C6    S    
C2    C14   A    
C18   H2    S    
H4    O3    S    
C10   C11   A    
C15   C16   A    
C2    C10   A    
C7    O10   A    
C3    H3    S    
Cu1   O1    S    
C12   C13   A    
C4    O5    A    
C7    C9    S    
O3    S1    S    
Cu2   O8    S    
C1    O4    A    
C3    C5    D    
C5    H5    S    
C8    H9    S    
C9    C19   A    
C11   H12   S    
Cu1   O7    S    
O11   S1    D    
H6    N1    S    
C16   C17   A    
C1    C3    S    
