data_mof_unit_57160.cif
_audit_creation_date              2012-12-10T18:47:01-0500
_audit_creation_method            fapswitch 2.2
_symmetry_space_group_name_H-M    P1
_symmetry_Int_Tables_number       1
_space_group_crystal_system       triclinic
_cell_length_a                    10.527965
_cell_length_b                    9.919443
_cell_length_c                    14.801852
_cell_angle_alpha                 90.598862
_cell_angle_beta                  90.360004
_cell_angle_gamma                 90.098876
_cell_volume                      1545.6629016

loop_
_atom_site_label
_atom_site_type_symbol
_atom_type_description
_atom_site_fract_x
_atom_site_fract_y
_atom_site_fract_z
_atom_type_partial_charge
C1    C     C_R   0.261643 0.500086 0.514872 0.880504
C2    C     C_R   0.741123 0.500234 0.491771 0.965216
C3    C     C_R   0.299765 0.343972 0.044397 -0.153365
C4    C     C_R   0.748282 0.449552 0.952525 -0.094340
C5    C     C_R   0.061435 0.377567 0.533963 -0.127772
C6    C     C_R   0.944531 0.625022 0.490718 -0.127237
C7    C     C_R   0.942612 0.376655 0.492183 -0.052663
C8    C     C_R   0.063086 0.623967 0.532728 -0.030726
C9    C     C_R   0.878434 0.500898 0.483137 -0.063705
C10   C     C_R   0.127748 0.500477 0.536992 -0.154372
C11   C     C_R   0.578164 0.073414 0.557428 -0.004584
C12   C     C_R   0.421761 0.926880 0.442537 0.011791
C13   C     C_R   0.417560 0.070871 0.445494 -0.000072
C14   C     C_R   0.582168 0.929404 0.554816 0.022749
C15   C     C_R   0.501340 0.499013 0.326541 0.975954
C16   C     C_R   0.499331 0.500095 0.673216 0.846202
C17   C     C_R   0.622629 0.494076 0.812846 -0.029623
C18   C     C_R   0.394877 0.442799 0.184479 -0.069455
C19   C     C_R   0.503286 0.495059 0.770156 -0.176817
C20   C     C_R   0.503755 0.491718 0.229145 -0.164022
C21   C     C_R   0.391614 0.460222 0.815709 -0.069370
C22   C     C_R   0.619819 0.507905 0.183904 -0.018467
C23   C     C_R   0.400837 0.414103 0.904951 0.118796
C24   C     C_R   0.629269 0.465963 0.093199 0.032371
C25   C     C_R   0.516976 0.431928 0.951686 0.007834
C26   C     C_R   0.516794 0.431233 0.046065 0.028071
C27   C     C_R   0.631054 0.459327 0.904847 0.092342
C28   C     C_R   0.401988 0.406028 0.092486 0.106235
C29   C     C_R   0.299532 0.347604 0.949114 -0.104197
C30   C     C_R   0.747487 0.454861 0.047728 -0.126416
N1    N     N_R   0.500000 0.857200 0.500000 -0.178576
N2    N     N_R   0.500000 0.142800 0.500000 -0.183420
O1    O     O_R   0.316770 0.614620 0.499990 -0.612257
O2    O     O_R   0.683230 0.385380 0.500010 -0.624986
O3    O     O_R   0.683230 0.614620 0.500010 -0.678419
O4    O     O_R   0.316770 0.385380 0.499990 -0.682681
O5    O     O_R   0.499980 0.614680 0.367850 -0.633476
O6    O     O_R   0.500020 0.385320 0.632150 -0.630838
O7    O     O_R   0.500020 0.614680 0.632150 -0.619420
O8    O     O_R   0.499980 0.385320 0.367850 -0.611939
Zn1   Zn    Zn3+2 0.500000 0.653120 0.500000 0.966225
Zn2   Zn    Zn3+2 0.500000 0.346880 0.500000 0.968660
C31   C     C_1   0.732115 0.542116 0.762949 0.209580
N3    N     N_1   0.819132 0.580166 0.723058 -0.166114
C32   C     C_1   0.273850 0.449941 0.231303 0.187002
N4    N     N_1   0.177904 0.456272 0.268910 -0.141981
C33   C     C_2   0.266366 0.488821 0.772530 0.550944
H1    H     H_    0.254513 0.479298 0.700266 0.030889
O9    O     O_2   0.176732 0.528936 0.817286 -0.566056
C34   C     C_2   0.724997 0.585830 0.226506 0.471453
H2    H     H_    0.774795 0.661565 0.187840 0.060079
O10   O     O_2   0.761541 0.561024 0.302579 -0.582917
C35   C     C_2   0.205539 0.265039 0.896578 0.503597
H3    H     H_    0.109984 0.250055 0.921118 0.071515
O11   O     O_2   0.235775 0.209227 0.825992 -0.526103
C36   C     C_2   0.867835 0.429881 0.098418 0.398218
H4    H     H_    0.956232 0.475538 0.077189 0.023097
O12   O     O_2   0.869355 0.354600 0.163188 -0.463393
C37   C     C_2   0.203335 0.260914 0.091594 0.455420
H5    H     H_    0.104359 0.263693 0.071317 0.059739
O13   O     O_2   0.235031 0.185378 0.152323 -0.482932
C38   C     C_2   0.868835 0.416353 0.905362 0.416018
H6    H     H_    0.956676 0.466870 0.924016 0.071640
O14   O     O_2   0.871180 0.328419 0.847008 -0.498765
C39   C     C_2   0.112221 0.257687 0.582839 0.489959
H7    H     H_    0.207632 0.258387 0.610733 0.108737
O15   O     O_2   0.045140 0.160787 0.599654 -0.537202
C40   C     C_2   0.899777 0.748820 0.442693 0.485110
H8    H     H_    0.805181 0.756338 0.414557 0.139599
O16   O     O_2   0.972190 0.841881 0.427075 -0.562944
C41   C     C_2   0.897369 0.252049 0.444067 0.526653
H9    H     H_    0.933939 0.153475 0.460600 0.157701
O17   O     O_2   0.824193 0.259277 0.379929 -0.481037
C42   C     C_2   0.111583 0.746782 0.581379 0.524610
H10   H     H_    0.063614 0.842797 0.575574 0.169936
O18   O     O_2   0.200934 0.740303 0.634157 -0.546037
C43   C     C_2   0.649502 0.147642 0.628640 0.604717
H11   H     H_    0.713295 0.228704 0.612545 0.085779
O19   O     O_2   0.637923 0.116580 0.707779 -0.516161
C44   C     C_2   0.350167 0.853430 0.370983 0.560346
H12   H     H_    0.292102 0.767313 0.385860 0.104048
O20   O     O_2   0.355537 0.890349 0.292647 -0.532846
C45   C     C_2   0.316154 0.142110 0.395149 0.540360
H13   H     H_    0.334349 0.234775 0.360804 0.124252
O21   O     O_2   0.208091 0.097183 0.392518 -0.543803
C46   C     C_2   0.682525 0.858545 0.606497 0.459547
H14   H     H_    0.665154 0.763296 0.637393 0.127995
O22   O     O_2   0.789006 0.906571 0.614108 -0.569983

loop_
_geom_bond_atom_site_label_1
_geom_bond_atom_site_label_2
_ccdc_geom_bond_type
C2    O3    A    
C13   N2    A    
O4    Zn2   S    
O2    Zn2   S    
C14   N1    A    
C6    C9    A    
C1    O1    A    
O7    Zn1   S    
C32   N4    T    
C42   O18   D    
C23   C29   A    
C3    C28   A    
C19   C21   A    
C24   C26   A    
O6    Zn2   S    
C7    C41   S    
C11   C14   A    
C46   O22   D    
C4    C38   S    
C36   H4    S    
C3    C29   A    
C15   O5    A    
C38   O14   D    
C11   C43   S    
C45   H13   S    
C40   H8    S    
C39   O15   D    
C34   O10   D    
C43   H11   S    
C22   C34   S    
C2    O2    A    
C6    C40   S    
C37   H5    S    
C33   O9    D    
C43   O19   D    
C15   C20   S    
C37   O13   D    
C42   H10   S    
C17   C27   A    
C18   C28   A    
C14   C46   S    
C5    C39   S    
C5    C7    A    
C46   H14   S    
C6    C8    A    
C25   C26   A    
C35   H3    S    
C30   C36   S    
C31   N3    T    
C17   C31   S    
C38   H6    S    
C33   H1    S    
C8    C42   S    
C34   H2    S    
C44   O20   D    
C45   O21   D    
C20   C22   A    
C11   N2    A    
C21   C23   A    
C12   N1    A    
C22   C24   A    
C35   O11   D    
C18   C32   S    
C4    C27   A    
C41   O17   D    
C7    C9    A    
N1    Zn1   S    
C1    C10   S    
C44   H12   S    
C25   C27   A    
C13   C45   S    
C26   C28   A    
O1    Zn1   S    
C41   H9    S    
C29   C35   S    
C16   C19   S    
C12   C44   S    
O8    Zn2   S    
C17   C19   A    
C36   O12   D    
C18   C20   A    
C23   C25   A    
O5    Zn1   S    
O3    Zn1   S    
C24   C30   A    
C15   O8    A    
C16   O7    A    
C5    C10   A    
C12   C13   A    
C8    C10   A    
C39   H7    S    
C40   O16   D    
N2    Zn2   S    
C2    C9    S    
C4    C30   A    
C1    O4    A    
C16   O6    A    
C21   C33   S    
C3    C37   S    
