data_mof_unit_68558.cif
_audit_creation_date              2013-03-05T15:59:44-0500
_audit_creation_method            fapswitch 2.2
_symmetry_space_group_name_H-M    P1
_symmetry_Int_Tables_number       1
_space_group_crystal_system       triclinic
_cell_length_a                    6.937933
_cell_length_b                    14.160491
_cell_length_c                    16.036046
_cell_angle_alpha                 89.955245
_cell_angle_beta                  90.029814
_cell_angle_gamma                 90.0
_cell_volume                      1575.45323357

loop_
_atom_site_label
_atom_site_type_symbol
_atom_site_description
_atom_site_fract_x
_atom_site_fract_y
_atom_site_fract_z
_atom_type_partial_charge
O1    O     O_R   0.638960 0.835150 0.161940 -0.587295
O2    O     O_R   0.361040 0.164850 0.838060 -0.585873
O3    O     O_R   0.309170 0.846340 0.337470 -0.583724
O4    O     O_R   0.690830 0.153660 0.662530 -0.583160
O5    O     O_R   0.138810 0.664830 0.338070 -0.585754
O6    O     O_R   0.861190 0.335170 0.661930 -0.569779
C1    C     C_R   0.477799 0.868368 0.366628 1.038720
C2    C     C_R   0.522210 0.131644 0.633365 1.040494
O7    O     O_R   0.309250 0.846350 0.162570 -0.595057
O8    O     O_R   0.690750 0.153650 0.837430 -0.594295
O9    O     O_R   0.138880 0.664840 0.161920 -0.565865
O10   O     O_R   0.861120 0.335160 0.838080 -0.580446
C3    C     C_R   0.477917 0.867757 0.132940 1.028781
C4    C     C_R   0.521984 0.130637 0.865874 1.024346
O11   O     O_R   0.638880 0.835150 0.338090 -0.605826
O12   O     O_R   0.361120 0.164850 0.661910 -0.605059
O13   O     O_3   0.472380 0.690440 0.250000 -0.248726
O14   O     O_3   0.527620 0.309560 0.750000 -0.248771
V1    V     V_3+5 0.197550 0.761040 0.250010 1.289511
V2    V     V_3+5 0.802450 0.238960 0.749990 1.290829
O15   O     O_R   0.809160 0.653640 0.162540 -0.579541
O16   O     O_R   0.190840 0.346360 0.837460 -0.583856
C5    C     C_R   0.978264 0.631240 0.133908 1.091861
C6    C     C_R   0.022133 0.369193 0.865735 1.087490
O17   O     O_R   0.809090 0.653640 0.337440 -0.603041
O18   O     O_R   0.190910 0.346360 0.662560 -0.599187
C7    C     C_R   0.977629 0.631823 0.366410 1.104293
C8    C     C_R   0.021538 0.369969 0.635039 1.105052
V3    V     V_3+5 0.697540 0.738950 0.250000 1.284337
V4    V     V_3+5 0.302460 0.261050 0.750000 1.285060
O19   O     O_3   0.972580 0.809550 0.250010 -0.286295
O20   O     O_3   0.027420 0.190450 0.749990 -0.285671
C9    C     C_3   0.062628 0.585247 0.525947 0.301617
C10   C     C_3   0.932458 0.418732 0.477161 0.314682
C11   C     C_3   0.890707 0.532487 0.563970 0.270746
C12   C     C_3   0.103591 0.471381 0.439077 0.261406
C13   C     C_3   0.009372 0.440199 0.565365 -0.419017
C14   C     C_3   0.986393 0.563560 0.437732 -0.422488
C15   C     C_3   0.185128 0.493432 0.526825 -0.330456
C16   C     C_3   0.810820 0.510327 0.475934 -0.315538
H1    H     H_    0.338402 0.487693 0.545974 0.219472
H2    H     H_    0.657826 0.517105 0.456818 0.214089
C17   C     C_3   0.933233 0.416682 0.024293 -0.170926
C18   C     C_3   0.070192 0.584359 0.974986 -0.149484
C19   C     C_3   0.105609 0.469679 0.062428 0.345205
C20   C     C_3   0.898625 0.531575 0.936437 0.344261
C21   C     C_3   0.990081 0.562398 0.062869 -0.271438
C22   C     C_3   0.012705 0.438649 0.936315 -0.273559
C23   C     C_3   0.814630 0.510089 0.023703 -0.251446
C24   C     C_3   0.187948 0.491149 0.975009 -0.234672
H3    H     H_    0.661155 0.518068 0.041794 0.206770
H4    H     H_    0.341225 0.482503 0.956919 0.199957
C25   C     C_3   0.592209 0.032990 0.434960 0.422948
C26   C     C_3   0.407844 0.967047 0.565027 0.423208
C27   C     C_3   0.419842 0.083031 0.476346 -0.193386
C28   C     C_3   0.580204 0.916999 0.523640 -0.192603
H5    H     H_    0.357472 0.151526 0.456091 0.207006
H6    H     H_    0.642600 0.848512 0.543894 0.213260
C29   C     C_3   0.512661 0.062121 0.562418 -0.326810
C30   C     C_3   0.487388 0.937907 0.437566 -0.327086
C31   C     C_3   0.687748 0.013744 0.520096 -0.155986
C32   C     C_3   0.312291 0.986290 0.479895 -0.155828
H7    H     H_    0.841710 0.026094 0.535428 0.195572
H8    H     H_    0.158324 0.973942 0.464568 0.195428
C33   C     C_3   0.573964 0.916172 0.974568 -0.033088
C34   C     C_3   0.426499 0.079841 0.022721 -0.048668
C35   C     C_3   0.400494 0.965458 0.932496 -0.165129
C36   C     C_3   0.599950 0.030820 0.064721 -0.168033
H9    H     H_    0.318723 0.938021 0.878165 0.182245
H10   H     H_    0.681437 0.058410 0.119081 0.181480
C37   C     C_3   0.511722 0.059966 0.936093 -0.107147
C38   C     C_3   0.488603 0.936439 0.061298 -0.106794
C39   C     C_3   0.686426 0.010332 0.977007 -0.154088
C40   C     C_3   0.314069 0.985852 0.020223 -0.156910
H11   H     H_    0.839766 0.019760 0.959054 0.143207
H12   H     H_    0.160706 0.976509 0.038183 0.144516
N1    N     N_R   0.766511 0.568145 0.629894 0.271938
O21   O     O_R   0.751457 0.658792 0.641180 -0.283748
O22   O     O_R   0.638041 0.512530 0.662664 -0.344359
N2    N     N_R   0.211885 0.435528 0.368690 0.263396
O23   O     O_R   0.394735 0.417124 0.375389 -0.337846
O24   O     O_R   0.121862 0.417571 0.299624 -0.313774
C41   C     C_2   0.657815 0.825063 0.944048 0.577102
H13   H     H_    0.717010 0.821068 0.881571 0.072033
O25   O     O_2   0.659765 0.755254 0.988649 -0.567976
C42   C     C_2   0.341090 0.170181 0.053232 0.591380
H14   H     H_    0.277238 0.172494 0.114856 0.085567
O26   O     O_2   0.342331 0.240767 0.009577 -0.566946
N3    N     N_R   0.133572 0.675940 0.556038 0.264953
O27   O     O_R   0.201975 0.682791 0.631302 -0.269876
O28   O     O_R   0.129293 0.750172 0.508317 -0.408524
N4    N     N_R   0.862962 0.327672 0.447043 0.261790
O29   O     O_R   0.790578 0.320817 0.372493 -0.258319
O30   O     O_R   0.873177 0.252918 0.493952 -0.411642
N5    N     N_R   0.229226 0.436035 0.129421 0.254311
O31   O     O_R   0.221289 0.348217 0.152600 -0.341491
O32   O     O_R   0.368703 0.489167 0.156470 -0.363538
N6    N     N_R   0.790895 0.567421 0.865481 0.246200
O33   O     O_R   0.605645 0.580003 0.870284 -0.371675
O34   O     O_R   0.882993 0.592657 0.798611 -0.361307
C43   C     C_2   0.854163 0.324856 0.055904 0.663640
H15   H     H_    0.797673 0.320704 0.118847 0.077702
O35   O     O_2   0.852785 0.254801 0.011692 -0.604457
C44   C     C_2   0.147058 0.676717 0.943562 0.647503
H16   H     H_    0.203912 0.681407 0.880717 0.092043
O36   O     O_2   0.146535 0.746646 0.987931 -0.609765
N7    N     N_R   0.692327 0.069173 0.361840 0.255458
O37   O     O_R   0.876877 0.085032 0.364440 -0.348874
O38   O     O_R   0.597464 0.084634 0.293208 -0.410593
N8    N     N_R   0.307840 0.930930 0.638197 0.256051
O39   O     O_R   0.122775 0.916524 0.636102 -0.345697
O40   O     O_R   0.403271 0.914427 0.706480 -0.410707

loop_
_geom_bond_atom_site_label_1
_geom_bond_atom_site_label_2
_geom_bond_distance
_ccdc_geom_bond_type
C34   C36   1.543388 S    
C43   H15   1.084530 S    
C27   C29   1.551099 S    
C10   C13   1.541986 S    
O13   V3    1.706505 S    
C4    C37   1.507583 S    
N5    O31   1.298807 A    
O4    C2    1.297763 A    
V1    O19   1.705300 S    
C44   O36   1.219785 D    
C18   C44   1.499343 S    
C15   H1    1.109661 S    
N1    O21   1.300655 A    
C20   C23   1.546190 S    
O9    V1    2.004814 S    
C9    C15   1.553333 S    
C40   H12   1.110338 S    
C10   C16   1.547514 S    
C19   C24   1.544067 S    
C11   C13   1.544693 S    
O3    C1    1.297818 A    
C2    C29   1.506539 S    
N2    O23   1.299473 A    
C42   O26   1.219879 D    
C33   C41   1.497917 S    
C7    C14   1.498127 S    
O12   V4    2.005097 S    
C34   C40   1.543207 S    
C27   C32   1.560945 S    
C33   C39   1.545385 S    
C26   N8    1.455895 S    
C30   C32   1.551616 S    
C19   C21   1.538295 S    
C31   H7    1.109881 S    
O7    C3    1.298990 A    
N8    O39   1.300492 A    
C32   H8    1.109891 S    
C9    C11   1.533853 S    
O5    C7    1.294493 A    
C25   C31   1.541419 S    
O7    V1    2.006127 S    
O6    C8    1.290948 A    
C34   C37   1.536262 S    
O8    V2    2.006126 S    
C33   C35   1.545689 S    
C24   H4    1.109225 S    
N7    O37   1.300588 A    
O3    V1    2.006805 S    
O14   V4    1.706506 S    
N3    O28   1.300061 A    
C17   C22   1.546396 S    
C35   C37   1.545935 S    
C18   C21   1.546566 S    
C22   C24   1.554310 S    
C20   N6    1.452301 S    
C2    O12   1.296378 A    
C39   H11   1.110299 S    
N4    O30   1.300041 A    
C44   H16   1.084415 S    
C25   C30   1.530818 S    
C18   C20   1.535458 S    
O11   V3    2.005097 S    
C26   C28   1.540870 S    
C26   C29   1.530704 S    
C25   C27   1.540858 S    
O17   V3    2.005160 S    
C13   C15   1.561133 S    
C20   C22   1.535581 S    
C29   C31   1.551476 S    
C5    C21   1.502192 S    
C6    C22   1.501485 S    
C38   C40   1.545382 S    
C12   N2    1.448474 S    
C37   C39   1.546632 S    
C42   H14   1.083688 S    
C17   C23   1.557787 S    
C1    O11   1.296345 A    
C26   C32   1.541403 S    
C23   H3    1.109550 S    
C36   C39   1.556949 S    
O15   V3    2.007454 S    
C11   N1    1.454925 S    
C28   C30   1.551101 S    
C35   H9    1.109905 S    
C17   C43   1.499313 S    
V4    O20   2.154234 S    
C9    N3    1.457786 S    
C25   N7    1.455965 S    
C41   H13   1.084507 S    
C36   C38   1.544671 S    
O10   V2    2.004813 S    
O1    V3    2.002848 S    
N1    O22   1.300250 A    
C35   C40   1.556761 S    
C17   C19   1.538628 S    
N2    O24   1.296574 A    
C41   O25   1.219757 D    
O18   V4    2.005161 S    
N6    O34   1.298456 A    
C27   H5    1.110337 S    
O8    C4    1.298288 A    
O17   C7    1.295285 A    
O16   C6    1.296506 A    
O1    C3    1.294971 A    
C12   C14   1.537962 S    
C19   N5    1.454267 S    
C1    C30   1.506598 S    
V2    O20   1.705300 S    
C18   C24   1.552287 S    
O16   V4    2.007455 S    
C12   C15   1.548361 S    
C16   H2    1.108831 S    
C34   C42   1.492747 S    
N5    O32   1.300269 A    
O5    V1    2.003468 S    
C3    C38   1.506532 S    
C21   C23   1.557178 S    
C33   C38   1.539121 S    
O6    V2    2.003467 S    
O10   C6    1.294850 A    
O18   C8    1.298693 A    
C9    C14   1.541147 S    
O2    V4    2.002846 S    
O15   C5    1.299500 A    
C11   C16   1.548730 S    
V3    O19   2.154234 S    
C14   C16   1.558001 S    
N7    O38   1.300477 A    
C8    C13   1.497554 S    
O9    C5    1.292182 A    
N4    O29   1.300147 A    
O13   V1    2.152943 S    
C10   C12   1.529226 S    
C28   H6    1.110316 S    
O14   V2    2.152943 S    
O2    C4    1.296008 A    
N8    O40   1.300314 A    
O4    V2    2.006806 S    
C43   O35   1.219809 D    
N6    O33   1.299876 A    
C36   H10   1.110043 S    
C28   C31   1.560966 S    
N3    O27   1.300347 A    
C10   N4    1.459166 S    
