data_mof_unit_59351.cif
_audit_creation_date              2013-03-05T16:12:26-0500
_audit_creation_method            fapswitch 2.2
_symmetry_space_group_name_H-M    P1
_symmetry_Int_Tables_number       1
_space_group_crystal_system       triclinic
_cell_length_a                    10.891696
_cell_length_b                    9.983851
_cell_length_c                    23.14129
_cell_angle_alpha                 90.486155
_cell_angle_beta                  93.170523
_cell_angle_gamma                 88.640247
_cell_volume                      2511.78452831

loop_
_atom_site_label
_atom_site_type_symbol
_atom_site_description
_atom_site_fract_x
_atom_site_fract_y
_atom_site_fract_z
_atom_type_partial_charge
O1    O     O_R   0.316770 0.614620 0.500000 -0.575018
O2    O     O_R   0.683230 0.385380 0.500000 -0.608328
O3    O     O_R   0.683230 0.614620 0.500000 -0.589549
O4    O     O_R   0.316770 0.385380 0.500000 -0.621909
C1    C     C_R   0.260277 0.501278 0.501440 1.012929
C2    C     C_R   0.739339 0.498203 0.497625 1.038220
O5    O     O_R   0.499970 0.614690 0.416160 -0.580823
O6    O     O_R   0.500030 0.385310 0.583840 -0.618000
O7    O     O_R   0.500030 0.614690 0.583840 -0.651213
O8    O     O_R   0.499970 0.385310 0.416160 -0.622782
C3    C     C_R   0.495990 0.499108 0.389157 1.024355
C4    C     C_R   0.507369 0.500425 0.610750 1.011226
Zn1   Zn    Zn3+2 0.500000 0.653120 0.500000 1.053429
Zn2   Zn    Zn3+2 0.500000 0.346880 0.500000 1.041475
C5    C     C_R   0.670171 0.566045 0.889655 0.581565
C6    C     C_R   0.398880 0.554555 0.106823 0.596668
N1    N     N_R   0.569921 0.590145 0.852584 -0.322729
N2    N     N_R   0.498392 0.552838 0.145565 -0.333613
C7    C     C_R   0.462926 0.642392 0.872449 0.631830
C8    C     C_R   0.613567 0.580303 0.128490 0.630102
C9    C     C_R   0.443321 0.639573 0.931849 -0.146263
C10   C     C_R   0.633929 0.596383 0.069358 -0.181751
C11   C     C_R   0.545726 0.613547 0.970372 -0.084436
C12   C     C_R   0.530415 0.603738 0.029997 -0.090193
C13   C     C_R   0.663357 0.594080 0.949124 -0.103517
C14   C     C_R   0.411159 0.597184 0.049920 -0.066813
C15   C     C_R   0.325198 0.655760 0.953627 0.263916
C16   C     C_R   0.752981 0.604889 0.048099 0.302831
C17   C     C_R   0.308587 0.630839 0.012395 0.089195
C18   C     C_R   0.767886 0.600728 0.988135 0.113192
O9    O     O_2   0.772394 0.507886 0.869682 -0.506311
O10   O     O_2   0.289773 0.510532 0.122827 -0.452781
O11   O     O_2   0.374585 0.688980 0.834127 -0.442799
O12   O     O_2   0.707533 0.588427 0.168709 -0.444813
C19   C     C_R   0.553775 0.419928 0.233096 0.137897
C20   C     C_R   0.475402 0.462494 0.771085 0.137449
C21   C     C_R   0.560418 0.412686 0.293838 0.213916
C22   C     C_R   0.452581 0.449205 0.711070 0.177429
C23   C     C_R   0.482845 0.496679 0.325733 -0.321461
C24   C     C_R   0.535063 0.503077 0.673523 -0.356963
C25   C     C_R   0.391554 0.578285 0.296821 0.103085
C26   C     C_R   0.642589 0.566421 0.696034 0.112540
C27   C     C_R   0.400373 0.602269 0.237384 0.251324
C28   C     C_R   0.653988 0.598847 0.755334 0.250739
C29   C     C_R   0.482492 0.523498 0.205567 0.063566
C30   C     C_R   0.569158 0.548015 0.792823 0.057038
C31   C     C_R   0.068001 0.384164 0.517884 0.207402
C32   C     C_R   0.930718 0.609825 0.476470 0.218996
C33   C     C_R   0.940936 0.380646 0.513977 0.251818
C34   C     C_R   0.057753 0.616487 0.483262 0.258969
C35   C     C_R   0.871817 0.494476 0.494530 -0.316051
C36   C     C_R   0.127253 0.502485 0.502638 -0.346089
C37   C     C_R   0.554543 0.072331 0.545355 0.245050
C38   C     C_R   0.455456 0.928868 0.452948 0.215680
C39   C     C_R   0.438273 0.071665 0.456453 0.212615
C40   C     C_R   0.542113 0.930749 0.547795 0.218826
N3    N     N_R   0.500000 0.857200 0.500000 -0.144628
N4    N     N_R   0.500000 0.142800 0.500000 -0.171651
N5    N     N_R   0.220816 0.692426 0.916383 0.211606
O13   O     O_R   0.203974 0.816373 0.900293 -0.333262
O14   O     O_R   0.151041 0.599986 0.893413 -0.339345
N6    N     N_R   0.859824 0.618905 0.086514 0.249060
O15   O     O_R   0.874837 0.729018 0.116280 -0.313184
O16   O     O_R   0.948972 0.529916 0.086099 -0.314057
N7    N     N_2   0.190645 0.651791 0.034845 -0.231270
H1    H     H_    0.119090 0.616972 0.008431 0.274479
C41   C     C_3   0.169075 0.787139 0.055351 -0.526144
H2    H     H_    0.079305 0.794132 0.075504 0.288263
H3    H     H_    0.167519 0.858745 0.018824 0.208616
H4    H     H_    0.241969 0.815583 0.088310 0.271330
N8    N     N_2   0.885849 0.628790 0.968495 -0.298283
H5    H     H_    0.924536 0.556704 0.942689 0.313728
C42   C     C_3   0.897512 0.765007 0.949034 -0.582742
H6    H     H_    0.994695 0.784394 0.941631 0.277505
H7    H     H_    0.867224 0.837153 0.982524 0.227189
H8    H     H_    0.841866 0.781791 0.907999 0.283244
N9    N     N_2   0.626286 0.331534 0.199385 -0.269045
H9    H     H_    0.707666 0.296838 0.219354 0.300289
C43   C     C_3   0.557685 0.227707 0.169084 -0.635585
H10   H     H_    0.619897 0.168453 0.141700 0.248665
H11   H     H_    0.482459 0.272174 0.140510 0.240457
H12   H     H_    0.518141 0.159590 0.200552 0.270653
N10   N     N_2   0.397205 0.401824 0.810302 -0.270881
H13   H     H_    0.306657 0.391683 0.795930 0.315341
C44   C     C_3   0.449816 0.283791 0.838736 -0.652544
H14   H     H_    0.386053 0.248110 0.870792 0.254785
H15   H     H_    0.538699 0.307127 0.862077 0.238897
H16   H     H_    0.464742 0.202818 0.806446 0.265874
N11   N     N_R   0.647012 0.322089 0.322978 0.227928
O17   O     O_R   0.732866 0.367898 0.358634 -0.333392
O18   O     O_R   0.640555 0.193677 0.313775 -0.377416
N12   N     N_R   0.340537 0.392026 0.688384 0.228141
O19   O     O_R   0.256367 0.469593 0.663288 -0.307528
O20   O     O_R   0.314325 0.269555 0.700963 -0.342096
N13   N     N_R   0.287868 0.629141 0.327260 0.236869
O21   O     O_R   0.241294 0.555457 0.366263 -0.397575
O22   O     O_R   0.228364 0.738067 0.310974 -0.290858
N14   N     N_R   0.740436 0.593926 0.658882 0.222152
O23   O     O_R   0.780710 0.499333 0.625434 -0.397664
O24   O     O_R   0.799861 0.705424 0.663333 -0.295201
N15   N     N_R   0.331993 0.710842 0.209785 0.237553
O25   O     O_R   0.389846 0.812424 0.190569 -0.415971
O26   O     O_R   0.213987 0.702407 0.198562 -0.228845
N16   N     N_R   0.748207 0.686753 0.777169 0.260434
O27   O     O_R   0.718401 0.799801 0.801650 -0.386853
O28   O     O_R   0.863641 0.650862 0.775617 -0.208347
N17   N     N_R   0.135200 0.266011 0.538030 0.257454
O29   O     O_R   0.115618 0.150832 0.512968 -0.304466
O30   O     O_R   0.202393 0.269506 0.586112 -0.251469
N18   N     N_R   0.862247 0.720157 0.449931 0.259225
O31   O     O_R   0.796276 0.701684 0.402031 -0.328810
O32   O     O_R   0.866385 0.839117 0.473287 -0.257266
N19   N     N_R   0.883904 0.261188 0.532072 0.236515
O33   O     O_R   0.901254 0.222513 0.585539 -0.274258
O34   O     O_R   0.843518 0.175799 0.493100 -0.279936
N20   N     N_R   0.114760 0.738660 0.468443 0.246389
O35   O     O_R   0.153380 0.819600 0.509547 -0.318351
O36   O     O_R   0.101603 0.782690 0.415692 -0.292907
N21   N     N_2   0.635876 0.138451 0.586269 -0.238668
H17   H     H_    0.667815 0.226466 0.571584 0.305573
C45   C     C_3   0.604467 0.148642 0.646146 -0.593136
H18   H     H_    0.655872 0.231511 0.667904 0.246295
H19   H     H_    0.633232 0.056311 0.669895 0.273865
H20   H     H_    0.504898 0.170965 0.649182 0.251519
N22   N     N_2   0.429936 0.860164 0.400225 -0.280401
H21   H     H_    0.338436 0.844365 0.390912 0.283568
C46   C     C_3   0.499809 0.900377 0.352057 -0.520980
H22   H     H_    0.467883 0.000141 0.335837 0.251763
H23   H     H_    0.487648 0.827235 0.316111 0.237237
H24   H     H_    0.599405 0.902973 0.365257 0.281477
N23   N     N_2   0.359277 0.140262 0.414266 -0.321453
H25   H     H_    0.349922 0.240634 0.421153 0.293680
C47   C     C_3   0.239535 0.085071 0.399152 -0.585205
H26   H     H_    0.167206 0.165731 0.398100 0.262084
H27   H     H_    0.213973 0.009867 0.431060 0.297481
H28   H     H_    0.239419 0.039750 0.355216 0.261492
N24   N     N_2   0.573213 0.867985 0.601028 -0.289131
H29   H     H_    0.630910 0.786170 0.597958 0.301043
C48   C     C_3   0.471579 0.859335 0.639017 -0.599792
H30   H     H_    0.503397 0.809093 0.679908 0.238964
H31   H     H_    0.393398 0.804663 0.617974 0.276677
H32   H     H_    0.434579 0.959943 0.649922 0.244169

loop_
_geom_bond_atom_site_label_1
_geom_bond_atom_site_label_2
_geom_bond_distance
_ccdc_geom_bond_type
C33   N19   1.433884 S    
N15   O25   1.300907 A    
C15   C17   1.406854 A    
N17   O30   1.298219 A    
C42   H6    1.103427 S    
C32   N18   1.438251 S    
N13   O21   1.301064 A    
O3    C2    1.302432 A    
N16   O28   1.301470 A    
C18   N8    1.421149 S    
C28   N16   1.434057 S    
C23   C25   1.413271 A    
C25   N13   1.443621 S    
C44   H14   1.110294 S    
C40   N3    1.385281 A    
O5    C3    1.308093 A    
N24   C48   1.455729 S    
O1    C1    1.302368 A    
C19   C21   1.405896 A    
C12   C14   1.405257 A    
C26   N14   1.438602 S    
C48   H32   1.105785 S    
C37   C40   1.425092 A    
Zn1   N3    2.037504 S    
C20   N10   1.426614 S    
C22   N12   1.431044 S    
N20   O35   1.301368 A    
O7    Zn1   1.980911 S    
N18   O31   1.301428 A    
C45   H20   1.107875 S    
N6    O16   1.300842 A    
C32   C35   1.409036 A    
N7    C41   1.446636 S    
C47   H28   1.109309 S    
C34   C36   1.414117 A    
C11   C12   1.403506 A    
C1    C36   1.450416 S    
C20   C30   1.414955 A    
C2    C35   1.448215 S    
N11   O18   1.300742 A    
N2    C8    1.370382 A    
O3    Zn1   2.023387 S    
C8    O12   1.348162 S    
C32   C34   1.386975 A    
C9    C15   1.412735 A    
N5    O13   1.301195 A    
N15   O26   1.301669 A    
C10   C16   1.416718 A    
C25   C27   1.407014 A    
O2    C2    1.297200 A    
C26   C28   1.406749 A    
C46   H23   1.106734 S    
N16   O27   1.300885 A    
O7    C4    1.303011 A    
C28   C30   1.407913 A    
N21   C45   1.447688 S    
C6    C14   1.401676 A    
Zn2   N4    2.037504 S    
C38   N22   1.411977 S    
N5    O14   1.300821 A    
C44   H15   1.110830 S    
C41   H2    1.106794 S    
N1    C30   1.441727 S    
C31   C33   1.383167 A    
C7    O11   1.349054 S    
N8    C42   1.446848 S    
C33   C35   1.411165 A    
N9    H9    1.030540 S    
C19   N9    1.426357 S    
C41   H3    1.110838 S    
C4    C24   1.467361 S    
C27   N15   1.434717 S    
N6    O15   1.301145 A    
N22   C46   1.448712 S    
N10   H13   1.030232 S    
O6    C4    1.304515 A    
N12   O20   1.301203 A    
N9    C43   1.446028 S    
N13   O22   1.300471 A    
N21   H17   1.020444 S    
C3    C23   1.466826 S    
C27   C29   1.410755 A    
C45   H18   1.111402 S    
C17   N7    1.422344 S    
N10   C44   1.445477 S    
C8    C10   1.409427 A    
N14   O23   1.299582 A    
C31   N17   1.440544 S    
C9    C11   1.409412 A    
O8    Zn2   1.980913 S    
N22   H21   1.023545 S    
C42   H8    1.109675 S    
C10   C12   1.410600 A    
O1    Zn1   2.041302 S    
C42   H7    1.111658 S    
N17   O29   1.300318 A    
N23   H25   1.016970 S    
C19   C29   1.412871 A    
N2    C29   1.442125 S    
C48   H30   1.109353 S    
C43   H11   1.110598 S    
N19   O33   1.301720 A    
C44   H16   1.111417 S    
C13   C18   1.415783 A    
C5    N1    1.368751 A    
C38   C39   1.435681 A    
O6    Zn2   1.974527 S    
C7    C9    1.403312 A    
O4    C1    1.298630 A    
N23   C47   1.451634 S    
C43   H12   1.111440 S    
C37   N4    1.368660 A    
C37   N21   1.428739 S    
C5    O9    1.346129 S    
C31   C36   1.415930 A    
C6    O10   1.348618 S    
N24   H29   1.023118 S    
C39   N23   1.432791 S    
C21   N11   1.435936 S    
C41   H4    1.110296 S    
C16   C18   1.406161 A    
C46   H24   1.111415 S    
N8    H5    1.028729 S    
C21   C23   1.409507 A    
C15   N5    1.430591 S    
C20   C22   1.403022 A    
C22   C24   1.403026 A    
C40   N24   1.407768 S    
C48   H31   1.109875 S    
C47   H26   1.112575 S    
C24   C26   1.415967 A    
N12   O19   1.300946 A    
N1    C7    1.366686 A    
N20   O36   1.300290 A    
C34   N20   1.434407 S    
C11   C13   1.406160 A    
O4    Zn2   2.023388 S    
O2    Zn2   2.041301 S    
N14   O24   1.301375 A    
N18   O32   1.301412 A    
C45   H19   1.107154 S    
C5    C13   1.407659 A    
O8    C3    1.299959 A    
C43   H10   1.110305 S    
O5    Zn1   1.974529 S    
C14   C17   1.412417 A    
C6    N2    1.367732 A    
N7    H1    1.028805 S    
C39   N4    1.381115 A    
C47   H27   1.108389 S    
N11   O17   1.301144 A    
C46   H22   1.108758 S    
N19   O34   1.301724 A    
C38   N3    1.367943 A    
C16   N6    1.433610 S    
