data_mof_unit_7010.cif
_audit_creation_date              2012-12-11T15:07:34-0500
_audit_creation_method            fapswitch 2.2
_symmetry_space_group_name_H-M    P1
_symmetry_Int_Tables_number       1
_space_group_crystal_system       triclinic
_cell_length_a                    21.671486
_cell_length_b                    7.199849
_cell_length_c                    18.726218
_cell_angle_alpha                 90.45192
_cell_angle_beta                  95.417362
_cell_angle_gamma                 89.827265
_cell_volume                      2908.72961062

loop_
_atom_site_label
_atom_site_type_symbol
_atom_type_description
_atom_site_fract_x
_atom_site_fract_y
_atom_site_fract_z
_atom_type_partial_charge
O1    O     O_R   0.449650 0.506500 0.414480 -0.502284
O2    O     O_R   0.550350 0.006500 0.585520 -0.541636
O3    O     O_R   0.432010 0.173150 0.560250 -0.541453
O4    O     O_R   0.567990 0.673150 0.439750 -0.497438
C1    C     C_R   0.417015 0.344550 0.581607 0.766476
C2    C     C_R   0.582566 0.843363 0.417281 0.768219
O5    O     O_R   0.442320 0.176650 0.413480 -0.545569
O6    O     O_R   0.557680 0.676650 0.586520 -0.506046
O7    O     O_R   0.560730 0.008380 0.437700 -0.547005
O8    O     O_R   0.439270 0.508380 0.562300 -0.507735
C3    C     C_R   0.425504 0.345817 0.390304 0.761952
C4    C     C_R   0.574065 0.846089 0.610119 0.753646
O9    O     O_3   0.538840 0.339860 0.508120 -0.362890
O10   O     O_3   0.461160 0.839860 0.491880 -0.358411
V1    V     V_3+5 0.492800 0.064220 0.498490 1.559703
V2    V     V_3+5 0.507200 0.564220 0.501510 1.657876
C5    C     C_R   0.879837 0.856665 0.694188 -0.091140
C6    C     C_R   0.125392 0.528544 0.305166 -0.111839
C7    C     C_R   0.888440 0.934060 0.820225 -0.050957
C8    C     C_R   0.111503 0.445382 0.179799 -0.050703
C9    C     C_R   0.586974 0.908053 0.738507 -0.147240
C10   C     C_R   0.406801 0.270278 0.263507 -0.163166
C11   C     C_R   0.621006 0.950976 0.802933 0.354784
C12   C     C_R   0.369957 0.239337 0.200004 0.351357
C13   C     C_R   0.685417 0.949928 0.808031 -0.151199
C14   C     C_R   0.307453 0.285958 0.194365 -0.142527
C15   C     C_R   0.718117 0.900437 0.748832 0.000064
C16   C     C_R   0.279826 0.368758 0.252245 -0.002082
C17   C     C_R   0.682930 0.847963 0.682379 0.012839
C18   C     C_R   0.318280 0.406010 0.318125 0.015435
C19   C     C_R   0.784849 0.901512 0.754016 0.095301
C20   C     C_R   0.214779 0.413661 0.246467 0.095804
C21   C     C_R   0.814954 0.856907 0.692150 0.062713
C22   C     C_R   0.188687 0.484923 0.307606 0.072864
C23   C     C_R   0.780741 0.802338 0.629162 -0.164588
C24   C     C_R   0.226043 0.522280 0.370246 -0.185106
C25   C     C_R   0.716579 0.788643 0.624573 0.207358
C26   C     C_R   0.289687 0.493650 0.375091 0.195481
C27   C     C_R   0.823311 0.940961 0.818510 -0.163981
C28   C     C_R   0.174483 0.394651 0.182004 -0.167917
C29   C     C_R   0.916131 0.893080 0.757762 -0.086243
C30   C     C_R   0.087334 0.510230 0.241711 -0.098225
C31   C     C_R   0.616178 0.858819 0.677548 -0.113112
C32   C     C_R   0.382637 0.350380 0.323313 -0.116967
C33   C     C_R   0.635299 0.719545 0.310399 0.235241
C34   C     C_R   0.385775 0.400416 0.705927 0.209171
C35   C     C_R   0.631283 0.851797 0.366324 -0.099744
C36   C     C_R   0.369577 0.355099 0.633214 -0.096653
C37   C     C_R   0.673651 0.999334 0.373064 -0.172274
C38   C     C_R   0.307448 0.324784 0.608902 -0.182924
C39   C     C_R   0.719915 0.017014 0.326165 0.059299
C40   C     C_R   0.260772 0.345137 0.655445 0.061866
C41   C     C_R   0.724758 0.886109 0.270799 0.063112
C42   C     C_R   0.275943 0.389314 0.728423 0.043655
C43   C     C_R   0.682496 0.736317 0.263027 0.018651
C44   C     C_R   0.338890 0.414975 0.753893 0.005661
C45   C     C_R   0.760364 0.167685 0.333195 -0.187517
C46   C     C_R   0.198907 0.329447 0.628710 -0.188869
C47   C     C_R   0.807347 0.188428 0.287798 0.338344
C48   C     C_R   0.151239 0.352667 0.673079 0.332591
C49   C     C_R   0.815958 0.052009 0.234062 0.020122
C50   C     C_R   0.165022 0.379418 0.748554 -0.004165
C51   C     C_R   0.771638 0.905967 0.223049 -0.065070
C52   C     C_R   0.228205 0.407784 0.775584 -0.087605
C53   C     C_R   0.773934 0.779768 0.164526 0.019612
C54   C     C_R   0.243965 0.454801 0.849253 -0.012135
C55   C     C_R   0.734225 0.622572 0.160791 0.344454
C56   C     C_R   0.308065 0.464452 0.874653 0.327113
C57   C     C_R   0.689175 0.604546 0.208785 -0.141976
C58   C     C_R   0.353666 0.449968 0.827001 -0.140482
C59   C     C_R   0.866901 0.052881 0.191426 0.258331
C60   C     C_R   0.119094 0.377174 0.798125 0.218188
C61   C     C_R   0.864957 0.942334 0.128676 -0.190110
C62   C     C_R   0.133699 0.439918 0.869315 -0.190852
C63   C     C_R   0.815881 0.816284 0.112698 0.248855
C64   C     C_R   0.195102 0.489622 0.893551 0.212462
O11   O     O_R   0.060820 0.290050 0.937800 -0.527982
O12   O     O_R   0.939180 0.790050 0.062200 -0.526855
O13   O     O_R   0.057690 0.616620 0.086540 -0.536737
O14   O     O_R   0.942310 0.116620 0.913460 -0.526780
C65   C     C_R   0.071451 0.449067 0.111965 0.720773
C66   C     C_R   0.928345 0.947838 0.888140 0.721493
O15   O     O_R   0.068010 0.619890 0.939770 -0.525088
O16   O     O_R   0.931990 0.119890 0.060230 -0.517428
O17   O     O_R   0.949640 0.787940 0.914460 -0.533492
O18   O     O_R   0.050360 0.287940 0.085540 -0.531303
C67   C     C_R   0.084188 0.450862 0.919147 0.795069
C68   C     C_R   0.915615 0.951853 0.080582 0.790875
O19   O     O_3   0.961210 0.453080 0.991940 -0.362980
O20   O     O_3   0.038790 0.953080 0.008060 -0.377750
V3    V     V_3+5 0.007200 0.728820 0.001500 1.591162
V4    V     V_3+5 0.992800 0.228820 0.998500 1.612203
H1    H     H_    0.966125 0.884351 0.758684 0.161844
H2    H     H_    0.039045 0.550863 0.240448 0.163034
H3    H     H_    0.670740 0.101370 0.415562 0.159752
H4    H     H_    0.295301 0.290076 0.552875 0.148296
H5    H     H_    0.754504 0.273444 0.373575 0.176658
H6    H     H_    0.187303 0.306912 0.571688 0.165280
Br1   Br    Br    0.848087 0.425964 0.296251 -0.462427
Br2   Br    Br    0.071120 0.383391 0.620570 -0.424845
Br3   Br    Br    0.945379 0.167012 0.224365 -0.476184
Br4   Br    Br    0.037690 0.269788 0.774945 -0.497460
Br5   Br    Br    0.800419 0.732004 0.014130 -0.459074
Br6   Br    Br    0.207166 0.623792 0.983954 -0.472068
Br7   Br    Br    0.745307 0.403930 0.103343 -0.412669
Br8   Br    Br    0.341391 0.460826 0.973686 -0.325375
H7    H     H_    0.660659 0.481422 0.204139 0.207364
H8    H     H_    0.401518 0.459860 0.848889 0.224090
H9    H     H_    0.804792 0.759122 0.583527 0.175669
H10   H     H_    0.205640 0.585405 0.415332 0.169055
H11   H     H_    0.902722 0.821920 0.646785 0.157177
H12   H     H_    0.105573 0.582786 0.352133 0.151085
H13   H     H_    0.804541 0.969915 0.868671 0.140705
H14   H     H_    0.190809 0.349523 0.132104 0.135596
H15   H     H_    0.536838 0.917322 0.735543 0.165410
H16   H     H_    0.454880 0.226218 0.266848 0.172716
H17   H     H_    0.708460 0.990475 0.859177 0.168059
H18   H     H_    0.281512 0.251857 0.144138 0.165878
Br9   Br    Br    0.578839 0.020116 0.884340 -0.326050
Br10  Br    Br    0.404908 0.121850 0.121193 -0.322109
Br11  Br    Br    0.683977 0.654139 0.541275 -0.559155
Br12  Br    Br    0.330414 0.611783 0.457997 -0.569501
Br13  Br    Br    0.573251 0.526500 0.294583 -0.526743
Br14  Br    Br    0.472322 0.439015 0.738167 -0.509952

loop_
_geom_bond_atom_site_label_1
_geom_bond_atom_site_label_2
_ccdc_geom_bond_type
C64   Br6   S    
O15   C67   A    
C51   C53   A    
O11   V4    S    
O4    V2    S    
C15   C17   A    
C47   Br1   S    
C54   C56   A    
O1    C3    A    
C9    H15   S    
O2    C4    A    
C2    O7    A    
C57   H7    S    
C35   C37   A    
C33   Br13  S    
O5    C3    A    
C5    C21   A    
C42   C52   A    
C23   C25   A    
C12   C14   A    
C4    C31   S    
C6    C30   A    
C11   Br9   S    
C8    C28   A    
C45   C47   A    
C53   C55   A    
C46   C48   A    
C18   C26   A    
C48   C50   A    
C33   C35   A    
C49   C51   A    
C50   C52   A    
C9    C31   A    
C29   H1    S    
C16   C18   A    
C27   H13   S    
C46   H6    S    
C38   C40   A    
C19   C21   A    
C39   C45   A    
C62   C67   S    
C7    C66   S    
O13   V3    S    
C65   O18   A    
C23   H9    S    
C49   C59   A    
C36   C38   A    
C59   Br3   S    
C54   C64   A    
O6    V2    S    
C8    C65   S    
C17   C31   A    
C63   Br5   S    
C61   C63   A    
C34   Br14  S    
C56   Br8   S    
C5    H11   S    
C40   C42   A    
C42   C44   A    
C41   C43   A    
O17   V3    S    
C40   C46   A    
C1    C36   S    
C34   C36   A    
C47   C49   A    
C12   Br10  S    
C2    C35   S    
C15   C19   A    
C14   H18   S    
C16   C20   A    
C60   C62   A    
O13   C65   A    
C55   Br7   S    
O5    V1    S    
C37   C39   A    
C39   C41   A    
C52   C54   A    
O14   V4    S    
C61   C68   S    
O6    C4    A    
C45   H5    S    
C50   C60   A    
C3    C32   S    
O1    V2    S    
C43   C57   A    
C37   H3    S    
O19   V4    S    
O2    V1    S    
C6    C22   A    
C33   C43   A    
C26   Br12  S    
C7    C27   A    
C25   Br11  S    
O14   C66   A    
C44   C58   A    
C9    C11   A    
C24   H10   S    
C10   C12   A    
O4    C2    A    
C62   C64   A    
C17   C25   A    
O3    C1    A    
O3    V1    S    
C59   C61   A    
O12   C68   A    
C10   C32   A    
C30   H2    S    
O16   C68   A    
C6    H12   S    
C48   Br2   S    
C13   H17   S    
C8    C30   A    
O12   V3    S    
C13   C15   A    
C66   O17   A    
O15   V3    S    
C14   C16   A    
C53   C63   A    
C24   C26   A    
O7    V1    S    
C1    O8    A    
O18   V4    S    
C41   C51   A    
C38   H4    S    
O20   V3    S    
C60   Br4   S    
C10   H16   S    
C21   C23   A    
C22   C24   A    
C19   C27   A    
C18   C32   A    
C20   C28   A    
C5    C29   A    
C11   C13   A    
O11   C67   A    
C56   C58   A    
O9    V2    S    
C34   C44   A    
O10   V1    S    
O8    V2    S    
O16   V4    S    
C55   C57   A    
C58   H8    S    
C7    C29   A    
C28   H14   S    
C20   C22   A    
