data_mof_unit_20905.cif
_audit_creation_date              2012-12-10T17:38:18-0500
_audit_creation_method            fapswitch 2.2
_symmetry_space_group_name_H-M    P1
_symmetry_Int_Tables_number       1
_space_group_crystal_system       triclinic
_cell_length_a                    12.37375
_cell_length_b                    13.290866
_cell_length_c                    19.357068
_cell_angle_alpha                 75.758662
_cell_angle_beta                  101.785496
_cell_angle_gamma                 117.691067
_cell_volume                      2717.14513779

loop_
_atom_site_label
_atom_site_type_symbol
_atom_type_description
_atom_site_fract_x
_atom_site_fract_y
_atom_site_fract_z
_atom_type_partial_charge
C1    C     C_R   0.855000 0.287988 0.501050 0.825101
C2    C     C_R   0.002642 0.499874 0.709200 -0.246196
C3    C     C_R   0.009249 0.514067 0.069684 0.435233
C4    C     C_R   0.021048 0.517204 0.930695 0.460747
C5    C     C_R   0.088663 0.484607 0.197265 -0.232248
C6    C     C_R   0.087469 0.481382 0.269382 -0.178940
C7    C     C_R   0.001142 0.504229 0.291235 -0.078116
C8    C     C_R   0.916223 0.530828 0.239672 -0.289559
C9    C     C_R   0.919177 0.538351 0.166211 0.474476
C10   C     C_R   0.005058 0.512615 0.145299 -0.016609
C11   C     C_R   0.268873 0.035542 0.425725 0.469039
C12   C     C_R   0.999728 0.498578 0.632625 0.889237
C13   C     C_R   0.229930 0.836004 0.470090 -0.128464
C14   C     C_R   0.817036 0.083560 0.515560 -0.263004
C15   C     C_R   0.741546 0.967354 0.512592 0.515041
C16   C     C_R   0.617371 0.934062 0.486648 -0.293965
C17   C     C_R   0.568199 0.015248 0.466971 0.050895
C18   C     C_R   0.649822 0.133804 0.458437 0.064844
C19   C     C_R   0.440045 0.982136 0.456716 0.046040
C20   C     C_R   0.395539 0.066841 0.429525 0.042410
C21   C     C_R   0.478389 0.180890 0.407255 -0.242349
C22   C     C_R   0.603830 0.213544 0.420104 -0.192822
C23   C     C_R   0.145796 0.713688 0.487783 0.830846
C24   C     C_R   0.355827 0.868299 0.478966 -0.263277
C25   C     C_R   0.186525 0.919296 0.441628 -0.276443
C26   C     C_R   0.773183 0.167782 0.490063 -0.190746
C27   C     C_R   0.380655 0.402934 0.640430 0.320972
C28   C     C_R   0.753713 0.634384 0.396657 0.077576
C29   C     C_R   0.655527 0.662374 0.372069 -0.237730
C30   C     C_R   0.556291 0.616010 0.412107 -0.168401
C31   C     C_R   0.554804 0.541906 0.478156 -0.061057
C32   C     C_R   0.656905 0.514109 0.501690 0.178390
C33   C     C_R   0.455472 0.494100 0.521955 -0.087468
C34   C     C_R   0.000135 0.501012 0.367558 0.787840
C35   C     C_R   0.474113 0.446421 0.594811 -0.037335
C36   C     C_R   0.579241 0.430142 0.618618 -0.355100
C37   C     C_R   0.651826 0.438503 0.569063 0.486333
C38   C     C_R   0.338015 0.490386 0.496844 -0.009056
C39   C     C_R   0.266193 0.395465 0.610843 0.052488
C40   C     C_R   0.051638 0.434430 0.763865 0.247248
C41   C     C_R   0.070319 0.449617 0.835026 0.472546
C42   C     C_R   0.022744 0.515714 0.854639 -0.177274
C43   C     C_R   0.971624 0.577939 0.800694 -0.340798
C44   C     C_R   0.964336 0.573361 0.728181 0.378296
Cu1   Cu    Cu3+1 0.098280 0.475420 0.516260 0.922287
Cu2   Cu    Cu3+1 0.901720 0.524580 0.483740 0.982301
H1    H     H_    0.446629 0.245890 0.381369 0.181911
H2    H     H_    0.387008 0.803539 0.505288 0.169812
H3    H     H_    0.910845 0.107655 0.538515 0.183343
H4    H     H_    0.560937 0.846335 0.478812 0.132353
H5    H     H_    0.663127 0.301772 0.399337 0.182555
H6    H     H_    0.193658 0.359827 0.645008 0.183866
H7    H     H_    0.591117 0.385963 0.672450 0.175810
H8    H     H_    0.318124 0.528563 0.442798 0.132821
H9    H     H_    0.830074 0.671131 0.364927 0.123810
H10   H     H_    0.483842 0.642629 0.391793 0.134546
H11   H     H_    0.656628 0.720718 0.321825 0.147700
H12   H     H_    0.937248 0.631004 0.814753 0.184697
H13   H     H_    0.156206 0.466136 0.181980 0.170506
H14   H     H_    0.154001 0.460413 0.307993 0.162132
H15   H     H_    0.847165 0.545197 0.256517 0.153402
H16   H     H_    0.089056 0.895529 0.435287 0.182462
N1    N     N_R   0.984514 0.588734 0.948295 -0.243567
N2    N     N_R   0.978840 0.587321 0.016452 -0.195777
N3    N     N_R   0.045895 0.442753 0.052265 -0.248174
N4    N     N_R   0.050925 0.443889 0.984167 -0.190160
N5    N     N_R   0.246290 0.438200 0.540910 -0.231801
N6    N     N_R   0.754310 0.561190 0.459520 -0.197429
O1    O     O_R   0.972510 0.318130 0.520450 -0.595660
O2    O     O_R   0.806530 0.359650 0.492990 -0.541959
O3    O     O_R   0.083010 0.479220 0.613590 -0.606450
O4    O     O_R   0.917030 0.520740 0.586130 -0.470617
O5    O     O_R   0.193470 0.640350 0.507010 -0.583290
O6    O     O_R   0.027490 0.681870 0.479550 -0.580351
O7    O     O_R   0.082970 0.479260 0.413870 -0.589846
O8    O     O_R   0.916990 0.520780 0.386410 -0.612113
O9    O     O_3   0.082809 0.354446 0.750526 -0.702414
H17   H     H_    0.026961 0.319509 0.709795 0.318910
O10   O     O_3   0.223934 0.117501 0.408903 -0.615426
C45   C     C_3   0.236677 0.161191 0.471576 0.034523
H18   H     H_    0.219665 0.239208 0.454485 0.184860
H19   H     H_    0.331889 0.190233 0.499150 0.125538
C46   C     C_3   0.143339 0.073285 0.524139 -0.363286
H20   H     H_    0.049299 0.042525 0.495470 0.257084
H21   H     H_    0.163867 0.998057 0.546653 0.222147
C47   C     C_3   0.148028 0.125334 0.587014 -0.885279
H22   H     H_    0.082517 0.058737 0.624841 0.264068
H23   H     H_    0.241823 0.157586 0.615905 0.265039
H24   H     H_    0.121290 0.196942 0.567284 0.261168
O11   O     O_3   0.795177 0.891234 0.532259 -0.620104
C48   C     C_3   0.725302 0.787390 0.577099 0.077124
H25   H     H_    0.771009 0.730070 0.584889 0.205846
H26   H     H_    0.631830 0.738538 0.551786 0.138857
C49   C     C_3   0.721367 0.807670 0.651168 -0.387587
H27   H     H_    0.816466 0.847943 0.677526 0.224956
H28   H     H_    0.678709 0.867032 0.645524 0.214029
C50   C     C_3   0.646781 0.694573 0.698554 -0.909868
H29   H     H_    0.550113 0.655544 0.674275 0.264776
H30   H     H_    0.647712 0.711632 0.752054 0.261875
H31   H     H_    0.686363 0.632481 0.705579 0.261509
O12   O     O_3   0.395793 0.364231 0.713070 -0.740633
H32   H     H_    0.480683 0.412849 0.731705 0.323284
O13   O     O_3   0.127038 0.390884 0.885798 -0.555009
C51   C     C_3   0.252413 0.466384 0.900839 0.066526
H33   H     H_    0.281403 0.436607 0.957181 0.180563
H34   H     H_    0.269296 0.557513 0.897668 0.108271
C52   C     C_3   0.331978 0.461402 0.851686 -0.281202
H35   H     H_    0.311599 0.370045 0.853707 0.272102
H36   H     H_    0.310785 0.498698 0.795574 0.240300
C53   C     C_3   0.468411 0.528980 0.874156 -0.931013
H37   H     H_    0.491527 0.621346 0.870641 0.254909
H38   H     H_    0.523281 0.522795 0.837984 0.267798
H39   H     H_    0.493124 0.493027 0.929916 0.266387
O14   O     O_3   0.707667 0.365193 0.585692 -0.549661
C54   C     C_3   0.623044 0.247574 0.606236 0.058345
H40   H     H_    0.619377 0.196502 0.568046 0.176834
H41   H     H_    0.525669 0.231665 0.603832 0.086677
C55   C     C_3   0.664368 0.198937 0.681595 -0.359257
H42   H     H_    0.700127 0.264851 0.716719 0.227392
H43   H     H_    0.584407 0.122719 0.704961 0.188112
C56   C     C_3   0.763131 0.161534 0.680180 -0.810932
H44   H     H_    0.723865 0.085515 0.653014 0.232529
H45   H     H_    0.799983 0.137755 0.735787 0.252627
H46   H     H_    0.838965 0.232794 0.650898 0.249515
O15   O     O_3   0.922019 0.641498 0.675224 -0.723360
H47   H     H_    0.905879 0.692251 0.697424 0.317686
O16   O     O_3   0.830263 0.556683 0.115176 -0.601759
C57   C     C_3   0.820826 0.657153 0.119686 0.067881
H48   H     H_    0.833311 0.713248 0.066070 0.178009
H49   H     H_    0.892640 0.710629 0.157982 0.121437
C58   C     C_3   0.692532 0.623696 0.138240 -0.344320
H50   H     H_    0.622903 0.582176 0.095071 0.230975
H51   H     H_    0.673778 0.560534 0.189085 0.215470
C59   C     C_3   0.679793 0.728884 0.146408 -0.917825
H52   H     H_    0.746493 0.769894 0.190646 0.252070
H53   H     H_    0.585628 0.701788 0.159233 0.257927
H54   H     H_    0.696137 0.792763 0.095788 0.265232

loop_
_geom_bond_atom_site_label_1
_geom_bond_atom_site_label_2
_ccdc_geom_bond_type
O12   H32   S    
Cu1   O3    S    
C41   C42   A    
C19   C20   A    
C18   C26   A    
C58   C59   S    
C2    C12   S    
C57   H48   S    
C59   H54   S    
Cu2   O8    S    
O14   C54   S    
C7    C8    A    
O9    H17   S    
C4    N1    A    
C9    O16   S    
C36   C37   A    
C28   N6    A    
C16   H4    S    
C5    C6    A    
C47   H23   S    
C14   H3    S    
C11   C25   A    
C15   C16   A    
C13   C23   S    
Cu1   O5    S    
C53   H37   S    
C56   H46   S    
C36   H7    S    
C43   H12   S    
C17   C19   A    
C55   H42   S    
C35   C36   A    
C27   C39   A    
C8    C9    A    
C54   H41   S    
Cu1   N5    S    
C52   H35   S    
C31   C33   A    
C9    C10   A    
Cu2   O4    S    
C8    H15   S    
C32   N6    A    
C39   H6    S    
C12   O4    A    
C21   C22   A    
C52   H36   S    
C13   C25   A    
C3    N3    A    
C23   O5    A    
C45   C46   S    
C51   H34   S    
C51   H33   S    
C50   H30   S    
C28   H9    S    
C50   H29   S    
C53   H38   S    
C11   C20   A    
C44   O15   S    
C56   H45   S    
C5    H13   S    
Cu1   O1    S    
C24   H2    S    
C6    H14   S    
O10   C45   S    
C45   H19   S    
C2    C44   A    
C48   H25   S    
C47   H22   S    
C16   C17   A    
C59   H53   S    
C37   O14   S    
C49   C50   S    
C27   C35   A    
Cu1   Cu2   S    
C30   H10   S    
C27   O12   S    
C1    O1    A    
C41   O13   S    
C13   C24   A    
C55   C56   S    
C43   C44   A    
Cu2   N6    S    
C29   C30   A    
C48   H26   S    
C46   H20   S    
C38   H8    S    
C30   C31   A    
C54   C55   S    
C20   C21   A    
C14   C15   A    
C17   C18   A    
C32   C37   A    
C14   C26   A    
C49   H28   S    
C53   H39   S    
C56   H44   S    
C59   H52   S    
C11   O10   S    
C40   C41   A    
C46   H21   S    
C12   O3    A    
C29   H11   S    
C1    C26   S    
C52   C53   S    
C42   C43   A    
C23   O6    A    
O16   C57   S    
C57   C58   S    
Cu2   O6    S    
C50   H31   S    
C7    C34   S    
C28   C29   A    
C18   C22   A    
C39   N5    A    
C31   C32   A    
C1    O2    A    
C45   H18   S    
C58   H51   S    
C47   H24   S    
C57   H49   S    
C6    C7    A    
C34   O7    A    
C33   C38   A    
Cu1   O7    S    
C19   C24   A    
C5    C10   A    
C3    C10   S    
C58   H50   S    
C48   C49   S    
C4    N4    A    
C15   O11   S    
O11   C48   S    
O15   H47   S    
C4    C42   S    
C33   C35   A    
C25   H16   S    
C3    N2    A    
C49   H27   S    
C55   H43   S    
Cu2   O2    S    
N1    N2    A    
C2    C40   A    
C46   C47   S    
C38   N5    A    
N3    N4    A    
O13   C51   S    
C40   O9    S    
C51   C52   S    
C54   H40   S    
C34   O8    A    
C22   H5    S    
C21   H1    S    
