data_mof_unit_43338.cif
_audit_creation_date              2012-12-10T17:22:10-0500
_audit_creation_method            fapswitch 2.2
_symmetry_space_group_name_H-M    P1
_symmetry_Int_Tables_number       1
_space_group_crystal_system       triclinic
_cell_length_a                    15.976026
_cell_length_b                    10.78643
_cell_length_c                    9.700602
_cell_angle_alpha                 92.280636
_cell_angle_beta                  89.352342
_cell_angle_gamma                 96.686615
_cell_volume                      1658.92597858

loop_
_atom_site_label
_atom_site_type_symbol
_atom_type_description
_atom_site_fract_x
_atom_site_fract_y
_atom_site_fract_z
_atom_type_partial_charge
C1    C     C_R   0.503401 0.262627 0.497300 0.913627
C2    C     C_3   0.943099 0.422366 0.644159 0.555768
C3    C     C_3   0.917819 0.483636 0.505447 -0.327834
C4    C     C_3   0.969325 0.619179 0.493463 0.509435
C5    C     C_3   0.065312 0.609721 0.515170 0.144118
C6    C     C_1   0.825305 0.492168 0.502846 0.243792
C7    C     C_1   0.175352 0.471211 0.505126 0.201017
C8    C     C_1   0.250910 0.480855 0.502618 -0.015382
C9    C     C_R   0.592575 0.131729 0.705788 0.367972
C10   C     C_R   0.600103 0.080698 0.836849 0.201815
C11   C     C_R   0.549154 0.970812 0.869251 0.320670
C12   C     C_R   0.340579 0.494332 0.500623 0.776389
C13   C     C_R   0.498398 0.904279 0.768146 0.381335
C14   C     C_R   0.502557 0.944937 0.630251 -0.201113
C15   C     C_R   0.534655 0.069140 0.608919 -0.080348
C16   C     C_R   0.506300 0.126942 0.492248 -0.124489
C17   C     C_R   0.464972 0.053844 0.383568 0.431108
C18   C     C_R   0.450905 0.923656 0.393133 0.377453
C19   C     C_R   0.476444 0.868184 0.512644 -0.242144
C20   C     C_R   0.643058 0.625731 0.141745 0.303871
C21   C     C_R   0.717274 0.646808 0.065007 0.305502
C22   C     C_R   0.711305 0.668280 0.927252 0.223718
C23   C     C_R   0.491070 0.735613 0.503593 0.859383
C24   C     C_R   0.633438 0.644352 0.862624 0.343434
C25   C     C_R   0.565440 0.569577 0.927186 0.033227
C26   C     C_R   0.567182 0.566824 0.076193 -0.031052
C27   C     C_R   0.439665 0.430241 0.071255 0.442860
C28   C     C_R   0.440450 0.428830 0.924086 0.405128
C29   C     C_R   0.659879 0.500280 0.499588 0.875812
C30   C     C_3   0.040551 0.401317 0.637469 0.553745
C31   C     C_3   0.044054 0.408381 0.366795 0.507293
C32   C     C_3   0.943909 0.396693 0.378136 0.539735
C33   C     C_1   0.749955 0.496981 0.499989 -0.015957
C34   C     C_3   0.083140 0.469663 0.507033 -0.359503
Cu1   Cu    Cu3+1 0.499990 0.499990 0.640660 1.097030
Cu2   Cu    Cu3+1 0.500010 0.500010 0.359340 1.122121
H1    H     H_    0.100233 0.658866 0.429631 0.255256
N1    N     N_R   0.500800 0.501210 0.147910 -0.221507
N2    N     N_R   0.500820 0.501290 0.852040 -0.205536
O1    O     O_R   0.499990 0.319640 0.618810 -0.546765
O2    O     O_R   0.500000 0.319660 0.381240 -0.511029
O3    O     O_R   0.379430 0.499990 0.618840 -0.544126
O4    O     O_R   0.379440 0.500020 0.381260 -0.544414
O5    O     O_R   0.500000 0.680340 0.618760 -0.502643
O6    O     O_R   0.500010 0.680360 0.381190 -0.505186
O7    O     O_R   0.620560 0.499980 0.618740 -0.530001
O8    O     O_R   0.620570 0.500010 0.381160 -0.565368
Cl1   Cl    Cl    0.874326 0.281232 0.678750 -0.306383
O9    O     O_3   0.080456 0.450925 0.759967 -0.606813
H2    H     H_    0.138358 0.426269 0.761363 0.384847
Cl2   Cl    Cl    0.920380 0.515611 0.795028 -0.318954
O10   O     O_3   0.961136 0.661263 0.359912 -0.601813
H3    H     H_    0.905456 0.692162 0.356455 0.414691
O11   O     O_3   0.437796 0.112327 0.270731 -0.631779
H4    H     H_    0.409259 0.050501 0.203434 0.413823
O12   O     O_3   0.644021 0.236216 0.664905 -0.689224
H5    H     H_    0.680417 0.272058 0.741534 0.389609
Cl3   Cl    Cl    0.668532 0.156289 0.964253 -0.412231
Cl4   Cl    Cl    0.548001 0.914538 0.037264 -0.406908
O13   O     O_3   0.439310 0.809471 0.810837 -0.617430
H6    H     H_    0.393688 0.795865 0.741475 0.341551
O14   O     O_3   0.409073 0.853534 0.287186 -0.647208
H7    H     H_    0.376400 0.779237 0.326549 0.334803
Cl5   Cl    Cl    0.360605 0.332046 0.154141 -0.391480
Cl6   Cl    Cl    0.054870 0.237022 0.631901 -0.304621
Cl7   Cl    Cl    0.647212 0.740543 0.276452 -0.435133
Cl8   Cl    Cl    0.814474 0.692224 0.145352 -0.320336
Cl9   Cl    Cl    0.798034 0.748274 0.841841 -0.311893
O15   O     O_3   0.622847 0.703382 0.743547 -0.646299
H8    H     H_    0.657164 0.786038 0.744175 0.350166
Cl10  Cl    Cl    0.364115 0.326511 0.833841 -0.463861
Cl11  Cl    Cl    0.084357 0.499135 0.222172 -0.345117
Cl12  Cl    Cl    0.081535 0.260370 0.321833 -0.326931
O16   O     O_3   0.912019 0.271940 0.401849 -0.615745
H9    H     H_    0.912550 0.222192 0.313615 0.418440
Cl13  Cl    Cl    0.895348 0.434124 0.218742 -0.343553
O17   O     O_3   0.100365 0.675092 0.633885 -0.618030
H10   H     H_    0.062799 0.657838 0.713936 0.433627
Cl14  Cl    Cl    0.933603 0.739770 0.606804 -0.338030

loop_
_geom_bond_atom_site_label_1
_geom_bond_atom_site_label_2
_ccdc_geom_bond_type
C23   O6    A    
C5    H1    S    
C19   C23   S    
Cu1   Cu2   S    
C3    C6    S    
C7    C8    T    
C13   O13   S    
O17   H10   S    
C4    O10   S    
C20   Cl7   S    
C10   Cl3   S    
C12   O4    A    
C32   O16   S    
C31   Cl12  S    
C27   N1    A    
C15   C16   A    
C29   C33   S    
O12   H5    S    
Cu2   O8    S    
C18   C19   A    
Cu1   O3    S    
C12   O3    A    
C1    O1    A    
C16   C17   A    
C9    C10   A    
C13   C14   A    
C21   Cl8   S    
Cu2   O2    S    
C3    C32   S    
C11   Cl4   S    
C24   O15   S    
O16   H9    S    
C30   C34   S    
C24   C25   A    
C4    Cl14  S    
C27   Cl5   S    
C9    O12   S    
C26   N1    A    
C28   N2    A    
C2    Cl1   S    
C25   C26   A    
C23   O5    A    
O13   H6    S    
Cu1   N2    S    
O14   H7    S    
C31   C32   S    
C8    C12   S    
C5    C34   S    
C17   C18   A    
C31   C34   S    
Cu2   O6    S    
C1    C16   S    
Cu1   O5    S    
C22   Cl9   S    
C1    O2    A    
C31   Cl11  S    
C30   O9    S    
C29   O8    A    
C7    C34   S    
C22   C24   A    
C28   Cl10  S    
C5    O17   S    
C3    C4    S    
O10   H3    S    
O11   H4    S    
C14   C19   A    
C18   O14   S    
C4    C5    S    
C32   Cl13  S    
C2    Cl2   S    
C6    C33   T    
C29   O7    A    
C2    C30   S    
Cu2   N1    S    
Cu1   O1    S    
C9    C15   A    
C25   N2    A    
C11   C13   A    
C20   C26   A    
C2    C3    S    
O15   H8    S    
C30   Cl6   S    
C10   C11   A    
C20   C21   A    
O9    H2    S    
C27   C28   A    
C14   C15   A    
Cu2   O4    S    
C21   C22   A    
Cu1   O7    S    
C17   O11   S    
