data_mof_unit_51525.cif
_audit_creation_date              2013-03-05T15:44:58-0500
_audit_creation_method            fapswitch 2.2
_symmetry_space_group_name_H-M    P1
_symmetry_Int_Tables_number       1
_space_group_crystal_system       triclinic
_cell_length_a                    11.158391
_cell_length_b                    11.146655
_cell_length_c                    18.703598
_cell_angle_alpha                 90.617268
_cell_angle_beta                  89.46362
_cell_angle_gamma                 121.079121
_cell_volume                      1992.26219628

loop_
_atom_site_label
_atom_site_type_symbol
_atom_site_description
_atom_site_fract_x
_atom_site_fract_y
_atom_site_fract_z
_atom_type_partial_charge
O1    O     O_R   0.766500 0.250040 0.579790 -0.470091
O2    O     O_R   0.798570 0.516780 0.574780 -0.519292
C1    C     C_R   0.863872 0.638403 0.602638 0.601592
O3    O     O_R   0.984000 0.732950 0.581090 -0.467173
O4    O     O_R   0.218600 0.700890 0.574760 -0.406482
C2    C     C_R   0.207789 0.594872 0.610295 0.573949
O5    O     O_R   0.249390 0.515350 0.579940 -0.502664
O6    O     O_R   0.982790 0.280900 0.573700 -0.538177
C3    C     C_R   0.859516 0.225791 0.603223 0.544012
O7    O     O_R   0.766600 0.251130 0.419260 -0.480417
O8    O     O_R   0.798660 0.517790 0.425980 -0.482974
C4    C     C_R   0.869208 0.636133 0.395892 0.586318
O9    O     O_R   0.984100 0.734040 0.420570 -0.489932
O10   O     O_R   0.218690 0.701900 0.425960 -0.495885
C5    C     C_R   0.280424 0.639574 0.399861 0.597962
O11   O     O_R   0.249490 0.516440 0.419420 -0.424497
O12   O     O_R   0.982880 0.281910 0.424890 -0.442202
C6    C     C_R   0.861903 0.231641 0.394095 0.597770
Cr1   Cr    Cr6+3 0.791660 0.390250 0.499930 1.119119
Cr2   Cr    Cr6+3 0.098520 0.708290 0.500540 1.150186
Cr3   Cr    Cr6+3 0.109770 0.401430 0.499480 1.124965
O13   O     O_3   0.999980 0.499990 0.499980 -0.346382
C7    C     C_R   0.233953 0.724780 0.726902 0.252705
C8    C     C_R   0.258609 0.734176 0.801622 0.134306
C9    C     C_R   0.318912 0.660073 0.829031 0.041900
C10   C     C_R   0.315693 0.550374 0.787685 0.222554
C11   C     C_R   0.257084 0.520691 0.721005 -0.164567
H1    H     H_    0.245356 0.429809 0.692801 0.140518
C12   C     C_R   0.233270 0.615908 0.687067 0.023212
C13   C     C_R   0.864205 0.181988 0.827061 0.078744
C14   C     C_R   0.079220 0.167693 0.814640 0.160003
C15   C     C_R   0.160841 0.131893 0.770676 0.302170
C16   C     C_R   0.128529 0.100186 0.698251 0.267411
C17   C     C_R   0.019290 0.108557 0.668284 -0.150095
C18   C     C_R   0.939440 0.147370 0.709539 -0.081219
C19   C     C_R   0.960609 0.164622 0.784726 -0.041175
C20   C     C_R   0.738429 0.175693 0.721670 -0.030670
C21   C     C_R   0.775850 0.218943 0.792993 -0.024378
C22   C     C_R   0.610609 0.156780 0.696489 0.174534
C23   C     C_R   0.553337 0.226874 0.731098 -0.040697
C24   C     C_R   0.605367 0.294208 0.796497 0.212091
C25   C     C_R   0.714138 0.285982 0.830200 0.223441
C26   C     C_R   0.835479 0.164531 0.676855 0.027605
H2    H     H_    0.995030 0.081355 0.612381 0.159223
H3    H     H_    0.466844 0.228893 0.706991 0.232396
C27   C     C_R   0.759335 0.728443 0.689134 0.200494
C28   C     C_R   0.732912 0.749219 0.761354 0.201565
C29   C     C_R   0.783467 0.702060 0.816055 0.022012
C30   C     C_R   0.850683 0.629441 0.800596 -0.034949
H4    H     H_    0.892866 0.598472 0.843371 0.230586
C31   C     C_R   0.866911 0.597891 0.731272 0.202151
C32   C     C_R   0.824740 0.651423 0.674950 0.062873
C33   C     C_R   0.398859 0.607051 0.296953 0.164771
C34   C     C_R   0.392164 0.603638 0.223158 -0.154163
H5    H     H_    0.400877 0.523642 0.195529 0.242216
C35   C     C_R   0.379005 0.703620 0.184895 -0.069345
C36   C     C_R   0.372665 0.810241 0.223561 0.044240
C37   C     C_R   0.374610 0.808618 0.298942 -0.144952
H6    H     H_    0.359416 0.882876 0.329384 0.183246
C38   C     C_R   0.366008 0.694894 0.334482 -0.001334
C39   C     C_R   0.745730 0.195247 0.275687 0.180245
C40   C     C_R   0.772327 0.224561 0.203380 0.207865
C41   C     C_R   0.864837 0.195116 0.168388 -0.110722
C42   C     C_R   0.973608 0.199463 0.207947 0.039363
C43   C     C_R   0.956348 0.182085 0.283522 0.039759
C44   C     C_R   0.846033 0.187033 0.317842 -0.085047
C45   C     C_R   0.925840 0.778946 0.289403 0.174602
C46   C     C_R   0.890508 0.812024 0.225983 0.467866
C47   C     C_R   0.779407 0.706283 0.186841 -0.266819
C48   C     C_R   0.689410 0.574125 0.218832 0.228164
C49   C     C_R   0.713582 0.550624 0.288321 0.284670
C50   C     C_R   0.828282 0.657618 0.325865 -0.171908
O14   O     O_R   0.895110 0.806860 0.920430 -0.428956
O15   O     O_R   0.872260 0.046970 0.925000 -0.485623
C51   C     C_R   0.811134 0.106806 0.896327 0.598855
O16   O     O_R   0.691430 0.085060 0.918550 -0.471128
O17   O     O_R   0.451490 0.822460 0.925250 -0.466497
C52   C     C_R   0.394089 0.697594 0.897121 0.638318
O18   O     O_R   0.413330 0.603360 0.920440 -0.399222
O19   O     O_R   0.676110 0.626250 0.926750 -0.485590
C53   C     C_R   0.773218 0.732605 0.890433 0.561531
O20   O     O_R   0.895350 0.809870 0.080950 0.049467
O21   O     O_R   0.872490 0.049760 0.073800 -0.415571
C54   C     C_R   0.812289 0.113433 0.100614 0.516006
O22   O     O_R   0.691680 0.088070 0.079070 -0.457334
O23   O     O_R   0.451720 0.825250 0.074050 -0.493503
C55   C     C_R   0.406070 0.708692 0.107218 0.534410
O24   O     O_R   0.413580 0.606370 0.080960 -0.472854
O25   O     O_R   0.676340 0.629040 0.075550 -0.513243
C56   C     C_R   0.773321 0.733206 0.111587 0.447347
Cr4   Cr    Cr6+3 0.874790 0.925890 0.000070 1.500046
Cr5   Cr    Cr6+3 0.574120 0.948670 0.999300 1.215234
Cr6   Cr    Cr6+3 0.551420 0.625320 0.000920 1.190853
O26   O     O_3   0.666780 0.833290 0.000090 -0.436033
O27   O     O_3   0.210264 0.818883 0.692585 -0.578113
H7    H     H_    0.271582 0.911071 0.715643 0.402758
N1    N     N_R   0.535885 0.062315 0.638221 0.101645
O28   O     O_R   0.452393 0.081713 0.598452 -0.287115
O29   O     O_R   0.548929 0.954628 0.625458 -0.341900
O30   O     O_3   0.546014 0.365866 0.824780 -0.684194
H8    H     H_    0.584769 0.403205 0.872176 0.395918
O31   O     O_3   0.726696 0.783605 0.631965 -0.670835
H9    H     H_    0.726220 0.867962 0.648251 0.356359
O32   O     O_3   0.661708 0.815910 0.780221 -0.746585
H10   H     H_    0.597547 0.804191 0.740997 0.346403
O33   O     O_3   0.928866 0.518794 0.721953 -0.715347
H11   H     H_    0.928547 0.494015 0.671207 0.316870
N2    N     N_R   0.433353 0.517222 0.333796 0.077730
O34   O     O_R   0.401857 0.397379 0.306087 -0.167340
O35   O     O_R   0.501720 0.557697 0.393855 -0.350177
N3    N     N_R   0.343880 0.907049 0.188973 0.308316
O36   O     O_R   0.270224 0.870159 0.130644 0.380230
O37   O     O_R   0.357840 0.014045 0.224811 0.311815
N4    N     N_R   0.209003 0.803310 0.849047 0.092620
O38   O     O_R   0.196050 0.777441 0.917264 -0.210649
O39   O     O_R   0.141355 0.859266 0.823569 -0.284998
O40   O     O_3   0.620733 0.172393 0.303016 -0.570811
H12   H     H_    0.589549 0.099632 0.340326 0.327599
N5    N     N_R   0.703178 0.279793 0.163449 0.127077
O41   O     O_R   0.567667 0.215073 0.163093 -0.106971
O42   O     O_R   0.773259 0.372277 0.114233 -0.261726
N6    N     N_R   0.104070 0.238776 0.172222 0.420067
O43   O     O_R   0.124622 0.282010 0.106371 -0.146665
O44   O     O_R   0.210871 0.254987 0.207679 0.282805
N7    N     N_R   0.032402 0.136153 0.324902 0.167412
O45   O     O_R   0.960425 0.023625 0.362930 -0.403594
O46   O     O_R   0.157123 0.227305 0.346629 -0.160838
N8    N     N_R   0.070332 0.828329 0.298517 0.482538
O47   O     O_R   0.154982 0.949860 0.327400 -0.002305
O48   O     O_R   0.108744 0.737545 0.289323 -0.314071
N9    N     N_R   0.982565 0.946388 0.195737 2.197778
O49   O     O_R   0.104781 0.978301 0.171096 -2.576800
O50   O     O_R   0.104781 0.978301 0.171096 -2.576800
O51   O     O_3   0.574298 0.466219 0.185446 -0.527877
H13   H     H_    0.605512 0.442528 0.141129 0.425752
O52   O     O_3   0.639319 0.414663 0.312002 -0.492751
H14   H     H_    0.605110 0.413704 0.360921 0.394839
O53   O     O_3   0.375268 0.475924 0.811501 -0.599114
H15   H     H_    0.375027 0.414535 0.772724 0.352951
O54   O     O_3   0.276028 0.130325 0.795222 -0.630238
H16   H     H_    0.299351 0.167520 0.844282 0.406497
O55   O     O_3   0.210883 0.068165 0.656579 -0.624557
H17   H     H_    0.175372 0.048637 0.606830 0.351155
N10   N     N_R   0.126346 0.223511 0.885663 0.075129
O56   O     O_R   0.148752 0.152276 0.932868 -0.166851
O57   O     O_R   0.127620 0.335960 0.906405 -0.254660
N11   N     N_R   0.766845 0.350323 0.899369 0.053531
O58   O     O_R   0.681262 0.322020 0.952998 -0.243260
O59   O     O_R   0.900572 0.415817 0.912176 -0.272330

loop_
_geom_bond_atom_site_label_1
_geom_bond_atom_site_label_2
_geom_bond_distance
_ccdc_geom_bond_type
C55   O24   1.278628 A    
O17   Cr5   1.943137 S    
C8    N4    1.450339 S    
Cr6   O26   1.987634 S    
O19   C53   1.310815 A    
C11   C12   1.381620 A    
O27   H7    0.990028 S    
C5    C38   1.474425 S    
N3    O36   1.301149 A    
N8    O47   1.300711 A    
N1    O28   1.300921 A    
O4    Cr2   1.969920 S    
O17   C52   1.301688 A    
C29   C53   1.446134 S    
C27   O31   1.380832 S    
O8    Cr1   1.966195 S    
C10   C11   1.369493 A    
O11   Cr3   2.061671 S    
C7    C12   1.413843 A    
N11   O59   1.301989 A    
O18   Cr6   2.084727 S    
C14   C19   1.425677 A    
O4    C2    1.311890 A    
C17   C18   1.397988 A    
C22   N1    1.441348 S    
O33   H11   0.985151 S    
C37   C38   1.396186 A    
C5    O11   1.286904 A    
C27   C32   1.406572 A    
N2    O34   1.296287 A    
C13   C21   1.408691 A    
O12   C6    1.301778 A    
C45   C50   1.401821 A    
C24   C25   1.417515 A    
C14   N10   1.444208 S    
O31   H9    0.987892 S    
C27   C28   1.421765 A    
C39   C44   1.416543 A    
O22   Cr5   2.059973 S    
N11   O58   1.302099 A    
C33   C34   1.382011 A    
N2    O35   1.302750 A    
O6    C3    1.301952 A    
C30   C31   1.374485 A    
C7    C8    1.419188 A    
C8    C9    1.409705 A    
C48   C49   1.384707 A    
C18   C26   1.414516 A    
C4    C50   1.453354 S    
Cr3   O13   2.024099 S    
C47   C48   1.420201 A    
O19   Cr6   1.951836 S    
C25   N11   1.446612 S    
O14   C53   1.300678 A    
O32   H10   0.989469 S    
N1    O29   1.300979 A    
C33   C38   1.391668 A    
N4    O38   1.301313 A    
N6    O43   1.301998 A    
N5    O42   1.302415 A    
C23   H3    1.079849 S    
C34   C35   1.401372 A    
C3    C26   1.503030 S    
O1    Cr1   2.083718 S    
O15   C51   1.296887 A    
C39   O40   1.376286 S    
C31   C32   1.414179 A    
C28   C29   1.403514 A    
O10   Cr2   1.952007 S    
Cr1   O13   1.990985 S    
C17   H2    1.082679 S    
O54   H16   0.983102 S    
O14   Cr4   2.071770 S    
N10   O57   1.301163 A    
C49   O52   1.375010 S    
O24   Cr6   2.068740 S    
O23   C55   1.288603 A    
C46   C47   1.397104 A    
C35   C55   1.476861 S    
C10   O53   1.382782 S    
C37   H6    1.082117 S    
O5    Cr3   2.065079 S    
C9    C52   1.465183 S    
O12   Cr3   1.943028 S    
O20   Cr4   2.090086 S    
C45   C46   1.366253 A    
N8    O48   1.296131 A    
C18   C19   1.422627 A    
C43   N7    1.432045 S    
O15   Cr4   1.968415 S    
C20   C26   1.417977 A    
C46   N9    1.427344 S    
C51   O16   1.293496 A    
C20   C21   1.405364 A    
O21   C54   1.297979 A    
O7    Cr1   2.066218 S    
N5    O41   1.296430 A    
C40   C41   1.390737 A    
Cr5   O26   2.024075 S    
C16   C17   1.392822 A    
C24   O30   1.373660 S    
O1    C3    1.281846 A    
N3    O37   1.299572 A    
C54   O22   1.291657 A    
C40   N5    1.429443 S    
O51   H13   0.981294 S    
O16   Cr5   2.064858 S    
C23   C24   1.392914 A    
Cr2   O13   1.990975 S    
C30   H4    1.077758 S    
N7    O45   1.301023 A    
C35   C36   1.416958 A    
N6    O44   1.297128 A    
C47   C56   1.451798 S    
C22   C23   1.390954 A    
C48   O51   1.374866 S    
C34   H5    1.072504 S    
C29   C30   1.385299 A    
C28   O32   1.381042 S    
O9    Cr2   2.091175 S    
O2    Cr1   1.949933 S    
O55   H17   0.991817 S    
C14   C15   1.420920 A    
N10   O56   1.302572 A    
N9    O50   1.299864 A    
N9    O49   1.299864 A    
O6    Cr3   1.943614 S    
N4    O39   1.298129 A    
C1    C32   1.446055 S    
C21   C25   1.424065 A    
C2    O5    1.316262 A    
C16   O55   1.377894 S    
C6    C44   1.487006 S    
O21   Cr4   1.950302 S    
O20   C56   1.306633 A    
C13   C19   1.420334 A    
C41   C54   1.489123 S    
C42   C43   1.426521 A    
O2    C1    1.269779 A    
C9    C10   1.424537 A    
C49   C50   1.405831 A    
C20   C22   1.414385 A    
O23   Cr5   1.943821 S    
C45   N8    1.420703 S    
C15   C16   1.398979 A    
Cr4   O26   1.994798 S    
C13   C51   1.492645 S    
C52   O18   1.258612 A    
C33   N2    1.429449 S    
C36   C37   1.410726 A    
C36   N3    1.436275 S    
O7    C6    1.275364 A    
C31   O33   1.381791 S    
C42   N6    1.444697 S    
O30   H8    0.979528 S    
C7    O27   1.373324 S    
C15   O54   1.377493 S    
O25   Cr6   1.966875 S    
C39   C40   1.387693 A    
O53   H15   0.990824 S    
C41   C42   1.406497 A    
O3    Cr2   2.072662 S    
C2    C12   1.459189 S    
C4    O9    1.266229 A    
C43   C44   1.408853 A    
C11   H1    1.083766 S    
N7    O46   1.294628 A    
O10   C5    1.294579 A    
O52   H14   0.986109 S    
O25   C56   1.293471 A    
O40   H12   0.991022 S    
C1    O3    1.269018 A    
O8    C4    1.269675 A    
