data_mof_unit_59975.cif
_audit_creation_date              2012-12-11T14:14:10-0500
_audit_creation_method            fapswitch 2.2
_symmetry_space_group_name_H-M    P1
_symmetry_Int_Tables_number       1
_space_group_crystal_system       triclinic
_cell_length_a                    17.048703
_cell_length_b                    7.246365
_cell_length_c                    16.970916
_cell_angle_alpha                 89.772295
_cell_angle_beta                  99.215394
_cell_angle_gamma                 89.90642
_cell_volume                      2069.52391394

loop_
_atom_site_label
_atom_site_type_symbol
_atom_type_description
_atom_site_fract_x
_atom_site_fract_y
_atom_site_fract_z
_atom_type_partial_charge
O1    O     O_R   0.414560 0.494370 0.416770 -0.501714
O2    O     O_R   0.585440 0.994370 0.583230 -0.495408
O3    O     O_R   0.578370 0.819590 0.429320 -0.530694
O4    O     O_R   0.421630 0.319590 0.570680 -0.547113
C1    C     C_R   0.604599 0.657078 0.413471 0.724608
C2    C     C_R   0.395183 0.156838 0.586223 0.685296
O5    O     O_R   0.414740 0.823790 0.407360 -0.545394
O6    O     O_R   0.585260 0.323790 0.592640 -0.555171
O7    O     O_R   0.420650 0.998510 0.561120 -0.544323
O8    O     O_R   0.579350 0.498510 0.438880 -0.535781
C3    C     C_R   0.391103 0.654330 0.382776 0.608745
C4    C     C_R   0.615027 0.154376 0.611151 0.631035
O9    O     O_3   0.502130 0.662240 0.550470 -0.379258
O10   O     O_3   0.497870 0.162240 0.449530 -0.353804
V1    V     V_3+5 0.499600 0.935390 0.490640 1.545308
V2    V     V_3+5 0.500400 0.435390 0.509360 1.506992
C5    C     C_2   0.795891 0.264904 0.773809 0.193483
C6    C     C_2   0.226339 0.761999 0.203543 0.195760
C7    C     C_2   0.814802 0.121334 0.825363 -0.195541
C8    C     C_2   0.174249 0.619934 0.186519 -0.209724
H1    H     H_    0.773376 0.007807 0.824650 0.157619
H2    H     H_    0.176343 0.506538 0.228790 0.151932
C9    C     C_2   0.718541 0.269577 0.718597 -0.297056
C10   C     C_2   0.282017 0.766745 0.280610 -0.265270
C11   C     C_2   0.692029 0.135260 0.666051 0.303777
C12   C     C_2   0.336879 0.635756 0.305621 0.256196
H3    H     H_    0.683946 0.395620 0.718532 0.158285
H4    H     H_    0.279987 0.889848 0.316583 0.152238
C13   C     C_R   0.332463 0.160884 0.637989 -0.065132
C14   C     C_R   0.666843 0.662164 0.361132 -0.079772
C15   C     C_R   0.168344 0.105632 0.863743 -0.095198
C16   C     C_R   0.831613 0.604728 0.136232 -0.098829
C17   C     C_R   0.273435 0.923116 0.816730 0.140939
C18   C     C_R   0.727513 0.421279 0.184651 0.133899
C19   C     C_R   0.219869 0.952148 0.870370 -0.141116
C20   C     C_R   0.781072 0.449954 0.130916 -0.150725
C21   C     C_R   0.172815 0.235718 0.803402 -0.226715
C22   C     C_R   0.825989 0.736429 0.195160 -0.240191
C23   C     C_R   0.225879 0.209168 0.748540 0.122535
C24   C     C_R   0.773017 0.710107 0.250108 0.124918
C25   C     C_R   0.276476 0.051707 0.754305 0.140991
C26   C     C_R   0.723701 0.551100 0.245979 0.146832
C27   C     C_R   0.329051 0.028634 0.697989 -0.232068
C28   C     C_R   0.671557 0.527845 0.302732 -0.240115
C29   C     C_R   0.280854 0.313898 0.632916 -0.153960
C30   C     C_R   0.716580 0.817878 0.363905 -0.128986
C31   C     C_R   0.228179 0.337349 0.687085 -0.175914
C32   C     C_R   0.769359 0.840572 0.309860 -0.185202
H5    H     H_    0.369646 0.912796 0.702066 0.133520
H6    H     H_    0.632317 0.410100 0.300208 0.146741
H7    H     H_    0.282136 0.418325 0.587274 0.125076
H8    H     H_    0.713784 0.925419 0.407457 0.170443
H9    H     H_    0.189871 0.457781 0.681485 0.127315
H10   H     H_    0.806446 0.962613 0.314003 0.128906
H11   H     H_    0.217142 0.851385 0.917239 0.130976
H12   H     H_    0.784430 0.348151 0.084937 0.128141
H13   H     H_    0.132856 0.353310 0.797117 0.133527
H14   H     H_    0.864940 0.855394 0.200268 0.132743
O11   O     O_R   0.920750 0.773600 0.061260 -0.536802
O12   O     O_R   0.079250 0.273600 0.938740 -0.531086
O13   O     O_R   0.085340 0.439850 0.092570 -0.531769
O14   O     O_R   0.914660 0.939850 0.907430 -0.528377
C33   C     C_R   0.111998 0.608911 0.114689 0.719172
C34   C     C_R   0.887407 0.109552 0.886192 0.712137
O15   O     O_R   0.921720 0.444130 0.070790 -0.544486
O16   O     O_R   0.078280 0.944130 0.929210 -0.541003
O17   O     O_R   0.914480 0.269530 0.916840 -0.544469
O18   O     O_R   0.085520 0.769530 0.083160 -0.542306
C35   C     C_R   0.895395 0.610713 0.085661 0.692681
C36   C     C_R   0.104526 0.110948 0.914274 0.711525
O19   O     O_3   0.997840 0.601520 0.949550 -0.377362
O20   O     O_3   0.002160 0.101520 0.050450 -0.382470
V3    V     V_3+5 0.000400 0.328340 0.009360 1.421284
V4    V     V_3+5 0.999600 0.828340 0.990640 1.428337
C37   C     C_3   0.850592 0.427032 0.769927 -0.571294
H15   H     H_    0.830672 0.511535 0.715698 0.239571
H16   H     H_    0.850957 0.516669 0.822872 0.208738
H17   H     H_    0.911736 0.378213 0.766462 0.185366
C38   C     C_3   0.230168 0.922870 0.147523 -0.574665
H18   H     H_    0.284277 0.006466 0.166819 0.253415
H19   H     H_    0.233413 0.872629 0.086374 0.180135
H20   H     H_    0.177681 0.014075 0.146813 0.203132
S1    S     S_3+6 0.749780 0.933522 0.654772 -0.027614
O21   O     O_2   0.837342 0.973643 0.671532 -0.333507
O22   O     O_2   0.729770 0.787892 0.711575 -0.379458
O23   O     O_3   0.727714 0.852540 0.561210 -0.515946
H21   H     H_    0.752852 0.728920 0.562953 0.346413
S2    S     S_3+6 0.351518 0.439751 0.246442 0.001805
O24   O     O_2   0.298241 0.287151 0.266037 -0.348087
O25   O     O_2   0.332943 0.482766 0.158687 -0.334696
O26   O     O_3   0.446322 0.366976 0.267914 -0.480422
H22   H     H_    0.478461 0.472247 0.253806 0.310953
C39   C     C_3   0.325263 0.752898 0.826616 -0.782092
H23   H     H_    0.314140 0.666523 0.877900 0.222387
H24   H     H_    0.313035 0.666978 0.772027 0.210419
H25   H     H_    0.388833 0.793512 0.837280 0.214381
C40   C     C_3   0.676122 0.250889 0.175750 -0.775380
H26   H     H_    0.687728 0.163512 0.125209 0.210471
H27   H     H_    0.688225 0.166105 0.230966 0.213102
H28   H     H_    0.612452 0.291380 0.164539 0.229267

loop_
_geom_bond_atom_site_label_1
_geom_bond_atom_site_label_2
_ccdc_geom_bond_type
C39   H23   S    
O1    C3    A    
O2    C4    A    
C2    O7    A    
C40   H26   S    
C23   C25   A    
O5    C3    A    
C5    C9    S    
C6    C10   S    
C16   C20   A    
C7    H1    S    
C10   C12   D    
C29   H7    S    
O18   V4    S    
O16   V4    S    
C30   H8    S    
O12   V3    S    
C18   C40   S    
O15   V3    S    
O13   C33   A    
O14   C34   A    
C5    C7    D    
C22   H14   S    
C15   C36   S    
C6    C38   S    
C18   C26   A    
O17   V3    S    
C16   C22   A    
C18   C20   A    
C31   H9    S    
C24   C26   A    
O6    V2    S    
C13   C27   A    
C25   C27   A    
C14   C28   A    
C26   C28   A    
C40   H27   S    
C29   C31   A    
C30   C32   A    
C19   H11   S    
C34   O17   A    
O4    C2    A    
O26   H22   S    
C38   H19   S    
O23   H21   S    
C27   H5    S    
C3    C12   S    
O13   V3    S    
C15   C21   A    
C13   C29   A    
O4    V2    S    
C32   H10   S    
C37   H15   S    
C20   H12   S    
O19   V4    S    
S1    O21   D    
S2    O26   S    
O12   C36   A    
C7    C34   S    
O6    C4    A    
C2    C13   S    
O1    V2    S    
O2    V1    S    
C37   H16   S    
O11   V4    S    
O11   C35   A    
C12   S2    S    
S1    O22   D    
S2    O25   D    
C39   H25   S    
C9    H3    S    
C15   C19   A    
C40   H28   S    
O3    V1    S    
C23   C31   A    
C1    C14   S    
C28   H6    S    
C24   C32   A    
C33   O18   A    
C14   C30   A    
C10   H4    S    
C8    H2    S    
O20   V3    S    
O3    C1    A    
C17   C39   S    
C38   H20   S    
C16   C35   S    
C4    C11   S    
C17   C25   A    
C8    C33   S    
O7    V1    S    
C1    O8    A    
C21   C23   A    
O8    V2    S    
C22   C24   A    
O16   C36   A    
O15   C35   A    
O5    V1    S    
C17   C19   A    
C6    C8    D    
C9    C11   D    
C37   H17   S    
C38   H18   S    
S1    O23   S    
S2    O24   D    
C39   H24   S    
O9    V2    S    
C11   S1    S    
O10   V1    S    
O14   V4    S    
C21   H13   S    
C5    C37   S    
