data_mof_unit_41222.cif
_audit_creation_date              2012-12-11T20:37:09-0500
_audit_creation_method            fapswitch 2.2
_symmetry_space_group_name_H-M    P1
_symmetry_Int_Tables_number       1
_space_group_crystal_system       triclinic
_cell_length_a                    8.346033
_cell_length_b                    18.828133
_cell_length_c                    22.832624
_cell_angle_alpha                 97.331814
_cell_angle_beta                  89.640957
_cell_angle_gamma                 93.823467
_cell_volume                      3550.65804981

loop_
_atom_site_label
_atom_site_type_symbol
_atom_type_description
_atom_site_fract_x
_atom_site_fract_y
_atom_site_fract_z
_atom_type_partial_charge
Ba1   Ba    Ba6+2 0.849480 0.533290 0.473010 1.640879
Ba2   Ba    Ba6+2 0.340340 0.466770 0.527000 1.652832
C1    C     C_3   0.595445 0.786823 0.310204 -0.360776
C2    C     C_R   0.072151 0.574883 0.943405 -0.028340
C3    C     C_R   0.027247 0.572926 0.883243 0.587788
C4    C     C_3   0.112346 0.732253 0.320725 0.326711
C5    C     C_R   0.936012 0.448795 0.879094 0.586109
C6    C     C_R   0.982461 0.448651 0.938784 -0.025310
C7    C     C_R   0.050424 0.512178 0.971126 -0.050321
C8    C     C_R   0.138202 0.638150 0.976629 -0.075093
C9    C     C_R   0.181651 0.639152 0.035952 -0.076461
C10   C     C_R   0.162289 0.576735 0.064108 -0.023702
C11   C     C_R   0.096910 0.512965 0.031412 -0.050531
C12   C     C_3   0.583806 0.714497 0.333380 0.378348
C13   C     C_R   0.963099 0.386248 0.966892 -0.078169
C14   C     C_R   0.010800 0.386778 0.025661 -0.073852
C15   C     C_R   0.078086 0.449919 0.058723 -0.025954
C16   C     C_3   0.038458 0.749762 0.264016 -0.327062
C17   C     C_R   0.127996 0.451099 0.118207 0.586874
C18   C     C_R   0.206601 0.576790 0.124118 0.585708
C19   C     C_2   0.759597 0.497298 0.771231 -0.084858
C20   C     C_3   0.713848 0.499683 0.706591 -0.015785
C21   C     C_1   0.999309 0.519247 0.687375 0.026822
C22   C     C_2   0.041458 0.521260 0.743684 -0.111573
C23   C     C_3   0.508113 0.357271 0.345965 0.294620
C24   C     C_2   0.915448 0.509076 0.789421 0.221818
C25   C     C_R   0.398740 0.542270 0.231109 -0.107667
C26   C     C_R   0.450215 0.538722 0.289273 -0.029194
C27   C     C_R   0.192034 0.482658 0.312370 0.042821
C28   C     C_3   0.200908 0.682317 0.596908 0.289718
C29   C     C_R   0.139065 0.485372 0.254114 -0.076424
C30   C     C_R   0.242719 0.514254 0.212130 0.216729
C31   C     C_2   0.859234 0.490483 0.667508 -0.245273
C32   C     C_2   0.407353 0.696377 0.469138 -0.180908
C33   C     C_3   0.313777 0.747503 0.438480 -0.049929
C34   C     C_3   0.508505 0.336061 0.279424 -0.364399
C35   C     C_2   0.351918 0.825542 0.459589 -0.133659
C36   C     C_2   0.488811 0.846637 0.490014 -0.064692
C37   C     C_2   0.586261 0.789939 0.509928 -0.175840
C38   C     C_1   0.530710 0.721266 0.504707 0.069200
C39   C     C_R   0.653822 0.065427 0.507712 0.461381
C40   C     C_3   0.240373 0.762361 0.613414 -0.388704
C41   C     C_R   0.546039 0.924251 0.498813 0.461530
C42   C     C_R   0.616301 0.190934 0.486333 -0.120047
C43   C     C_R   0.665549 0.263882 0.490271 0.050573
C44   C     C_R   0.909435 0.242419 0.539653 0.013061
C45   C     C_3   0.995234 0.305673 0.679020 0.282742
C46   C     C_R   0.860423 0.169056 0.536896 -0.137545
C47   C     C_R   0.711173 0.142624 0.510864 -0.063007
C48   C     C_R   0.808134 0.289494 0.518962 -0.272607
C49   C     C_3   0.997452 0.314969 0.399831 0.305684
C50   C     C_3   0.981088 0.234132 0.381842 -0.379920
C51   C     C_3   0.762102 0.708261 0.653851 0.335915
C52   C     C_3   0.751268 0.699972 0.719526 -0.331630
C53   C     C_3   0.785296 0.788318 0.646707 -0.381063
C54   C     C_3   0.552413 0.229809 0.652850 -0.360517
C55   C     C_3   0.358945 0.618054 0.451729 -0.226244
C56   C     C_3   0.957367 0.274756 0.736268 -0.343362
C57   C     C_3   0.480587 0.293834 0.688941 0.391149
C58   C     C_3   0.407473 0.271769 0.745924 -0.335300
C59   C     C_R   0.349057 0.505790 0.327600 -0.291222
H1    H     H_    0.626603 0.722825 0.379861 0.061504
H2    H     H_    0.867009 0.679691 0.636346 0.074369
H3    H     H_    0.721216 0.810156 0.313308 0.135986
H4    H     H_    0.651503 0.730129 0.740575 0.125312
H5    H     H_    0.865818 0.720012 0.742304 0.107765
H6    H     H_    0.728461 0.642726 0.725270 0.091976
H7    H     H_    0.455829 0.693674 0.331004 -0.093408
H8    H     H_    0.383127 0.367040 0.360052 0.027033
H9    H     H_    0.587848 0.406917 0.356347 0.051382
H10   H     H_    0.429653 0.286490 0.267542 0.136157
H11   H     H_    0.463451 0.379644 0.256873 0.074791
H12   H     H_    0.345099 0.771430 0.643847 0.125909
H13   H     H_    0.632559 0.326315 0.264002 0.130163
H14   H     H_    0.129402 0.745891 0.228253 0.116096
H15   H     H_    0.045156 0.362022 0.689628 0.050803
H16   H     H_    0.880035 0.305135 0.654671 0.006299
H17   H     H_    0.853039 0.300443 0.758043 0.169415
H18   H     H_    0.926911 0.216083 0.727007 0.112050
H19   H     H_    0.061615 0.284717 0.766731 0.120179
H20   H     H_    0.383483 0.310418 0.661787 0.125510
H21   H     H_    0.501680 0.253916 0.773881 0.123004
H22   H     H_    0.313667 0.227270 0.735848 0.098712
H23   H     H_    0.269129 0.787987 0.573296 0.075904
H24   H     H_    0.144363 0.675264 0.313686 0.013180
H25   H     H_    0.352124 0.318265 0.771125 0.120635
H26   H     H_    0.994278 0.337337 0.045221 0.123355
H27   H     H_    0.911611 0.336438 0.943364 0.119320
H28   H     H_    0.231544 0.689147 0.059674 0.119661
H29   H     H_    0.479843 0.566169 0.200842 0.110489
H30   H     H_    0.156236 0.687390 0.956863 0.122243
H31   H     H_    0.166381 0.531558 0.756832 0.114949
H32   H     H_    0.665294 0.490025 0.803311 0.089857
H33   H     H_    0.018912 0.464304 0.241256 0.122631
H34   H     H_    0.136122 0.787876 0.635438 0.122682
H35   H     H_    0.393340 0.498032 0.370352 0.037379
H36   H     H_    0.222595 0.768473 0.329474 -0.029070
H37   H     H_    0.849925 0.458044 0.624564 0.063856
H38   H     H_    0.278732 0.864175 0.442986 0.101806
H39   H     H_    0.710077 0.804581 0.522161 0.118522
H40   H     H_    0.505306 0.172136 0.463426 0.103202
H41   H     H_    0.845102 0.346059 0.522071 0.057000
H42   H     H_    0.935349 0.711220 0.250297 0.164457
H43   H     H_    0.310909 0.657137 0.580572 0.024320
H44   H     H_    0.107821 0.674281 0.561859 0.071341
H45   H     H_    0.878764 0.334241 0.412719 0.009872
H46   H     H_    0.668097 0.813257 0.649248 0.112475
H47   H     H_    0.866063 0.817586 0.681499 0.091852
H48   H     H_    0.843476 0.795039 0.603940 0.111317
H49   H     H_    0.517901 0.824178 0.336968 0.068972
H50   H     H_    0.555210 0.780432 0.263443 0.127530
H51   H     H_    0.607032 0.247141 0.612294 0.105700
H52   H     H_    0.646498 0.208197 0.678440 0.104682
H53   H     H_    0.457428 0.186615 0.639724 0.112218
H54   H     H_    0.937718 0.133315 0.554985 0.104898
H55   H     H_    0.441427 0.576756 0.448535 0.161637
H56   H     H_    0.082529 0.327026 0.437501 0.061867
H57   H     H_    0.268866 0.600025 0.483395 0.119764
H58   H     H_    0.321139 0.612194 0.405146 0.034293
H59   H     H_    0.997930 0.805197 0.270432 0.105220
H60   H     H_    0.892608 0.220802 0.345308 0.137362
H61   H     H_    0.939918 0.206066 0.419447 0.064012
H62   H     H_    0.099086 0.214593 0.366876 0.127351
N1    N     N_R   0.959677 0.510317 0.851627 -0.424987
N2    N     N_R   0.190967 0.514206 0.150732 -0.423666
N3    N     N_R   0.506963 0.042859 0.484581 -0.243537
N4    N     N_R   0.454541 0.974066 0.480174 -0.244848
N5    N     N_R   0.692696 0.946699 0.522604 -0.242563
N6    N     N_R   0.745372 0.015844 0.527046 -0.242043
O1    O     O_2   0.898140 0.461210 0.359840 -0.456164
O2    O     O_2   0.249182 0.246838 0.543225 -0.482266
O3    O     O_3   0.108573 0.264540 0.646711 -0.615711
O4    O     O_3   0.138540 0.461940 0.430900 -0.501631
O5    O     O_3   0.557600 0.585010 0.531050 -0.480417
O6    O     O_2   0.379790 0.327560 0.468300 -0.463944
O7    O     O_3   0.564277 0.301314 0.373372 -0.640945
O8    O     O_2   0.386621 0.443291 0.705611 -0.513996
O9    O     O_3   0.603088 0.348309 0.703681 -0.623724
O10   O     O_2   0.047028 0.627239 0.859228 -0.593371
O11   O     O_2   0.875571 0.393846 0.851476 -0.610752
O12   O     O_3   0.619657 0.676302 0.626300 -0.619684
O13   O     O_2   0.117362 0.395458 0.140686 -0.596244
O14   O     O_2   0.257771 0.632892 0.152746 -0.613655
O15   O     O_3   0.654260 0.589640 0.397760 -0.494035
O16   O     O_2   0.786587 0.540979 0.293685 -0.476278
O17   O     O_3   0.054057 0.346921 0.351231 -0.627486
O18   O     O_3   0.681018 0.667425 0.299135 -0.582657
O19   O     O_2   0.809910 0.672460 0.531740 -0.480434
O20   O     O_3   0.065030 0.625960 0.427320 -0.476504
O21   O     O_2   0.998404 0.754562 0.483734 -0.486845
O22   O     O_3   0.003215 0.743727 0.367729 -0.567165
O23   O     O_2   0.291560 0.538810 0.640200 -0.446589
O24   O     O_3   0.051160 0.538120 0.569110 -0.499078
O25   O     O_3   0.535440 0.410410 0.602240 -0.465122
O26   O     O_3   0.144566 0.653269 0.647078 -0.631121
O27   O     O_3   0.632100 0.415050 0.468960 -0.479440
O28   O     O_3   0.124670 0.374100 0.572690 -0.482485
P1    P     P_3+3 0.069200 0.440380 0.368230 0.997878
P2    P     P_3+3 0.634560 0.662100 0.548650 0.978710
P3    P     P_3+3 0.093719 0.719698 0.430644 0.967256
P4    P     P_3+3 0.120500 0.559680 0.631780 0.999884
P5    P     P_3+3 0.100705 0.280956 0.573196 0.945003
P6    P     P_3+3 0.642743 0.581760 0.319919 0.976834
P7    P     P_3+3 0.561230 0.325299 0.449980 0.951998
P8    P     P_3+3 0.555025 0.428991 0.679306 0.970011

loop_
_geom_bond_atom_site_label_1
_geom_bond_atom_site_label_2
_ccdc_geom_bond_type
C42   C47   A    
C19   C24   D    
C16   H14   S    
O6    P7    D    
C38   P2    S    
C5    N1    Am   
N5    N6    A    
O8    P8    D    
C59   H35   S    
C5    C6    A    
C52   H4    S    
C51   C52   S    
O26   P4    S    
C3    N1    Am   
N3    N4    A    
C4    H24   S    
O21   P3    D    
O9    P8    S    
C32   C38   D    
Ba1   P1    S    
C33   C35   S    
C43   P7    S    
C22   C24   S    
C45   H15   S    
C32   C33   S    
C49   H45   S    
C36   C37   S    
C58   H22   S    
C53   H47   S    
C1    H49   S    
C13   C14   A    
C12   H1    S    
C25   H29   S    
Ba1   Ba2   S    
C23   O7    S    
C7    C11   A    
C33   P3    S    
C13   H27   S    
C15   C17   A    
C20   P8    S    
C58   H21   S    
O12   P2    S    
C31   H37   S    
C1    H50   S    
C14   C15   A    
C21   C31   D    
C57   O9    S    
C32   C55   S    
C21   C22   D    
O25   P8    S    
Ba1   O20   S    
O23   P4    D    
C34   H10   S    
C56   H19   S    
C55   H58   S    
C26   C59   A    
O5    P2    S    
C57   C58   S    
Ba2   O25   S    
C19   C20   S    
C53   H48   S    
C18   O14   D    
C24   N1    S    
Ba1   O4    S    
C22   H31   S    
Ba2   P4    S    
C39   C47   S    
C3    O10   D    
C55   H55   S    
C44   C46   A    
C51   C53   S    
Ba2   O23   S    
C4    C16   S    
C27   C59   A    
Ba2   O4    S    
C49   C50   S    
C4    H36   S    
Ba1   P2    S    
C40   H23   S    
Ba1   O1    S    
C41   N4    A    
C37   C38   D    
C58   H25   S    
C6    C7    A    
C52   H6    S    
O16   P6    D    
C49   O17   S    
C1    H3    S    
C12   O18   S    
C17   N2    Am   
C40   H34   S    
C53   H46   S    
O19   P2    D    
C30   N2    S    
Ba1   O27   S    
C35   C36   D    
C14   H26   S    
C50   H60   S    
C9    H28   S    
C29   C30   A    
C54   H52   S    
C10   C18   A    
C50   H62   S    
Ba2   O5    S    
Ba1   O24   S    
C1    C12   S    
C34   H13   S    
C56   H18   S    
C46   H54   S    
C52   H5    S    
C4    O22   S    
C46   C47   A    
C8    H30   S    
C48   H41   S    
C6    C13   A    
C28   H44   S    
C23   H8    S    
C45   H16   S    
C2    C8    A    
Ba1   O5    S    
C16   H59   S    
C35   H38   S    
C42   C43   A    
O7    P7    S    
C20   C31   S    
C28   O26   S    
C40   H12   S    
Ba2   O27   S    
C17   O13   D    
C25   C30   A    
C39   N3    A    
C57   H20   S    
C2    C3    A    
C41   N5    A    
C50   H61   S    
C42   H40   S    
C27   P1    S    
O17   P1    S    
Ba2   O24   S    
C29   H33   S    
C44   C48   A    
Ba2   O6    S    
O2    P5    D    
C54   C57   S    
C11   C15   A    
C45   O3    S    
O1    P1    D    
O22   P3    S    
C36   C41   S    
O15   P6    S    
Ba1   O15   S    
O18   P6    S    
C45   C56   S    
C39   N6    A    
C51   H2    S    
C37   H39   S    
C5    O11   D    
C19   H32   S    
C43   C48   A    
Ba2   O28   S    
C49   H56   S    
C51   O12   S    
C16   H42   S    
O4    P1    S    
O20   P3    S    
O3    P5    S    
C8    C9    A    
C56   H17   S    
C23   C34   S    
C54   H53   S    
C18   N2    Am   
C10   C11   A    
O27   P7    S    
C27   C29   A    
C44   P5    S    
O24   P4    S    
C25   C26   A    
C12   H7    S    
C28   C40   S    
Ba1   O19   S    
C23   H9    S    
C2    C7    A    
C26   P6    S    
C28   H43   S    
O28   P5    S    
C54   H51   S    
C34   H11   S    
C9    C10   A    
C55   H57   S    
C21   P4    S    
