data_mof_unit_24617.cif
_audit_creation_date              2013-03-05T15:50:32-0500
_audit_creation_method            fapswitch 2.2
_symmetry_space_group_name_H-M    P1
_symmetry_Int_Tables_number       1
_space_group_crystal_system       triclinic
_cell_length_a                    19.203459
_cell_length_b                    7.150121
_cell_length_c                    17.631232
_cell_angle_alpha                 89.941573
_cell_angle_beta                  108.852831
_cell_angle_gamma                 89.964692
_cell_volume                      2291.01345632

loop_
_atom_site_label
_atom_site_type_symbol
_atom_site_description
_atom_site_fract_x
_atom_site_fract_y
_atom_site_fract_z
_atom_type_partial_charge
O1    O     O_R   0.562310 0.505770 0.439670 -0.573297
O2    O     O_R   0.437690 0.005770 0.560330 -0.580497
O3    O     O_R   0.411650 0.169150 0.405330 -0.545831
O4    O     O_R   0.588350 0.669150 0.594670 -0.548934
C1    C     C_R   0.386068 0.346070 0.381383 1.018142
C2    C     C_R   0.614100 0.845442 0.618357 1.048206
O5    O     O_R   0.560140 0.175610 0.430010 -0.584228
O6    O     O_R   0.439860 0.675610 0.569990 -0.602091
O7    O     O_R   0.587240 0.012100 0.585200 -0.602966
O8    O     O_R   0.412760 0.512100 0.414800 -0.607279
C3    C     C_R   0.581080 0.344581 0.414981 1.014342
C4    C     C_R   0.418948 0.844557 0.585033 1.009699
O9    O     O_3   0.508720 0.341420 0.550890 -0.271996
O10   O     O_3   0.491280 0.841420 0.449110 -0.265985
V1    V     V_3+5 0.498380 0.063930 0.490560 1.282619
V2    V     V_3+5 0.501620 0.563930 0.509440 1.273541
C5    C     C_R   0.179382 0.061191 0.866175 -0.114898
C6    C     C_R   0.816866 0.554477 0.129163 -0.037834
C7    C     C_R   0.129561 0.916441 0.864371 -0.156123
C8    C     C_R   0.869764 0.415500 0.134698 -0.167286
C9    C     C_R   0.127081 0.760143 0.815207 -0.135859
C10   C     C_R   0.874843 0.263456 0.186757 -0.122039
C11   C     C_R   0.172138 0.748975 0.765984 -0.021306
C12   C     C_R   0.826214 0.244756 0.231733 -0.018235
C13   C     C_R   0.224255 0.892863 0.770979 0.034566
C14   C     C_R   0.773607 0.388186 0.226226 0.009616
C15   C     C_R   0.227559 0.048890 0.821093 0.195870
C16   C     C_R   0.769758 0.543720 0.175516 0.168566
C17   C     C_R   0.167616 0.596570 0.713008 0.327531
C18   C     C_R   0.829814 0.090504 0.283887 0.324470
C19   C     C_R   0.217931 0.584633 0.670416 -0.303506
C20   C     C_R   0.780526 0.081196 0.327812 -0.289309
C21   C     C_R   0.270253 0.724906 0.676181 0.099041
C22   C     C_R   0.728535 0.222167 0.322347 0.101766
C23   C     C_R   0.273055 0.881282 0.725814 0.032259
C24   C     C_R   0.725517 0.378072 0.272305 0.031137
C25   C     C_R   0.324759 0.025620 0.730345 0.109561
C26   C     C_R   0.674920 0.524610 0.269056 0.117446
C27   C     C_R   0.327643 0.181218 0.780801 0.020036
C28   C     C_R   0.672212 0.680654 0.218818 -0.024151
C29   C     C_R   0.278913 0.191117 0.825499 -0.203057
C30   C     C_R   0.719347 0.687822 0.172239 -0.175101
C31   C     C_R   0.318886 0.712190 0.631601 -0.194957
C32   C     C_R   0.680093 0.209949 0.367184 -0.174069
C33   C     C_R   0.369793 0.855100 0.634793 -0.114857
C34   C     C_R   0.630202 0.354964 0.365140 -0.139218
C35   C     C_R   0.372379 0.010934 0.684186 -0.115574
C36   C     C_R   0.628570 0.512390 0.316718 -0.106342
H1    H     H_    0.182011 0.181491 0.904417 0.137292
H2    H     H_    0.812675 0.672013 0.088981 0.156957
H3    H     H_    0.089838 0.647518 0.816102 0.172840
H4    H     H_    0.918288 0.163296 0.192537 0.183164
H5    H     H_    0.214762 0.467303 0.630538 0.195217
H6    H     H_    0.782783 0.961953 0.366588 0.197970
H7    H     H_    0.316152 0.592330 0.593139 0.135396
H8    H     H_    0.682530 0.089453 0.405377 0.159731
H9    H     H_    0.412340 0.119668 0.686897 0.167943
H10   H     H_    0.590283 0.624349 0.315733 0.175887
H11   H     H_    0.281056 0.310706 0.863947 0.146993
H12   H     H_    0.717050 0.807417 0.133640 0.161481
C37   C     C_3   0.779932 0.707764 0.810548 -0.376384
C38   C     C_3   0.232216 0.233460 0.175158 -0.348000
H13   H     H_    0.820563 0.607076 0.800890 0.176662
H14   H     H_    0.198022 0.108139 0.175790 0.197483
H15   H     H_    0.775693 0.668211 0.869664 0.231857
H16   H     H_    0.237948 0.231498 0.114710 0.230595
C39   C     C_3   0.706079 0.679479 0.741351 0.201145
C40   C     C_3   0.307033 0.208622 0.244388 0.248105
H17   H     H_    0.716043 0.569080 0.701686 0.115564
H18   H     H_    0.304332 0.071869 0.273232 0.127967
H19   H     H_    0.870057 0.851017 0.729041 0.235040
H20   H     H_    0.132560 0.272609 0.259128 0.227538
C41   C     C_3   0.824719 0.943728 0.732289 -0.542323
C42   C     C_3   0.172578 0.388365 0.265391 -0.504683
C43   C     C_3   0.752504 0.057663 0.818777 0.138299
C44   C     C_3   0.238901 0.589064 0.194085 0.117512
C45   C     C_3   0.811208 0.911649 0.813255 -0.179560
C46   C     C_3   0.189230 0.412697 0.185706 -0.210979
H21   H     H_    0.773350 0.197461 0.807862 0.065624
H22   H     H_    0.209414 0.706694 0.212142 0.094147
C47   C     C_3   0.684574 0.864787 0.690898 -0.396640
C48   C     C_3   0.315685 0.367659 0.308611 -0.440142
C49   C     C_3   0.751691 0.914565 0.658959 0.287029
C50   C     C_3   0.245128 0.357010 0.338606 0.301226
C51   C     C_3   0.677218 0.028516 0.749188 0.114865
C52   C     C_3   0.313800 0.564095 0.264337 0.121223
H23   H     H_    0.667068 0.159815 0.713806 0.099268
H24   H     H_    0.314808 0.676131 0.308154 0.075198
H25   H     H_    0.847118 0.087098 0.731799 0.170172
H26   H     H_    0.142188 0.514104 0.274904 0.172128
O11   O     O_R   0.087220 0.271820 0.085230 -0.601500
O12   O     O_R   0.912780 0.771820 0.914770 -0.604332
O13   O     O_R   0.939860 0.595540 0.069990 -0.583785
O14   O     O_R   0.060140 0.095540 0.930010 -0.598371
C53   C     C_R   0.919096 0.426531 0.085175 0.962102
C54   C     C_R   0.080870 0.926600 0.914722 0.980498
O15   O     O_R   0.088340 0.601930 0.094680 -0.571507
O16   O     O_R   0.911660 0.101930 0.905320 -0.584570
O17   O     O_R   0.062310 0.765410 0.939660 -0.582385
O18   O     O_R   0.937690 0.265410 0.060340 -0.575541
C55   C     C_R   0.116736 0.431889 0.116444 0.966482
C56   C     C_R   0.883648 0.931752 0.882832 0.973717
O19   O     O_3   0.991270 0.429630 0.949130 -0.288241
O20   O     O_3   0.008730 0.929630 0.050870 -0.268728
V3    V     V_3+5 0.001620 0.707150 0.009440 1.236245
V4    V     V_3+5 0.998380 0.207150 0.990560 1.220372
N1    N     N_R   0.647521 0.606100 0.770440 0.266006
O21   O     O_R   0.646698 0.640263 0.842612 -0.267688
O22   O     O_R   0.602410 0.480431 0.728557 -0.354170
N2    N     N_R   0.370649 0.193483 0.215109 0.282200
O23   O     O_R   0.365060 0.227347 0.140849 -0.285993
O24   O     O_R   0.432227 0.123824 0.261776 -0.337419
N3    N     N_R   0.761181 0.761845 0.606245 0.238722
O25   O     O_R   0.718408 0.754018 0.532015 -0.429711
O26   O     O_R   0.809567 0.629308 0.632736 -0.396581
N4    N     N_R   0.242683 0.172500 0.376147 0.249063
O27   O     O_R   0.277766 0.146927 0.452070 -0.419724
O28   O     O_R   0.207229 0.031331 0.334699 -0.441341
N5    N     N_R   0.745768 0.065690 0.899522 0.268369
O29   O     O_R   0.726706 0.920125 0.932389 -0.346563
O30   O     O_R   0.760949 0.220679 0.940188 -0.374366
N6    N     N_R   0.247587 0.643275 0.117024 0.267824
O31   O     O_R   0.278623 0.532702 0.078953 -0.336609
O32   O     O_R   0.223986 0.805806 0.085967 -0.403036
N7    N     N_R   0.613324 0.013780 0.778261 0.292976
O33   O     O_R   0.602623 0.145314 0.824281 -0.259639
O34   O     O_R   0.557323 0.908709 0.741609 -0.404701
N8    N     N_R   0.378564 0.604710 0.238991 0.289933
O35   O     O_R   0.381461 0.764379 0.204746 -0.295085
O36   O     O_R   0.440062 0.513938 0.268741 -0.387377
N9    N     N_3   0.736026 0.087815 0.610609 -0.198200
H27   H     H_    0.741928 0.206293 0.646759 0.098596
H28   H     H_    0.775165 0.102339 0.581229 0.163598
N10   N     N_3   0.246771 0.501850 0.398965 -0.186706
H29   H     H_    0.240347 0.636533 0.374798 0.136574
H30   H     H_    0.295618 0.497370 0.447213 0.115858
N11   N     N_R   0.110531 0.457807 0.698510 0.237110
O37   O     O_R   0.042535 0.509336 0.684666 -0.354498
O38   O     O_R   0.123492 0.286758 0.681738 -0.386987
N12   N     N_R   0.883332 0.943337 0.294574 0.238508
O39   O     O_R   0.894548 0.864954 0.233045 -0.435020
O40   O     O_R   0.912236 0.866978 0.364811 -0.333521
N13   N     N_3   0.380790 0.327291 0.787583 -0.161922
H31   H     H_    0.366956 0.395586 0.732314 0.119401
H32   H     H_    0.377342 0.427701 0.829303 0.153190
N14   N     N_3   0.621772 0.831695 0.215358 -0.193709
H33   H     H_    0.568907 0.783506 0.183999 0.186730
H34   H     H_    0.632158 0.943943 0.182488 0.143049

loop_
_geom_bond_atom_site_label_1
_geom_bond_atom_site_label_2
_geom_bond_distance
_ccdc_geom_bond_type
C18   C20   1.404908 A    
C49   N3    1.483477 S    
C51   N7    1.478463 S    
O1    C3    1.322733 A    
O2    C4    1.322393 A    
N8    O35   1.300542 A    
C2    O7    1.353040 A    
C27   C29   1.406558 A    
O5    C3    1.326793 A    
N11   O38   1.301191 A    
C50   N10   1.478728 S    
C11   C17   1.420281 A    
C23   C25   1.416858 A    
C12   C14   1.420162 A    
N14   H33   1.045504 S    
C42   C50   1.579356 S    
C52   H24   1.109303 S    
N13   H31   1.044111 S    
C54   O17   1.322657 A    
N4    O27   1.302203 A    
C6    C8    1.401189 A    
C37   H13   1.114234 S    
C32   H8    1.084584 S    
N2    O23   1.301107 A    
C38   H14   1.113409 S    
N2    O24   1.301171 A    
O13   V3    2.000216 S    
C43   C51   1.579086 S    
C37   C45   1.571909 S    
C15   C29   1.401656 A    
N1    O21   1.301064 A    
C19   C21   1.400446 A    
C25   C35   1.410914 A    
C26   C36   1.410465 A    
O12   C56   1.316065 A    
O15   V3    1.994150 S    
C28   C30   1.405971 A    
C50   N4    1.482959 S    
C2    C47   1.538971 S    
C46   C55   1.532605 S    
N1    O22   1.300782 A    
O11   V4    2.018074 S    
C45   C56   1.535714 S    
O11   C55   1.317016 A    
C20   H6    1.084356 S    
O20   V3    1.738076 S    
C47   C49   1.604430 S    
C32   C34   1.403825 A    
N14   H34   1.045819 S    
C33   C35   1.405864 A    
O17   V3    1.992916 S    
C34   C36   1.406262 A    
C18   N12   1.439484 S    
C38   H16   1.106351 S    
C51   H23   1.108372 S    
C52   N8    1.479921 S    
C5    C15   1.403838 A    
C6    C16   1.403571 A    
N12   O39   1.299789 A    
C29   H11   1.084242 S    
H20   C42   1.110820 S    
C30   H12   1.084291 S    
H19   C41   1.110099 S    
C53   O18   1.322112 A    
C5    C7    1.403261 A    
N10   H30   1.043435 S    
O5    V1    2.000420 S    
N9    H28   1.046702 S    
O16   C56   1.338324 A    
C39   H17   1.111857 S    
C21   C31   1.404549 A    
O4    V2    1.996109 S    
C49   N9    1.477632 S    
C35   H9    1.082924 S    
C43   C45   1.562051 S    
C37   C39   1.556717 S    
O6    C4    1.326558 A    
O15   C55   1.336337 A    
C43   N5    1.471708 S    
O1    V2    1.992849 S    
C40   N2    1.475863 S    
C19   H5    1.084184 S    
O14   C54   1.326518 A    
O2    V1    1.992620 S    
C31   C33   1.403114 A    
N5    O30   1.301575 A    
C13   C23   1.414751 A    
O4    C2    1.369742 A    
C8    C53   1.483445 S    
C27   N13   1.438573 S    
C39   C47   1.573823 S    
C48   C50   1.607623 S    
C9    C11   1.411938 A    
N7    O33   1.301606 A    
C10   C12   1.413264 A    
C8    C10   1.404932 A    
C5    H1    1.084563 S    
N9    H27   1.044634 S    
C44   C52   1.575647 S    
C9    H3    1.080835 S    
O3    V1    1.994177 S    
C6    H2    1.084676 S    
C10   H4    1.078651 S    
N3    O25   1.302361 A    
C14   C24   1.415269 A    
N13   H32   1.045651 S    
C22   C32   1.404711 A    
O14   V4    2.000506 S    
C7    C9    1.406375 A    
O18   V4    1.993137 S    
C38   C46   1.567427 S    
C44   H22   1.116189 S    
C44   C46   1.559715 S    
C4    C33   1.483817 S    
O3    C1    1.372558 A    
N8    O36   1.299644 A    
N5    O29   1.299781 A    
C36   H10   1.082912 S    
N10   H29   1.043647 S    
C31   H7    1.084121 S    
C38   C40   1.565732 S    
C13   C15   1.412505 A    
C17   N11   1.439521 S    
N11   O37   1.301361 A    
C14   C16   1.413053 A    
O16   V4    1.996080 S    
C28   N14   1.438289 S    
C44   N6    1.472948 S    
C42   H26   1.113520 S    
C24   C26   1.416970 A    
O7    V1    1.997816 S    
C40   C48   1.576114 S    
C1    O8    1.351352 A    
C17   C19   1.404926 A    
C48   C52   1.600887 S    
C26   C28   1.414307 A    
C1    C48   1.541254 S    
C39   N1    1.475023 S    
O13   C53   1.326616 A    
C43   H21   1.116386 S    
C16   C30   1.401638 A    
C21   C23   1.410843 A    
N4    O28   1.302765 A    
O19   V4    1.736558 S    
C22   C24   1.410429 A    
C11   C13   1.418582 A    
C12   C18   1.422499 A    
C41   H25   1.113048 S    
C37   H15   1.107800 S    
O12   V3    2.016810 S    
C25   C27   1.415087 A    
O6    V2    2.000700 S    
C42   C46   1.548002 S    
O9    V2    1.736905 S    
N7    O34   1.300525 A    
C40   H18   1.110635 S    
C41   C45   1.548079 S    
O10   V1    1.738424 S    
C3    C34   1.484330 S    
O8    V2    1.998837 S    
N12   O40   1.301440 A    
N6    O31   1.299953 A    
N6    O32   1.301310 A    
C41   C49   1.584564 S    
C47   C51   1.594601 S    
C7    C54   1.484668 S    
C20   C22   1.399451 A    
N3    O26   1.302726 A    
