data_mof_unit_27736.cif
_audit_creation_date              2012-10-26T19:33:09-0400
_audit_creation_method            fapswitch 2.2
_symmetry_space_group_name_H-M    P1
_symmetry_Int_Tables_number       1
_space_group_crystal_system       triclinic
_cell_length_a                    15.847306
_cell_length_b                    15.139619
_cell_length_c                    13.885883
_cell_angle_alpha                 89.672171
_cell_angle_beta                  89.620878
_cell_angle_gamma                 90.461523
_cell_volume                      3331.29468159

loop_
_atom_site_label
_atom_site_type_symbol
_atom_type_description
_atom_site_fract_x
_atom_site_fract_y
_atom_site_fract_z
_atom_type_partial_charge
C1    C     C_R   0.499290 0.330009 0.500258 0.537815
C2    C     C_R   0.478801 0.903936 0.585899 -0.125356
C3    C     C_R   0.494262 0.048949 0.501249 0.032307
C4    C     C_R   0.494233 0.951753 0.500601 0.034900
C5    C     C_R   0.564538 0.539650 0.105935 -0.132620
C6    C     C_R   0.455288 0.435806 0.893239 -0.132437
C7    C     C_R   0.563765 0.541534 0.207992 0.421641
C8    C     C_R   0.454299 0.437322 0.791292 0.416231
C9    C     C_R   0.434800 0.461300 0.210477 -0.005218
C10   C     C_R   0.542028 0.564666 0.789810 -0.006248
C11   C     C_R   0.431760 0.462492 0.109160 -0.166981
C12   C     C_R   0.499267 0.670167 0.499839 0.532332
C13   C     C_R   0.540673 0.567541 0.891080 -0.167379
C14   C     C_R   0.497572 0.501618 0.054501 -0.009590
C15   C     C_R   0.497552 0.501950 0.945243 -0.010382
C16   C     C_R   0.339806 0.500372 0.500243 0.540260
C17   C     C_R   0.660212 0.500109 0.499740 0.548470
C18   C     C_3   0.972230 0.423768 0.536513 0.024783
C19   C     C_3   0.027930 0.579546 0.463274 0.024915
C20   C     C_3   0.028189 0.434367 0.445234 0.025702
C21   C     C_3   0.971914 0.568948 0.554537 0.024868
C22   C     C_1   0.250182 0.501506 0.500694 -0.056123
C23   C     C_R   0.528483 0.186916 0.580099 -0.122564
C24   C     C_1   0.749874 0.500173 0.499212 -0.033970
C25   C     C_3   0.026932 0.491881 0.591426 0.026466
C26   C     C_3   0.973189 0.511458 0.408340 0.022838
C27   C     C_3   0.082733 0.502444 0.500165 0.013496
C28   C     C_3   0.917373 0.500839 0.499605 0.010645
C29   C     C_1   0.174673 0.502313 0.500590 -0.095715
C30   C     C_1   0.825410 0.500316 0.499239 -0.090335
C31   C     C_R   0.527793 0.095103 0.579888 -0.126496
C32   C     C_R   0.510310 0.906121 0.414756 -0.125226
C33   C     C_3   0.071540 0.362498 0.385505 -0.248243
C34   C     C_R   0.510679 0.814352 0.414205 -0.141059
C35   C     C_3   0.009102 0.298207 0.338679 -0.302622
C36   C     C_3   0.054800 0.234470 0.271939 -0.461404
C37   C     C_3   0.928524 0.640787 0.614263 -0.247676
C38   C     C_3   0.990904 0.705155 0.661072 -0.303515
C39   C     C_3   0.945126 0.768998 0.727618 -0.461334
C40   C     C_3   0.929706 0.339224 0.575387 -0.247078
C41   C     C_3   0.992912 0.270977 0.612329 -0.305130
C42   C     C_3   0.948299 0.184781 0.640046 -0.459683
C43   C     C_3   0.070673 0.664034 0.424577 -0.246434
C44   C     C_3   0.007665 0.732445 0.387569 -0.305771
C45   C     C_R   0.497296 0.233741 0.500858 0.017527
C46   C     C_3   0.052429 0.818732 0.360514 -0.459390
C47   C     C_3   0.931190 0.522573 0.309683 -0.242572
C48   C     C_3   0.994700 0.529186 0.226146 -0.306232
C49   C     C_3   0.950336 0.550862 0.131835 -0.459852
C50   C     C_3   0.069123 0.481077 0.689990 -0.248866
C51   C     C_3   0.005846 0.474123 0.773705 -0.302075
C52   C     C_3   0.050602 0.452724 0.867850 -0.465713
C53   C     C_3   0.648758 0.665076 0.227691 -0.019475
C54   C     C_3   0.701109 0.710623 0.304655 -0.365665
C55   C     C_3   0.326092 0.372153 0.760086 -0.009552
C56   C     C_R   0.497071 0.766760 0.499831 0.010365
C57   C     C_3   0.282021 0.309617 0.690863 -0.359916
C58   C     C_R   0.463893 0.188041 0.422211 -0.136037
C59   C     C_R   0.480919 0.812181 0.585679 -0.135963
C60   C     C_R   0.461622 0.096264 0.422789 -0.124854
Cu1   Cu    Cu3+1 0.500000 0.499990 0.596430 0.977028
Cu2   Cu    Cu3+1 0.500000 0.500010 0.403570 0.985592
H1    H     H_    0.384156 0.429525 0.250477 0.124199
H2    H     H_    0.469103 0.776891 0.652556 0.121676
H3    H     H_    0.433726 0.062446 0.362177 0.100411
H4    H     H_    0.464436 0.937335 0.652695 0.100494
H5    H     H_    0.618670 0.565805 0.067320 0.083839
H6    H     H_    0.424713 0.381629 0.931018 0.089379
H7    H     H_    0.087194 0.271391 0.212827 0.145204
H8    H     H_    0.101983 0.195740 0.312837 0.149481
H9    H     H_    0.008459 0.187991 0.239819 0.140271
H10   H     H_    0.975532 0.258968 0.394786 0.161536
H11   H     H_    0.961674 0.334689 0.296191 0.161911
H12   H     H_    0.576445 0.615039 0.749964 0.124743
H13   H     H_    0.111035 0.395259 0.329232 0.136941
H14   H     H_    0.115072 0.325142 0.432661 0.132192
H15   H     H_    0.898018 0.807690 0.686565 0.150404
H16   H     H_    0.912634 0.732170 0.786729 0.146202
H17   H     H_    0.991433 0.815506 0.759752 0.138987
H18   H     H_    0.038266 0.668744 0.703722 0.160502
H19   H     H_    0.024550 0.744309 0.604957 0.161172
H20   H     H_    0.884964 0.678091 0.567091 0.133067
H21   H     H_    0.889079 0.607995 0.670562 0.138611
H22   H     H_    0.900572 0.196667 0.697384 0.151554
H23   H     H_    0.377557 0.433160 0.074419 0.090730
H24   H     H_    0.916728 0.155704 0.576307 0.149199
H25   H     H_    0.995186 0.136879 0.667541 0.138585
H26   H     H_    0.040956 0.256663 0.556392 0.160248
H27   H     H_    0.025741 0.296495 0.676753 0.159767
H28   H     H_    0.885590 0.357000 0.634472 0.136411
H29   H     H_    0.890930 0.310180 0.517107 0.139060
H30   H     H_    0.083676 0.847569 0.424589 0.149392
H31   H     H_    0.100443 0.807045 0.303438 0.151462
H32   H     H_    0.005691 0.866745 0.332916 0.138273
H33   H     H_    0.975154 0.707175 0.322818 0.158888
H34   H     H_    0.573007 0.621543 0.926162 0.090925
H35   H     H_    0.959359 0.746552 0.443282 0.160051
H36   H     H_    0.109402 0.692930 0.482986 0.138904
H37   H     H_    0.114868 0.646239 0.365576 0.136494
H38   H     H_    0.903806 0.498221 0.114171 0.155121
H39   H     H_    0.917375 0.615145 0.137385 0.147924
H40   H     H_    0.997620 0.555555 0.072630 0.136881
H41   H     H_    0.042319 0.581413 0.240155 0.160788
H42   H     H_    0.027960 0.465625 0.217351 0.159422
H43   H     H_    0.887740 0.465902 0.297545 0.145527
H44   H     H_    0.891770 0.582760 0.311750 0.139099
H45   H     H_    0.554767 0.060373 0.640551 0.101022
H46   H     H_    0.083951 0.388671 0.862153 0.144276
H47   H     H_    0.096871 0.505663 0.885355 0.146217
H48   H     H_    0.003509 0.447704 0.927225 0.140603
H49   H     H_    0.972257 0.537490 0.782570 0.160620
H50   H     H_    0.958479 0.421605 0.759865 0.162160
H51   H     H_    0.108801 0.421152 0.687798 0.134559
H52   H     H_    0.112373 0.537938 0.701995 0.133493
H53   H     H_    0.590018 0.703750 0.216595 0.107941
H54   H     H_    0.686621 0.665118 0.160052 0.109397
H55   H     H_    0.713422 0.780420 0.283555 0.085674
H56   H     H_    0.523730 0.941239 0.348194 0.099845
H57   H     H_    0.666968 0.709124 0.374720 0.165213
H58   H     H_    0.762335 0.676416 0.313242 0.140825
H59   H     H_    0.299688 0.439564 0.749635 0.131625
H60   H     H_    0.312052 0.348862 0.834593 0.099594
H61   H     H_    0.213357 0.307153 0.706981 0.073058
H62   H     H_    0.291654 0.332494 0.615454 0.159922
H63   H     H_    0.307975 0.242033 0.698605 0.156080
H64   H     H_    0.554925 0.221253 0.641276 0.137472
H65   H     H_    0.522547 0.780844 0.346981 0.120305
H66   H     H_    0.438457 0.223268 0.360930 0.118003
N1    N     N_R   0.500000 0.500020 0.258690 -0.208553
N2    N     N_R   0.500000 0.499980 0.741310 -0.210376
O1    O     O_R   0.500010 0.371450 0.581430 -0.447054
O2    O     O_3   0.413777 0.370885 0.741071 -0.525334
O3    O     O_R   0.499990 0.628550 0.418570 -0.487134
O4    O     O_R   0.500010 0.371460 0.418560 -0.516222
O5    O     O_R   0.499990 0.628540 0.581440 -0.523769
O6    O     O_R   0.379080 0.499990 0.581420 -0.480276
O7    O     O_R   0.620920 0.500010 0.418580 -0.430428
O8    O     O_R   0.379080 0.500000 0.418550 -0.515796
O9    O     O_R   0.620920 0.500000 0.581450 -0.513078
O10   O     O_3   0.631011 0.577600 0.257969 -0.521234

loop_
_geom_bond_atom_site_label_1
_geom_bond_atom_site_label_2
_ccdc_geom_bond_type
C41   H27   S    
C55   H59   S    
C34   C56   A    
C51   H50   S    
C23   C45   A    
C22   C29   T    
C54   H58   S    
C27   C29   S    
C53   O10   S    
C41   C42   S    
C35   C36   S    
C43   H36   S    
C5    H5    S    
C53   C54   S    
C58   H66   S    
C39   H17   S    
C59   H2    S    
C20   C26   S    
C39   H15   S    
Cu2   O3    S    
C19   C21   S    
C43   H37   S    
C57   H63   S    
C7    O10   S    
C11   C14   A    
C46   H30   S    
C58   C60   A    
C48   H42   S    
C19   C26   S    
C18   C40   S    
C25   C50   S    
C6    C15   A    
C33   H13   S    
C44   C46   S    
C34   H65   S    
C47   H43   S    
C12   O5    A    
C19   C43   S    
C8    O2    S    
C51   H49   S    
C42   H24   S    
C19   C27   S    
C36   H9    S    
C3    C60   A    
C6    H6    S    
C55   H60   S    
C40   H29   S    
C54   H57   S    
Cu2   N1    S    
C18   C25   S    
C36   H8    S    
C45   C58   A    
C17   C24   S    
C13   H34   S    
C51   C52   S    
C39   H16   S    
C18   C28   S    
C49   H40   S    
C5    C7    A    
C2    C59   A    
Cu1   O9    S    
C6    C8    A    
C2    H4    S    
C48   H41   S    
C3    C4    S    
C50   H52   S    
C32   C34   A    
C2    C4    A    
C43   C44   S    
C10   N2    A    
C37   C38   S    
C57   H61   S    
C44   H35   S    
C33   H14   S    
C47   C48   S    
C46   H32   S    
C52   H48   S    
C47   H44   S    
C50   C51   S    
C42   H22   S    
C17   O9    A    
C12   C56   S    
Cu2   O8    S    
C3    C31   A    
C9    C11   A    
C5    C14   A    
C4    C32   A    
C26   C47   S    
C23   H64   S    
C20   C33   S    
Cu1   N2    S    
C48   C49   S    
C21   C28   S    
C60   H3    S    
C12   O3    A    
C13   C15   A    
C38   H19   S    
C8    N2    A    
C37   H20   S    
C1    O4    A    
C16   O6    A    
C36   H7    S    
Cu1   O5    S    
C41   H26   S    
C21   C25   S    
C35   H11   S    
C16   C22   S    
C9    H1    S    
C31   H45   S    
C16   O8    A    
C32   H56   S    
C1    O1    A    
C10   C13   A    
C35   H10   S    
C17   O7    A    
C53   H54   S    
C20   C27   S    
C9    N1    A    
C25   C27   S    
C26   C28   S    
C56   C59   A    
C50   H51   S    
Cu2   O4    S    
C55   C57   S    
C44   H33   S    
C49   H38   S    
C49   H39   S    
C10   H12   S    
C1    C45   S    
C38   C39   S    
C46   H31   S    
C38   H18   S    
C52   H47   S    
C11   H23   S    
C28   C30   S    
C33   C35   S    
C18   C20   S    
Cu2   O7    S    
Cu1   Cu2   S    
C24   C30   T    
C7    N1    A    
Cu1   O1    S    
C21   C37   S    
C52   H46   S    
C55   O2    S    
C54   H55   S    
C14   C15   S    
C37   H21   S    
C40   C41   S    
C42   H25   S    
C40   H28   S    
C53   H53   S    
Cu1   O6    S    
C23   C31   A    
C57   H62   S    
