data_mof_unit_6073.cif
_audit_creation_date              2012-12-10T16:49:25-0500
_audit_creation_method            fapswitch 2.2
_symmetry_space_group_name_H-M    P1
_symmetry_Int_Tables_number       1
_space_group_crystal_system       triclinic
_cell_length_a                    7.827078
_cell_length_b                    8.58365
_cell_length_c                    12.802767
_cell_angle_alpha                 89.44659
_cell_angle_beta                  87.503077
_cell_angle_gamma                 92.92675
_cell_volume                      858.154171423

loop_
_atom_site_label
_atom_site_type_symbol
_atom_type_description
_atom_site_fract_x
_atom_site_fract_y
_atom_site_fract_z
_atom_type_partial_charge
C1    C     C_R   0.455551 0.205695 0.496638 0.914089
C2    C     C_R   0.657843 0.370074 0.143110 0.347462
C3    C     C_R   0.534356 0.407974 0.870973 0.384926
C4    C     C_R   0.468971 0.588069 0.128311 0.460611
C5    C     C_R   0.548363 0.437921 0.976556 -0.101063
C6    C     C_R   0.453165 0.556536 0.023070 -0.025614
C7    C     C_2   0.431812 0.042476 0.494146 -0.387474
C8    C     C_2   0.568580 0.957279 0.499348 -0.399148
C9    C     C_3   0.504825 0.835052 0.195138 0.081875
C10   C     C_3   0.582184 0.917269 0.096247 -0.889231
C11   C     C_3   0.499961 0.154925 0.823466 0.068572
C12   C     C_R   0.544728 0.794211 0.501289 0.948997
C13   C     C_3   0.595337 0.009875 0.796283 -0.820555
C14   C     C_3   0.082580 0.687816 0.325877 0.250598
C15   C     C_3   0.990085 0.796847 0.255847 -0.874979
C16   C     C_3   0.930422 0.235554 0.618467 0.220831
C17   C     C_3   0.026959 0.135120 0.692099 -0.863518
C18   C     C_R   0.464583 0.501585 0.699450 0.940837
C19   C     C_R   0.534768 0.495126 0.300642 0.864547
C20   C     C_R   0.558888 0.486307 0.189426 -0.281777
C21   C     C_R   0.439488 0.506178 0.810770 -0.202570
C22   C     C_R   0.343322 0.641943 0.963852 -0.272077
C23   C     C_R   0.656095 0.351082 0.036055 -0.167472
C24   C     C_R   0.336175 0.618017 0.856738 0.353448
H1    H     H_    0.266560 0.730005 0.999872 0.191459
H2    H     H_    0.404767 0.172831 0.763097 0.143424
H3    H     H_    0.431037 0.133370 0.900761 0.138969
H4    H     H_    0.700165 0.995482 0.850764 0.258022
H5    H     H_    0.506050 0.905719 0.802722 0.241401
H6    H     H_    0.649087 0.018583 0.714862 0.243406
H7    H     H_    0.691357 0.244632 0.266671 0.337693
H8    H     H_    0.174536 0.781093 0.840000 0.325936
H9    H     H_    0.110890 0.583182 0.278989 0.192343
H10   H     H_    0.200315 0.751263 0.350596 0.181125
H11   H     H_    0.080062 0.847166 0.193529 0.246970
H12   H     H_    0.732387 0.262062 0.000732 0.211920
H13   H     H_    0.884819 0.730427 0.218081 0.248007
H14   H     H_    0.937221 0.893499 0.302187 0.256983
H15   H     H_    0.921695 0.173551 0.542862 0.116459
H16   H     H_    0.801780 0.252321 0.654405 0.219877
H17   H     H_    0.960130 0.018486 0.702360 0.225255
H18   H     H_    0.158094 0.119050 0.659014 0.250443
H19   H     H_    0.035225 0.191583 0.769553 0.264191
H20   H     H_    0.301717 0.992799 0.489475 0.189748
H21   H     H_    0.698427 0.006566 0.502960 0.169201
H22   H     H_    0.606988 0.795544 0.244999 0.136278
H23   H     H_    0.435751 0.922364 0.241834 0.168460
H24   H     H_    0.657076 0.836442 0.047579 0.248453
H25   H     H_    0.479123 0.963664 0.049955 0.254322
H26   H     H_    0.670701 0.014733 0.118164 0.268337
N1    N     N_2   0.054030 0.541640 0.471970 0.159907
N2    N     N_2   0.945970 0.458360 0.528030 0.169887
O1    O     O_R   0.609680 0.261530 0.506880 -0.671322
O2    O     O_3   0.617660 0.285185 0.825781 -0.614995
O3    O     O_3   0.753229 0.270481 0.199203 -0.773176
O4    O     O_3   0.236691 0.707036 0.795215 -0.739089
O5    O     O_3   0.975528 0.644752 0.412668 -0.539373
O6    O     O_3   0.020645 0.379487 0.603553 -0.505180
O7    O     O_R   0.390320 0.738470 0.493120 -0.636074
O8    O     O_R   0.323330 0.288220 0.488910 -0.607914
O9    O     O_R   0.676670 0.711780 0.511090 -0.574273
O10   O     O_R   0.619510 0.488830 0.661140 -0.608342
O11   O     O_R   0.380490 0.511170 0.338860 -0.649476
O12   O     O_R   0.333160 0.515520 0.643180 -0.522442
O13   O     O_R   0.666840 0.484480 0.356820 -0.584477
O14   O     O_3   0.385279 0.712186 0.171963 -0.659278
Zn1   Zn    Zn3+2 0.691200 0.482180 0.511990 1.036406
Zn2   Zn    Zn3+2 0.308800 0.517820 0.488010 1.039216

loop_
_geom_bond_atom_site_label_1
_geom_bond_atom_site_label_2
_ccdc_geom_bond_type
C14   H10   S    
C17   H19   S    
C15   H14   S    
C19   O13   A    
N1    O5    S    
C4    C20   A    
O7    Zn2   S    
C24   O4    S    
C18   C21   S    
C9    C10   S    
O9    Zn1   S    
C19   C20   S    
C14   C15   S    
C11   H3    S    
C8    C12   S    
C14   H9    S    
C9    H22   S    
C13   H4    S    
C1    C7    S    
C7    H20   S    
C9    O14   S    
C4    O14   S    
C12   O9    A    
C11   C13   S    
C18   O12   A    
C10   H25   S    
C11   O2    S    
N2    O6    S    
O10   Zn1   S    
C16   H16   S    
O12   Zn2   S    
C13   H5    S    
N1    Zn2   S    
C9    H23   S    
C22   C24   A    
C2    O3    S    
C10   H24   S    
C5    C6    A    
O1    Zn1   S    
C3    O2    S    
C17   H17   S    
C3    C21   A    
C21   C24   A    
C16   H15   S    
C2    C20   A    
N1    N2    D    
C10   H26   S    
N2    Zn1   S    
C3    C5    A    
C13   H6    S    
C7    C8    D    
O8    Zn2   S    
C4    C6    A    
C23   H12   S    
C1    O8    A    
C15   H11   S    
C2    C23   A    
C14   O5    S    
C1    O1    A    
C17   H18   S    
C15   H13   S    
C16   O6    S    
C6    C22   A    
C11   H2    S    
H7    O3    S    
O11   Zn2   S    
C12   O7    A    
H8    O4    S    
C18   O10   A    
C8    H21   S    
C19   O11   A    
C16   C17   S    
O13   Zn1   S    
C22   H1    S    
C5    C23   A    
