data_mof_unit_64718.cif
_audit_creation_date              2013-03-05T16:02:28-0500
_audit_creation_method            fapswitch 2.2
_symmetry_space_group_name_H-M    P1
_symmetry_Int_Tables_number       1
_space_group_crystal_system       triclinic
_cell_length_a                    10.475798
_cell_length_b                    11.727068
_cell_length_c                    17.283243
_cell_angle_alpha                 89.990917
_cell_angle_beta                  85.112878
_cell_angle_gamma                 89.94918
_cell_volume                      2115.53324694

loop_
_atom_site_label
_atom_site_type_symbol
_atom_site_description
_atom_site_fract_x
_atom_site_fract_y
_atom_site_fract_z
_atom_type_partial_charge
O1    O     O_R   0.394190 0.662800 0.500010 -0.564613
O2    O     O_R   0.605810 0.337200 0.499990 -0.564612
O3    O     O_R   0.605810 0.662800 0.499990 -0.573331
O4    O     O_R   0.394190 0.337200 0.500010 -0.573328
C1    C     C_R   0.499966 0.716653 0.500005 0.813701
C2    C     C_R   0.500033 0.283347 0.499994 0.813709
O5    O     O_R   0.381920 0.500000 0.613600 -0.575530
O6    O     O_R   0.618080 0.500000 0.386400 -0.575523
O7    O     O_R   0.593540 0.500000 0.613600 -0.574524
O8    O     O_R   0.406460 0.500000 0.386400 -0.574516
C3    C     C_R   0.482460 0.499771 0.650246 0.878394
C4    C     C_R   0.517540 0.500232 0.349755 0.878402
Cu1   Cu    Cu3+1 0.374700 0.500000 0.500000 0.988192
Cu2   Cu    Cu3+1 0.625300 0.500000 0.500000 0.988190
C5    C     C_R   0.469661 0.499850 0.734914 -0.197898
C6    C     C_R   0.530341 0.500176 0.265088 -0.197870
C7    C     C_R   0.519124 0.592140 0.775575 -0.005132
C8    C     C_R   0.480978 0.407850 0.224416 -0.005138
C9    C     C_R   0.508342 0.590311 0.856794 0.583093
C10   C     C_R   0.491772 0.409696 0.143197 0.583130
C11   C     C_R   0.450353 0.497364 0.897005 -0.206634
C12   C     C_R   0.549683 0.502689 0.102999 -0.206723
C13   C     C_R   0.396705 0.408552 0.856707 0.614020
C14   C     C_R   0.603226 0.591543 0.143309 0.614048
C15   C     C_R   0.406411 0.408365 0.775427 -0.015232
C16   C     C_R   0.593500 0.591718 0.224589 -0.015228
C17   C     C_2   0.447358 0.490156 0.981706 0.005828
C18   C     C_2   0.552689 0.509901 0.018300 0.005882
H1    H     H_    0.640850 0.537499 0.986041 0.215053
H2    H     H_    0.359202 0.462553 0.013970 0.215031
C19   C     C_1   0.499924 0.838030 0.500004 -0.169824
C20   C     C_1   0.500076 0.161970 0.499995 -0.169820
C21   C     C_1   0.499963 0.940260 0.500001 0.020305
C22   C     C_1   0.500037 0.059740 0.499997 0.020305
N1    N     N_1   0.813590 0.500000 0.499990 -0.141682
N2    N     N_1   0.186410 0.500000 0.500010 -0.141681
C23   C     C_1   0.927917 0.500002 0.499995 0.102664
C24   C     C_1   0.072083 0.499998 0.500005 0.102663
C25   C     C_3   0.580699 0.693175 0.732726 -0.689687
H3    H     H_    0.607119 0.761836 0.772516 0.283147
H4    H     H_    0.669516 0.665767 0.698113 0.230029
H5    H     H_    0.513213 0.730185 0.693306 0.198917
C26   C     C_3   0.419493 0.306768 0.267254 -0.689757
H6    H     H_    0.393126 0.238098 0.227455 0.283166
H7    H     H_    0.487017 0.269795 0.306665 0.198929
H8    H     H_    0.330660 0.334111 0.301876 0.230012
C27   C     C_3   0.646436 0.690967 0.267631 -0.691444
H9    H     H_    0.569484 0.729129 0.307688 0.199146
H10   H     H_    0.725426 0.661304 0.301551 0.231703
H11   H     H_    0.685251 0.759353 0.227980 0.281122
C28   C     C_3   0.353350 0.309159 0.732401 -0.691368
H12   H     H_    0.430243 0.270933 0.692332 0.199143
H13   H     H_    0.314487 0.240804 0.772061 0.281111
H14   H     H_    0.274368 0.338886 0.698498 0.231715
F1    F     F_    0.339062 0.320322 0.897037 -0.616035
F2    F     F_    0.660781 0.679825 0.102990 -0.615993
F3    F     F_    0.447941 0.320259 0.102978 -0.623801
F4    F     F_    0.552257 0.679725 0.896999 -0.623823

loop_
_geom_bond_atom_site_label_1
_geom_bond_atom_site_label_2
_geom_bond_distance
_ccdc_geom_bond_type
C9    C11   1.403254 A    
C2    C20   1.423391 S    
O7    Cu2   1.963220 S    
C15   C28   1.512379 S    
C13   F1    1.360240 S    
C23   C24   1.510275 S    
C14   F2    1.360235 S    
O7    C3    1.276587 A    
C27   H9    1.110769 S    
O5    Cu1   1.971259 S    
O6    C4    1.274397 A    
C28   H14   1.109728 S    
C17   C18   1.338128 D    
N2    C24   1.197671 T    
C21   C22   1.401143 S    
C11   C17   1.463995 S    
C27   H10   1.109726 S    
C25   H4    1.109758 S    
C12   C18   1.463971 S    
C8    C26   1.512626 S    
C17   H2    1.086888 S    
O5    C3    1.274407 A    
C26   H7    1.110753 S    
O2    C2    1.275909 A    
O3    Cu2   1.919875 S    
O8    C4    1.276582 A    
C16   C27   1.512377 S    
C26   H6    1.109452 S    
O1    C1    1.275909 A    
O4    C2    1.275531 A    
C18   H1    1.086879 S    
N1    C23   1.197670 T    
C10   C12   1.403243 A    
C27   H11   1.109526 S    
C8    C10   1.398800 A    
C13   C15   1.399791 A    
C9    F4    1.359972 S    
C6    C16   1.415014 A    
O2    Cu2   1.920235 S    
C26   H8    1.109757 S    
C12   C14   1.397712 A    
C5    C15   1.415023 A    
O1    Cu1   1.920235 S    
C19   C21   1.198863 T    
C28   H13   1.109516 S    
C28   H12   1.110770 S    
C25   H3    1.109452 S    
Cu1   N2    1.972472 S    
C6    C8    1.413146 A    
C7    C25   1.512635 S    
O4    Cu1   1.919875 S    
C5    C7    1.413157 A    
C25   H5    1.110756 S    
C7    C9    1.398799 A    
O6    Cu2   1.971261 S    
O3    C1    1.275530 A    
C10   F3    1.359973 S    
Cu1   Cu2   2.625235 S    
C3    C5    1.458053 S    
C11   C13   1.397716 A    
Cu2   N1    1.972474 S    
C4    C6    1.458026 S    
C14   C16   1.399788 A    
C1    C19   1.423391 S    
O8    Cu1   1.963222 S    
C20   C22   1.198863 T    
