data_mof_unit_5893.cif
_audit_creation_date              2012-12-10T16:57:13-0500
_audit_creation_method            fapswitch 2.2
_symmetry_space_group_name_H-M    P1
_symmetry_Int_Tables_number       1
_space_group_crystal_system       triclinic
_cell_length_a                    15.894959
_cell_length_b                    10.928544
_cell_length_c                    9.72298
_cell_angle_alpha                 89.749899
_cell_angle_beta                  89.377325
_cell_angle_gamma                 90.37345
_cell_volume                      1688.81455602

loop_
_atom_site_label
_atom_site_type_symbol
_atom_type_description
_atom_site_fract_x
_atom_site_fract_y
_atom_site_fract_z
_atom_type_partial_charge
C1    C     C_R   0.500964 0.265428 0.500231 0.842580
C2    C     C_3   0.949474 0.401269 0.600123 0.040311
C3    C     C_3   0.916884 0.498789 0.494789 0.020738
C4    C     C_3   0.949991 0.624647 0.547425 -0.448543
C5    C     C_3   0.048073 0.630094 0.547396 0.066525
C6    C     C_1   0.824575 0.498942 0.496354 -0.033532
C7    C     C_1   0.175611 0.501643 0.500585 -0.061038
C8    C     C_1   0.250982 0.500743 0.501723 -0.174467
C9    C     C_2   0.502594 0.933454 0.386838 -0.164393
C10   C     C_2   0.494646 0.866472 0.501964 -0.318441
C11   C     C_2   0.498705 0.067415 0.387217 -0.160716
C12   C     C_R   0.340403 0.500000 0.500690 0.825534
C13   C     C_2   0.505194 0.133400 0.502595 -0.317482
C14   C     C_2   0.444919 0.439548 0.923953 0.349172
C15   C     C_2   0.455483 0.424806 0.077811 0.014458
C16   C     C_R   0.499025 0.734537 0.499893 0.827296
C17   C     C_R   0.659631 0.499889 0.499284 0.807137
C18   C     C_3   0.047342 0.406224 0.602171 -0.418659
C19   C     C_3   0.052894 0.480824 0.341345 0.615283
C20   C     C_3   0.953428 0.467733 0.347187 0.319150
C21   C     C_1   0.749128 0.499305 0.497738 -0.184586
C22   C     C_3   0.083397 0.502787 0.496792 0.019634
Cu1   Cu    Cu3+1 0.500020 0.500020 0.638630 0.960461
Cu2   Cu    Cu3+1 0.499980 0.499980 0.361370 0.977241
H1    H     H_    0.066755 0.431673 0.707897 0.177613
H2    H     H_    0.925376 0.427241 0.704210 0.172943
H3    H     H_    0.924644 0.703184 0.489445 0.146897
H4    H     H_    0.510968 0.889279 0.287778 0.176815
H5    H     H_    0.482956 0.906984 0.601599 0.151172
H6    H     H_    0.491596 0.112497 0.288247 0.162110
H7    H     H_    0.515728 0.092113 0.602184 0.144785
H8    H     H_    0.555798 0.521311 0.889512 0.206922
H9    H     H_    0.423333 0.348642 0.127945 0.083813
H10   H     H_    0.075405 0.314875 0.590938 0.180860
H11   H     H_    0.940253 0.369016 0.335263 0.124383
H12   H     H_    0.068660 0.703944 0.475581 0.139231
H13   H     H_    0.925148 0.638067 0.653823 0.202350
N1    N     N_2   0.499090 0.498660 0.846910 -0.269772
N2    N     N_2   0.499070 0.498630 0.153040 0.008797
O1    O     O_R   0.500010 0.321960 0.617040 -0.575423
O2    O     O_R   0.499990 0.321920 0.382900 -0.595465
O3    O     O_R   0.379450 0.500030 0.617120 -0.539248
O4    O     O_R   0.379420 0.499980 0.382980 -0.568531
O5    O     O_R   0.500010 0.678080 0.617100 -0.575203
O6    O     O_R   0.499990 0.678040 0.382960 -0.554351
O7    O     O_R   0.620580 0.500020 0.617020 -0.585742
O8    O     O_R   0.620550 0.499970 0.382880 -0.589590
N3    N     N_2   0.919762 0.277255 0.570842 -0.445015
H14   H     H_    0.862738 0.271280 0.521772 0.262873
C23   C     C_3   0.924679 0.190579 0.683586 -0.725484
H15   H     H_    0.909256 0.097423 0.645860 0.226070
H16   H     H_    0.878904 0.215165 0.765949 0.230357
H17   H     H_    0.988974 0.188607 0.726885 0.236632
N4    N     N_2   0.375864 0.379202 0.861559 -0.378651
H18   H     H_    0.375628 0.286221 0.880112 0.217814
C24   C     C_3   0.295060 0.433253 0.892906 -0.669161
H19   H     H_    0.245505 0.387142 0.831932 0.216986
H20   H     H_    0.295482 0.532126 0.865572 0.242590
H21   H     H_    0.279500 0.422187 0.004026 0.211947
O9    O     O_3   0.516091 0.608768 0.095474 -0.498010
C25   C     C_3   0.602182 0.634325 0.115548 -0.158609
H22   H     H_    0.642201 0.551203 0.107485 0.137448
H23   H     H_    0.612584 0.680809 0.214772 0.181359
H24   H     H_    0.623730 0.698561 0.033630 0.115986
N5    N     N_2   0.076724 0.588750 0.257992 -0.451876
H25   H     H_    0.130150 0.634233 0.289459 0.225202
C26   C     C_3   0.079436 0.576656 0.108972 -0.546429
H26   H     H_    0.074599 0.668645 0.061009 0.189353
H27   H     H_    0.027454 0.518595 0.070376 0.273352
H28   H     H_    0.140062 0.535364 0.076104 0.222886
O10   O     O_3   0.091426 0.379394 0.271383 -0.572675
C27   C     C_3   0.095074 0.265658 0.339320 -0.365896
H29   H     H_    0.035299 0.237952 0.389425 0.180150
H30   H     H_    0.149421 0.263319 0.409772 0.179212
H31   H     H_    0.107883 0.194850 0.260619 0.189992
O11   O     O_3   0.910069 0.516423 0.231190 -0.577239
C28   C     C_3   0.892341 0.642883 0.235372 -0.293334
H32   H     H_    0.946427 0.700054 0.266501 0.173867
H33   H     H_    0.836161 0.661498 0.300113 0.161593
H34   H     H_    0.876323 0.672718 0.129734 0.173504
N6    N     N_2   0.077930 0.662955 0.684439 -0.410079
H35   H     H_    0.137132 0.632275 0.708756 0.263993
C29   C     C_3   0.067143 0.789815 0.723257 -0.731497
H36   H     H_    0.084267 0.801513 0.832839 0.225343
H37   H     H_    0.000797 0.818633 0.711092 0.234274
H38   H     H_    0.108689 0.849604 0.659043 0.222140

loop_
_geom_bond_atom_site_label_1
_geom_bond_atom_site_label_2
_ccdc_geom_bond_type
C2    C18   S    
C19   O10   S    
C19   C20   S    
C3    C6    S    
N6    H35   S    
C7    C8    T    
C28   H32   S    
Cu1   O3    S    
Cu2   O6    S    
C12   O4    A    
Cu1   O1    S    
C5    H12   S    
Cu2   N2    S    
C5    N6    S    
C24   H19   S    
C20   O11   S    
C25   H23   S    
C12   O3    A    
C1    O1    A    
C20   H11   S    
C5    C22   S    
C11   H6    S    
N5    C26   S    
C23   H16   S    
Cu1   Cu2   S    
H8    N1    S    
C9    C10   D    
C16   O5    A    
N3    C23   S    
Cu1   O7    S    
Cu2   O2    S    
C18   H1    S    
C27   H31   S    
N6    C29   S    
C28   H33   S    
N4    C24   S    
C23   H17   S    
C26   H26   S    
C19   C22   S    
C17   O7    A    
C27   H30   S    
C27   H29   S    
C2    N3    S    
C6    C21   T    
C17   C21   S    
Cu1   O5    S    
O9    C25   S    
C26   H27   S    
C25   H24   S    
C14   N1    D    
C9    C11   S    
C29   H36   S    
C8    C12   S    
C23   H15   S    
C3    C20   S    
C2    H2    S    
O11   C28   S    
C18   H10   S    
C15   N2    D    
C1    O2    A    
N3    H14   S    
C29   H37   S    
C1    C13   S    
C3    C4    S    
C7    C22   S    
C4    H3    S    
C28   H34   S    
N4    H18   S    
C14   N4    S    
C18   C22   S    
Cu2   O8    S    
C13   H7    S    
C17   O8    A    
C4    C5    S    
C16   O6    A    
Cu1   N1    S    
C24   H21   S    
C26   H28   S    
C2    C3    S    
O10   C27   S    
C10   C16   S    
C11   C13   D    
C10   H5    S    
N2    O9    S    
C24   H20   S    
C19   N5    S    
C25   H22   S    
C29   H38   S    
C4    H13   S    
N5    H25   S    
Cu2   O4    S    
C14   C15   S    
C15   H9    S    
C9    H4    S    
