data_mof_unit_19020.cif
_audit_creation_date              2012-12-10T20:39:55-0500
_audit_creation_method            fapswitch 2.2
_symmetry_space_group_name_H-M    P1
_symmetry_Int_Tables_number       1
_space_group_crystal_system       triclinic
_cell_length_a                    23.379087
_cell_length_b                    10.703359
_cell_length_c                    9.881172
_cell_angle_alpha                 89.921233
_cell_angle_beta                  88.859397
_cell_angle_gamma                 90.771636
_cell_volume                      2471.89525865

loop_
_atom_site_label
_atom_site_type_symbol
_atom_type_description
_atom_site_fract_x
_atom_site_fract_y
_atom_site_fract_z
_atom_type_partial_charge
C1    C     C_R   0.502229 0.260177 0.500050 0.921814
C2    C     C_R   0.967310 0.410287 0.737776 0.224445
C3    C     C_R   0.026762 0.415490 0.739048 -0.179074
C4    C     C_R   0.058355 0.462130 0.628340 -0.048253
C5    C     C_R   0.030092 0.505685 0.513347 -0.004987
C6    C     C_R   0.062240 0.551168 0.401409 -0.042150
C7    C     C_R   0.034540 0.596304 0.287870 -0.179762
C8    C     C_R   0.975173 0.596752 0.282617 0.219231
C9    C     C_R   0.118132 0.464427 0.628926 0.646119
C10   C     C_R   0.121911 0.550053 0.405554 0.600697
C11   C     C_R   0.241325 0.601920 0.570094 0.014562
C12   C     C_R   0.389729 0.496465 0.501233 0.912755
C13   C     C_R   0.300712 0.596705 0.560929 -0.205490
C14   C     C_R   0.327915 0.493684 0.504234 -0.100381
C15   C     C_R   0.296362 0.389149 0.458374 -0.133744
C16   C     C_R   0.236172 0.395455 0.460391 -0.057717
C17   C     C_R   0.209123 0.501299 0.517287 0.149845
C18   C     C_R   0.761892 0.411252 0.425388 -0.083840
C19   C     C_R   0.702584 0.412391 0.422446 0.130132
C20   C     C_R   0.672511 0.504198 0.496151 -0.163318
C21   C     C_R   0.702530 0.595461 0.572080 -0.104423
C22   C     C_R   0.762023 0.590570 0.574942 -0.109605
C23   C     C_R   0.501078 0.740129 0.499830 0.921405
C24   C     C_R   0.791310 0.499570 0.501692 0.232541
C25   C     C_R   0.514488 0.064286 0.621925 0.074789
C26   C     C_R   0.511845 0.129299 0.499990 -0.105580
C27   C     C_R   0.519485 0.065513 0.377119 -0.121335
C28   C     C_R   0.518608 0.936292 0.377042 -0.134894
C29   C     C_R   0.509291 0.872006 0.499457 -0.069429
C30   C     C_R   0.511457 0.936866 0.621525 0.066078
C31   C     C_3   0.474075 0.931907 0.747595 -0.230357
C32   C     C_3   0.479901 0.075177 0.750478 -0.081025
C33   C     C_R   0.457842 0.438342 0.073687 0.231295
C34   C     C_R   0.610440 0.500417 0.498735 0.951560
C35   C     C_R   0.543251 0.555713 0.067655 0.177221
C36   C     C_R   0.543864 0.551581 0.924659 -0.072665
C37   C     C_R   0.457814 0.438117 0.930976 0.153667
C38   C     C_3   0.395115 0.463769 0.928547 -0.303455
C39   C     C_3   0.395528 0.466706 0.082330 -0.479784
C40   C     C_R   0.881918 0.544300 0.393903 0.551113
C41   C     C_R   0.878058 0.454435 0.615930 0.553298
C42   C     C_R   0.937943 0.455132 0.623043 -0.078418
C43   C     C_R   0.969856 0.503261 0.510033 -0.073680
C44   C     C_R   0.941914 0.548717 0.393583 -0.077288
H1    H     H_    0.786226 0.659282 0.631416 0.189753
H2    H     H_    0.522169 0.114318 0.281022 0.204620
H3    H     H_    0.521307 0.887936 0.281121 0.184838
H4    H     H_    0.439290 0.125602 0.734957 0.205242
H5    H     H_    0.048365 0.381151 0.827380 0.210562
H6    H     H_    0.578494 0.595823 0.867597 0.208825
H7    H     H_    0.385163 0.555690 0.882673 0.224066
H8    H     H_    0.387296 0.561254 0.124392 0.224861
H9    H     H_    0.370241 0.390515 0.132306 0.260440
H10   H     H_    0.059152 0.632382 0.202011 0.213277
H11   H     H_    0.326493 0.673810 0.597883 0.184675
H12   H     H_    0.785361 0.340859 0.369598 0.173787
N1    N     N_R   0.852152 0.498438 0.503462 -0.360237
N2    N     N_R   0.148255 0.506750 0.517984 -0.337184
N3    N     N_R   0.499610 0.499140 0.142800 -0.142840
N4    N     N_R   0.499610 0.499180 0.857150 -0.138803
O1    O     O_R   0.500010 0.316790 0.614690 -0.618429
O2    O     O_2   0.845186 0.410713 0.719389 -0.483212
O3    O     O_2   0.146156 0.423413 0.738214 -0.512724
O4    O     O_2   0.153583 0.591599 0.298531 -0.527013
O5    O     O_R   0.500000 0.316760 0.385350 -0.586763
O6    O     O_R   0.416160 0.499980 0.614700 -0.622284
O7    O     O_R   0.416150 0.499940 0.385360 -0.594776
O8    O     O_R   0.500000 0.683240 0.614650 -0.602336
O9    O     O_R   0.499990 0.683210 0.385310 -0.625729
O10   O     O_R   0.583850 0.500060 0.614640 -0.611812
O11   O     O_R   0.583840 0.500020 0.385300 -0.580289
O12   O     O_2   0.852724 0.585528 0.286970 -0.481631
Zn1   Zn    Zn3+2 0.500000 0.500020 0.653130 1.015505
Zn2   Zn    Zn3+2 0.500000 0.499980 0.346870 1.027858
I1    I     I_    0.929663 0.329128 0.916646 -0.139092
I2    I     I_    0.661849 0.267282 0.311479 -0.240360
C45   C     C_2   0.673905 0.699177 0.645628 0.954606
O13   O     O_2   0.630196 0.744577 0.602330 -0.610501
O14   O     O_R   0.698254 0.747969 0.762757 -0.757613
H13   H     H_    0.675187 0.818684 0.803387 0.385950
C46   C     C_2   0.413563 0.886715 0.719086 0.910877
O15   O     O_2   0.391385 0.802190 0.785987 -0.578295
O16   O     O_R   0.383233 0.941628 0.614417 -0.814773
H14   H     H_    0.343448 0.904384 0.604994 0.370981
C47   C     C_2   0.501380 0.866561 0.865624 1.013997
O17   O     O_2   0.550241 0.827861 0.855368 -0.616277
O18   O     O_R   0.470972 0.854814 0.988375 -0.754863
H15   H     H_    0.493188 0.809191 0.059665 0.331637
I3    I     I_    0.532300 0.156246 0.906115 -0.227845
I4    I     I_    0.607855 0.670486 0.151782 -0.198793
C48   C     C_2   0.360045 0.356574 0.873775 1.014288
O19   O     O_2   0.370890 0.248660 0.903985 -0.595180
O20   O     O_R   0.313842 0.381804 0.791159 -0.769173
H16   H     H_    0.293176 0.303114 0.760853 0.369231
I5    I     I_    0.943830 0.675770 0.100211 -0.146951
C49   C     C_2   0.214435 0.713970 0.633531 0.968730
O21   O     O_2   0.243314 0.785086 0.701891 -0.582242
O22   O     O_R   0.156634 0.739840 0.615384 -0.799129
H17   H     H_    0.144072 0.818555 0.663884 0.370452
C50   C     C_2   0.325163 0.269391 0.422779 0.939577
O23   O     O_2   0.370112 0.269325 0.357647 -0.618391
O24   O     O_R   0.300596 0.155783 0.465391 -0.757177
H18   H     H_    0.323185 0.081133 0.432642 0.377351
C51   C     C_2   0.201363 0.294774 0.396686 0.991309
O25   O     O_2   0.158212 0.253637 0.453794 -0.602477
O26   O     O_R   0.218292 0.246982 0.270689 -0.753826
H19   H     H_    0.191439 0.178897 0.237709 0.369814

loop_
_geom_bond_atom_site_label_1
_geom_bond_atom_site_label_2
_ccdc_geom_bond_type
C11   C49   S    
O18   H15   S    
C28   H3    S    
O20   H16   S    
C31   C47   S    
C41   C42   A    
C23   O9    A    
C19   C20   A    
C15   C50   S    
C51   O26   S    
C46   O15   D    
C3    H5    S    
C7    C8    A    
C39   H9    S    
C45   O13   D    
C26   C27   A    
C33   C39   S    
O16   H14   S    
C18   C24   A    
C23   C29   S    
C28   C29   A    
C10   N2    A    
C37   C38   S    
C18   C19   A    
C30   C31   S    
O26   H19   S    
C15   C16   A    
N4    Zn1   S    
C35   N3    A    
C9    N2    A    
C16   C51   S    
C11   C17   A    
C31   C32   S    
C24   N1    S    
C49   O22   S    
C1    O5    A    
C34   O10   A    
C18   H12   S    
C17   N2    S    
C20   C34   S    
C25   C32   S    
C47   O18   S    
C39   H8    S    
C5    C43   A    
C33   N3    A    
C21   C22   A    
C32   H4    S    
C8    I5    S    
C41   O2    S    
C51   O25   D    
C46   O16   S    
C45   O14   S    
C38   C39   S    
C12   O7    A    
C48   O19   D    
C16   C17   A    
C38   H7    S    
O1    Zn1   S    
O8    Zn1   S    
C47   O17   D    
O6    Zn1   S    
C12   O6    A    
C38   C48   S    
C33   C37   A    
O5    Zn2   S    
C35   C36   A    
C23   O8    A    
C43   C44   A    
C29   C30   A    
C48   O20   S    
C32   I3    S    
C49   O21   D    
O10   Zn1   S    
C50   O24   S    
O9    Zn2   S    
O7    Zn2   S    
N3    Zn2   S    
C27   H2    S    
C12   C14   S    
C1    C26   S    
C22   C24   A    
C42   C43   A    
C3    C4    A    
C36   H6    S    
C25   C30   A    
C19   I2    S    
C40   N1    A    
C40   O12   S    
C9    O3    S    
C10   O4    S    
C8    C44   A    
C4    C5    A    
C36   N4    A    
C1    O1    A    
C6    C10   A    
O11   Zn2   S    
C6    C7    A    
C31   C46   S    
C2    C3    A    
C25   C26   A    
C41   N1    A    
C11   C13   A    
C5    C6    A    
C2    C42   A    
C50   O23   D    
O24   H18   S    
C37   N4    A    
O14   H13   S    
C35   I4    S    
C40   C44   A    
C22   H1    S    
C20   C21   A    
O22   H17   S    
C21   C45   S    
C27   C28   A    
C14   C15   A    
C7    H10   S    
C4    C9    A    
C13   C14   A    
C34   O11   A    
C2    I1    S    
C13   H11   S    
