data_mof_unit_60137.cif
_audit_creation_date              2012-12-10T18:13:13-0500
_audit_creation_method            fapswitch 2.2
_symmetry_space_group_name_H-M    P1
_symmetry_Int_Tables_number       1
_space_group_crystal_system       triclinic
_cell_length_a                    11.23966
_cell_length_b                    9.790159
_cell_length_c                    19.311241
_cell_angle_alpha                 89.809438
_cell_angle_beta                  88.706176
_cell_angle_gamma                 89.687158
_cell_volume                      2124.38713495

loop_
_atom_site_label
_atom_site_type_symbol
_atom_type_description
_atom_site_fract_x
_atom_site_fract_y
_atom_site_fract_z
_atom_type_partial_charge
C1    C     C_R   0.260901 0.498569 0.492063 0.811547
C2    C     C_R   0.471380 0.507028 0.068546 0.466366
C3    C     C_R   0.378479 0.525014 0.814129 0.257956
C4    C     C_R   0.592978 0.481897 0.817006 0.251403
C5    C     C_R   0.384103 0.522060 0.741480 0.202649
C6    C     C_R   0.598663 0.484396 0.744405 0.228544
C7    C     C_R   0.493970 0.500863 0.706912 -0.235131
C8    C     C_R   0.482859 0.503393 0.852142 -0.207905
C9    C     C_3   0.067501 0.626965 0.514449 0.130905
C10   C     C_3   0.064171 0.363334 0.523903 0.100475
C11   C     C_3   0.940105 0.601718 0.540386 0.050390
C12   C     C_3   0.925875 0.355002 0.513576 0.080345
C13   C     C_3   0.068350 0.481807 0.409816 -0.302679
C14   C     C_3   0.121095 0.491856 0.484491 -0.181572
C15   C     C_3   0.877496 0.496983 0.490850 -0.146603
C16   C     C_R   0.496060 0.500388 0.367813 0.837023
C17   C     C_3   0.927957 0.513525 0.413894 -0.306177
C18   C     C_3   0.618621 0.079816 0.522071 0.054049
C19   C     C_3   0.611879 0.915412 0.531547 0.054327
C20   C     C_3   0.421264 0.080031 0.557027 0.219727
C21   C     C_3   0.407268 0.921862 0.549666 0.127487
C22   C     C_3   0.483596 0.081865 0.430066 0.401309
C23   C     C_3   0.490530 0.915932 0.429905 0.413186
C24   C     C_R   0.739252 0.499782 0.497095 0.849877
C25   C     C_R   0.499301 0.500028 0.631374 0.931231
C26   C     C_R   0.490353 0.625292 0.253801 -0.137934
C27   C     C_R   0.467220 0.381514 0.253917 -0.141937
C28   C     C_R   0.482249 0.628364 0.181924 0.265297
C29   C     C_R   0.462190 0.381451 0.181847 0.267049
C30   C     C_R   0.470786 0.505561 0.144785 -0.111139
C31   C     C_R   0.485598 0.502108 0.290998 -0.146047
C32   C     C_R   0.477597 0.505758 0.928281 0.501917
Cu1   Cu    Cu3+1 0.499860 0.642410 0.500030 1.078966
Cu2   Cu    Cu3+1 0.499860 0.357590 0.500030 1.097132
H1    H     H_    0.117611 0.658142 0.560448 0.189324
H2    H     H_    0.081826 0.374274 0.580052 0.151948
N1    N     N_R   0.394022 0.429519 0.032996 -0.143171
N2    N     N_R   0.551395 0.584387 0.032631 -0.143585
N3    N     N_R   0.397484 0.428293 0.964091 -0.139323
N4    N     N_R   0.553949 0.584482 0.963784 -0.139810
N5    N     N_3   0.500250 0.143650 0.501520 -0.279986
N6    N     N_3   0.500250 0.856350 0.501520 -0.295226
O1    O     O_R   0.317570 0.620260 0.500040 -0.523601
O2    O     O_R   0.317570 0.379740 0.500040 -0.503820
O3    O     O_R   0.499870 0.620300 0.400170 -0.546620
O4    O     O_R   0.499870 0.379700 0.400170 -0.544074
O5    O     O_R   0.682190 0.620260 0.500020 -0.539730
O6    O     O_R   0.682190 0.379740 0.500020 -0.535276
O7    O     O_R   0.499890 0.620220 0.599880 -0.544188
O8    O     O_R   0.499890 0.379780 0.599880 -0.524701
H3    H     H_    0.498975 0.720966 0.279856 0.244674
H4    H     H_    0.456444 0.285811 0.280139 0.243259
H5    H     H_    0.905626 0.616437 0.394108 0.238284
H6    H     H_    0.881284 0.446935 0.377100 0.213730
Br1   Br    Br    0.691596 0.168074 0.602245 -0.305623
Br2   Br    Br    0.630766 0.860018 0.631042 -0.304352
H7    H     H_    0.685785 0.096176 0.481984 0.218194
H8    H     H_    0.689772 0.872443 0.504194 0.233994
H9    H     H_    0.470257 0.082963 0.606384 0.168481
H10   H     H_    0.412796 0.873806 0.601438 0.189149
Br3   Br    Br    0.339380 0.154965 0.388913 -0.300693
Br4   Br    Br    0.351830 0.841039 0.382358 -0.287499
Br5   Br    Br    0.606821 0.149748 0.361570 -0.360094
Br6   Br    Br    0.631978 0.846264 0.374482 -0.397082
Br7   Br    Br    0.311786 0.184942 0.616329 -0.301748
Br8   Br    Br    0.245416 0.886081 0.544585 -0.252101
Br9   Br    Br    0.481287 0.805173 0.138326 -0.266415
Br10  Br    Br    0.450958 0.206428 0.137733 -0.266195
Br11  Br    Br    0.228692 0.566663 0.860609 -0.231126
Br12  Br    Br    0.735813 0.441854 0.867326 -0.227622
Br13  Br    Br    0.241768 0.549625 0.688948 -0.384871
Br14  Br    Br    0.750548 0.472618 0.696350 -0.338135
Br15  Br    Br    0.066304 0.778389 0.442698 -0.241376
Br16  Br    Br    0.127948 0.185928 0.498666 -0.198897
H11   H     H_    0.943865 0.554823 0.592896 0.146334
H12   H     H_    0.885412 0.326444 0.564387 0.184894
Br17  Br    Br    0.877013 0.776413 0.565695 -0.259150
Br18  Br    Br    0.878412 0.212994 0.445553 -0.319261
H13   H     H_    0.114644 0.550365 0.372243 0.213753
H14   H     H_    0.083688 0.377919 0.388370 0.247303

loop_
_geom_bond_atom_site_label_1
_geom_bond_atom_site_label_2
_ccdc_geom_bond_type
C19   Br2   S    
C13   H13   S    
C21   Br8   S    
C27   C29   A    
Cu1   O3    S    
C4    C8    A    
C4    Br12  S    
C20   N5    S    
C16   C31   S    
C6    Br14  S    
C23   N6    S    
Cu1   N6    S    
C3    Br11  S    
C22   N5    S    
Cu1   O7    S    
C18   C19   S    
C32   N3    A    
C25   O8    A    
C1    O2    A    
C22   Br5   S    
C11   C15   S    
C1    O1    A    
C23   Br4   S    
C12   Br18  S    
Cu2   O4    S    
C11   Br17  S    
C19   N6    S    
C13   H14   S    
C26   C31   A    
C13   C14   S    
Cu2   N5    S    
C9    Br15  S    
C19   H8    S    
Cu2   O8    S    
C27   C31   A    
Cu1   O1    S    
C20   Br7   S    
C28   Br9   S    
Cu2   O2    S    
C21   H10   S    
C4    C6    A    
C3    C8    A    
C10   C14   S    
C18   N5    S    
C16   O4    A    
C5    C7    A    
C8    C32   S    
C9    C14   S    
C29   C30   A    
C29   Br10  S    
C2    N2    A    
C18   H7    S    
C12   C15   S    
Cu1   Cu2   S    
C20   H9    S    
C9    C11   S    
C10   C12   S    
C18   Br1   S    
C23   Br6   S    
C12   H12   S    
Cu1   O5    S    
Cu2   O6    S    
C17   H5    S    
C27   H4    S    
C15   C17   S    
C15   C24   S    
C24   O5    A    
C24   O6    A    
C3    C5    A    
C16   O3    A    
C6    C7    A    
C26   C28   A    
C7    C25   S    
C13   C17   S    
C2    C30   S    
C28   C30   A    
C5    Br13  S    
C11   H11   S    
C26   H3    S    
C22   Br3   S    
N2    N4    A    
C10   Br16  S    
C2    N1    A    
C32   N4    A    
C25   O7    A    
C21   N6    S    
C20   C21   S    
N1    N3    A    
C9    H1    S    
C22   C23   S    
C10   H2    S    
C1    C14   S    
C17   H6    S    
