data_mof_unit_5798.cif
_audit_creation_date              2012-12-10T19:14:29-0500
_audit_creation_method            fapswitch 2.2
_symmetry_space_group_name_H-M    P1
_symmetry_Int_Tables_number       1
_space_group_crystal_system       triclinic
_cell_length_a                    15.988794
_cell_length_b                    14.728006
_cell_length_c                    10.821645
_cell_angle_alpha                 87.995085
_cell_angle_beta                  89.528484
_cell_angle_gamma                 89.617605
_cell_volume                      2546.61577527

loop_
_atom_site_label
_atom_site_type_symbol
_atom_type_description
_atom_site_fract_x
_atom_site_fract_y
_atom_site_fract_z
_atom_type_partial_charge
C1    C     C_R   0.340866 0.500343 0.499912 0.829300
C2    C     C_R   0.659173 0.499774 0.500513 0.819072
C3    C     C_R   0.957103 0.417326 0.522057 0.220718
C4    C     C_R   0.044890 0.417775 0.523124 0.199397
C5    C     C_1   0.823132 0.499744 0.506270 0.109416
C6    C     C_1   0.177017 0.501717 0.508771 0.096128
C7    C     C_1   0.251941 0.501264 0.504016 -0.143370
C8    C     C_1   0.748156 0.499534 0.503422 -0.134833
C9    C     C_R   0.575379 0.951098 0.502010 0.288548
C10   C     C_R   0.423390 0.951901 0.505799 0.339239
C11   C     C_R   0.499493 0.902675 0.503247 -0.266909
C12   C     C_R   0.423242 0.048083 0.510795 0.333941
C13   C     C_R   0.575161 0.047602 0.496895 0.336273
C14   C     C_R   0.499258 0.096884 0.503236 -0.281903
C15   C     C_1   0.499813 0.802617 0.501459 0.327443
C16   C     C_1   0.499630 0.197222 0.501158 0.329288
C17   C     C_R   0.507924 0.502107 0.261621 0.856120
C18   C     C_R   0.498231 0.498184 0.738688 0.906030
C19   C     C_R   0.483505 0.674062 0.094918 0.393697
C20   C     C_R   0.397574 0.625396 0.883228 0.407815
C21   C     C_R   0.431741 0.737797 0.032768 0.144637
C22   C     C_R   0.384984 0.711790 0.931104 0.144503
C23   C     C_R   0.458761 0.566193 0.936624 -0.158292
C24   C     C_R   0.486123 0.582473 0.056036 -0.193270
C25   C     C_R   0.518633 0.507483 0.126928 -0.182229
C26   C     C_R   0.496927 0.494319 0.873245 -0.187032
C27   C     C_R   0.553221 0.432720 0.066326 0.225809
C28   C     C_R   0.546627 0.428833 0.938014 0.210418
C29   C     C_R   0.955681 0.583025 0.498610 0.349100
C30   C     C_R   0.043083 0.583581 0.507534 0.334068
C31   C     C_R   0.912811 0.499888 0.508903 -0.165553
C32   C     C_R   0.087471 0.500933 0.513983 -0.174197
Cu1   Cu    Cu3+1 0.500000 0.589220 0.500000 1.028336
Cu2   Cu    Cu3+1 0.500000 0.410780 0.500000 1.050229
N1    N     N_1   0.500000 0.276710 0.500000 -0.141211
N2    N     N_1   0.500000 0.723290 0.500000 -0.145322
O1    O     O_R   0.380310 0.575320 0.500020 -0.550042
O2    O     O_R   0.619690 0.575320 0.499980 -0.606789
O3    O     O_R   0.380310 0.424640 0.499960 -0.579782
O4    O     O_R   0.619690 0.424640 0.500040 -0.531155
O5    O     O_R   0.500000 0.575360 0.319640 -0.544600
O6    O     O_R   0.500000 0.575360 0.680360 -0.550383
O7    O     O_R   0.500000 0.424670 0.319580 -0.546072
O8    O     O_R   0.500000 0.424670 0.680420 -0.563566
Br1   Br    Br    0.619755 0.342104 0.155596 -0.495987
Br2   Br    Br    0.609668 0.335976 0.854300 -0.412321
O9    O     O_3   0.538931 0.706269 0.180718 -0.535330
C33   C     C_3   0.621503 0.699559 0.133576 0.126637
H1    H     H_    0.626617 0.729023 0.037362 0.128683
H2    H     H_    0.642242 0.627387 0.133372 0.106557
C34   C     C_3   0.681589 0.749213 0.216191 -0.374941
H3    H     H_    0.673543 0.724539 0.313831 0.233424
H4    H     H_    0.746520 0.733510 0.186392 0.159395
C35   C     C_3   0.668506 0.851856 0.207259 -0.693849
H5    H     H_    0.675048 0.877413 0.109896 0.233514
H6    H     H_    0.716737 0.884807 0.263256 0.229878
H7    H     H_    0.605559 0.870242 0.243020 0.295426
O10   O     O_3   0.351266 0.599876 0.782806 -0.572015
C36   C     C_3   0.274807 0.561057 0.824385 0.055887
H8    H     H_    0.227454 0.577033 0.752409 0.164368
H9    H     H_    0.250140 0.590353 0.911383 0.142347
C37   C     C_3   0.283082 0.457542 0.840070 -0.398902
H10   H     H_    0.312143 0.429600 0.755807 0.232714
H11   H     H_    0.323919 0.440091 0.920069 0.223468
C38   C     C_3   0.198015 0.413221 0.861994 -0.830663
H12   H     H_    0.168401 0.438756 0.947362 0.253355
H13   H     H_    0.206135 0.338435 0.872864 0.267444
H14   H     H_    0.156254 0.428155 0.782214 0.268311
Br3   Br    Br    0.430105 0.861590 0.083390 -0.510494
Br4   Br    Br    0.309909 0.795761 0.848442 -0.510772
O11   O     O_3   0.085379 0.665327 0.500731 -0.611880
C39   C     C_3   0.099244 0.696805 0.621072 0.083364
H15   H     H_    0.166920 0.712033 0.628552 0.183456
H16   H     H_    0.084105 0.646564 0.697768 0.110814
C40   C     C_3   0.049010 0.784259 0.639437 -0.332874
H17   H     H_    0.058860 0.832011 0.558952 0.222754
H18   H     H_    0.981413 0.768128 0.645885 0.251039
C41   C     C_3   0.074609 0.830788 0.756930 -0.874460
H19   H     H_    0.068029 0.783500 0.838638 0.260809
H20   H     H_    0.033827 0.890965 0.770714 0.259879
H21   H     H_    0.140358 0.854092 0.748742 0.293196
O12   O     O_3   0.912325 0.664735 0.491792 -0.609814
C42   C     C_3   0.889167 0.685955 0.368107 0.044732
H22   H     H_    0.833832 0.731662 0.371919 0.160414
H23   H     H_    0.869531 0.625339 0.316830 0.126402
C43   C     C_3   0.959541 0.736308 0.297775 -0.308515
H24   H     H_    0.982455 0.792747 0.353762 0.241464
H25   H     H_    0.012214 0.688589 0.281433 0.229777
C44   C     C_3   0.929881 0.775178 0.173023 -0.940708
H26   H     H_    0.905871 0.720121 0.115621 0.257191
H27   H     H_    0.983024 0.808567 0.123260 0.268151
H28   H     H_    0.879767 0.826590 0.186388 0.261308
Br5   Br    Br    0.897545 0.304099 0.538566 -0.444628
Br6   Br    Br    0.106962 0.305063 0.537722 -0.467059
O13   O     O_3   0.650122 0.093875 0.492589 -0.569821
C45   C     C_3   0.676905 0.102597 0.368117 0.067417
H29   H     H_    0.629488 0.140187 0.310799 0.167752
H30   H     H_    0.688027 0.034602 0.329288 0.165190
C46   C     C_3   0.758700 0.155535 0.362032 -0.269074
H31   H     H_    0.746657 0.226276 0.390471 0.267468
H32   H     H_    0.804407 0.123203 0.427062 0.253868
C47   C     C_3   0.796360 0.157664 0.231928 -0.825859
H33   H     H_    0.812002 0.087699 0.203914 0.240336
H34   H     H_    0.854535 0.198421 0.230287 0.280712
H35   H     H_    0.751779 0.188898 0.164598 0.296287
O14   O     O_3   0.347419 0.094046 0.511722 -0.578074
C48   C     C_3   0.328689 0.122754 0.632473 0.084252
H36   H     H_    0.294092 0.188282 0.622872 0.197758
H37   H     H_    0.385149 0.136292 0.688891 0.123385
C49   C     C_3   0.272660 0.053231 0.700813 -0.297732
H38   H     H_    0.217891 0.037980 0.642575 0.248879
H39   H     H_    0.308476 0.989371 0.718660 0.274673
C50   C     C_3   0.241747 0.088360 0.824150 -0.840336
H40   H     H_    0.295557 0.102883 0.884510 0.269253
H41   H     H_    0.202015 0.036076 0.871577 0.273949
H42   H     H_    0.203950 0.151286 0.809050 0.263294
O15   O     O_3   0.650491 0.904360 0.495762 -0.612044
C51   C     C_3   0.677365 0.881538 0.616891 0.083452
H43   H     H_    0.626471 0.849069 0.673764 0.137320
H44   H     H_    0.698856 0.943689 0.662691 0.184692
C52   C     C_3   0.750186 0.814092 0.609582 -0.313704
H45   H     H_    0.729411 0.752850 0.561290 0.230729
H46   H     H_    0.802440 0.845715 0.555443 0.230575
C53   C     C_3   0.781470 0.785119 0.737956 -0.894953
H47   H     H_    0.804947 0.844866 0.786724 0.256661
H48   H     H_    0.833353 0.735219 0.729184 0.274269
H49   H     H_    0.730329 0.752676 0.793447 0.248518
O16   O     O_3   0.348320 0.905846 0.513195 -0.583800
C54   C     C_3   0.322216 0.887234 0.392498 0.100598
H50   H     H_    0.371609 0.849814 0.341587 0.174635
H51   H     H_    0.306663 0.951684 0.340462 0.188182
C55   C     C_3   0.244522 0.827539 0.400793 -0.319293
H52   H     H_    0.259524 0.763811 0.454355 0.245552
H53   H     H_    0.193846 0.863986 0.449908 0.225984
C56   C     C_3   0.214156 0.803380 0.272779 -0.840035
H54   H     H_    0.197973 0.865960 0.217611 0.267860
H55   H     H_    0.157580 0.760387 0.282279 0.264596
H56   H     H_    0.263295 0.764878 0.223259 0.272666

loop_
_geom_bond_atom_site_label_1
_geom_bond_atom_site_label_2
_ccdc_geom_bond_type
C56   H56   S    
C6    C32   S    
C9    O15   S    
O13   C45   S    
C18   C26   S    
O16   C54   S    
C30   O11   S    
C56   H54   S    
C28   Br2   S    
C37   H10   S    
C13   O13   S    
C42   H22   S    
Cu2   O4    S    
Cu1   O6    S    
C19   C21   A    
C50   H40   S    
C18   O6    A    
C16   N1    T    
C41   H20   S    
C5    C31   S    
O14   C48   S    
C45   C46   S    
Cu1   N2    S    
C47   H35   S    
Cu2   N1    S    
C23   C26   A    
C9    C13   A    
C51   H43   S    
C52   C53   S    
C37   H11   S    
C49   H38   S    
C11   C15   S    
C33   C34   S    
O9    C33   S    
C55   H52   S    
C38   H13   S    
C45   H30   S    
C48   H36   S    
C44   H27   S    
C1    O1    A    
C50   H42   S    
C27   Br1   S    
C33   H2    S    
C36   H8    S    
C1    C7    S    
C21   C22   A    
C48   H37   S    
C39   C40   S    
C10   O16   S    
C49   H39   S    
C35   H6    S    
C36   H9    S    
C17   O5    A    
C34   H3    S    
C30   C32   A    
Cu2   O8    S    
C24   C25   A    
C39   H16   S    
C41   H19   S    
O10   C36   S    
Cu1   O1    S    
Cu2   O3    S    
C21   Br3   S    
C34   H4    S    
C51   C52   S    
C47   H34   S    
C40   H17   S    
C17   O7    A    
C29   C30   A    
C18   O8    A    
C40   H18   S    
C2    O2    A    
C46   H31   S    
C20   C23   A    
C23   C24   A    
C38   H14   S    
C45   H29   S    
C42   C43   S    
Cu1   Cu2   S    
C3    Br5   S    
C44   H28   S    
C3    C31   A    
C9    C11   A    
C49   C50   S    
C52   H45   S    
C4    C32   A    
C10   C12   A    
C53   H49   S    
C4    Br6   S    
C33   H1    S    
C46   H32   S    
C12   C14   A    
C38   H12   S    
C48   C49   S    
C14   C16   S    
C20   O10   S    
C3    C4    A    
C15   N2    T    
C53   H48   S    
C54   H50   S    
C56   H55   S    
C35   H5    S    
C36   C37   S    
C37   C38   S    
C42   H23   S    
C43   H24   S    
C2    C8    S    
Cu2   O7    S    
C20   C22   A    
C39   H15   S    
C43   C44   S    
C5    C8    T    
C6    C7    T    
C25   C27   A    
C26   C28   A    
Cu1   O2    S    
C34   C35   S    
C17   C25   S    
C54   C55   S    
C19   C24   A    
Cu1   O5    S    
O11   C39   S    
C29   C31   A    
O15   C51   S    
C12   O14   S    
C41   H21   S    
C55   C56   S    
C43   H25   S    
C47   H33   S    
C40   C41   S    
C51   H44   S    
C52   H46   S    
C10   C11   A    
C1    O3    A    
C2    O4    A    
C29   O12   S    
C46   C47   S    
C55   H53   S    
O12   C42   S    
C19   O9    S    
C27   C28   A    
C54   H51   S    
C44   H26   S    
C13   C14   A    
C22   Br4   S    
C53   H47   S    
C50   H41   S    
C35   H7    S    
