data_mof_unit_11275.cif
_audit_creation_date              2012-12-10T17:44:37-0500
_audit_creation_method            fapswitch 2.2
_symmetry_space_group_name_H-M    P1
_symmetry_Int_Tables_number       1
_space_group_crystal_system       triclinic
_cell_length_a                    9.93418
_cell_length_b                    10.648891
_cell_length_c                    15.52217
_cell_angle_alpha                 92.612636
_cell_angle_beta                  67.720048
_cell_angle_gamma                 88.751605
_cell_volume                      1516.53141245

loop_
_atom_site_label
_atom_site_type_symbol
_atom_type_description
_atom_site_fract_x
_atom_site_fract_y
_atom_site_fract_z
_atom_type_partial_charge
C1    C     C_R   0.505111 0.737879 0.486850 0.901170
C2    C     C_R   0.741355 0.508829 0.029238 0.175268
C3    C     C_R   0.594807 0.544716 0.085506 0.093906
C4    C     C_R   0.408712 0.499082 0.675822 0.865048
C5    C     C_R   0.841233 0.480928 0.070604 -0.220261
C6    C     C_R   0.795133 0.482119 0.167401 -0.192063
C7    C     C_R   0.550844 0.542469 0.182052 -0.261568
C8    C     C_R   0.244215 0.896755 0.484267 0.032466
C9    C     C_R   0.109275 0.957944 0.535569 -0.176966
C10   C     C_R   0.101711 0.066059 0.591188 -0.171449
C11   C     C_R   0.229698 0.120727 0.587555 -0.148244
C12   C     C_R   0.425408 0.545230 0.909265 0.096745
C13   C     C_R   0.366835 0.063284 0.531569 0.086970
C14   C     C_R   0.372954 0.941030 0.493597 0.036961
C15   C     C_R   0.507239 0.870470 0.468979 -0.183670
C16   C     C_R   0.497771 0.260291 0.505944 0.876844
C17   C     C_R   0.638566 0.932681 0.448621 -0.007054
C18   C     C_R   0.632930 0.060863 0.465636 -0.251470
C19   C     C_R   0.498413 0.125938 0.507958 -0.135469
C20   C     C_R   0.786398 0.663987 0.641762 -0.013607
C21   C     C_R   0.827817 0.723125 0.710038 -0.233944
C22   C     C_R   0.968819 0.718125 0.702985 -0.238320
C23   C     C_R   0.284819 0.598965 0.962559 0.175618
C24   C     C_R   0.071180 0.650480 0.629438 -0.158805
C25   C     C_R   0.035000 0.575763 0.565178 0.145561
C26   C     C_R   0.888299 0.578748 0.567299 0.124461
C27   C     C_R   0.967180 0.427295 0.437581 -0.119128
C28   C     C_R   0.591317 0.501050 0.324167 0.861226
C29   C     C_R   0.109804 0.427329 0.437682 -0.084472
C30   C     C_R   0.353277 0.515673 0.777196 -0.046280
C31   C     C_R   0.648422 0.509368 0.223079 -0.057875
C32   C     C_R   0.180588 0.611045 0.922228 -0.221654
C33   C     C_R   0.215571 0.571277 0.829152 -0.210161
C34   C     C_R   0.534159 0.541150 0.947505 0.064613
C35   C     C_R   0.452454 0.495588 0.819380 -0.260772
C36   C     C_1   0.780451 0.868637 0.407101 0.181959
C37   C     C_1   0.249437 0.805630 0.411080 0.206852
C38   C     C_1   0.644190 0.715475 0.656382 0.289503
C39   C     C_R   0.493454 0.571401 0.043888 0.063417
C40   C     C_R   0.352737 0.626272 0.095414 -0.229542
C41   C     C_R   0.250986 0.641144 0.054801 -0.237732
C42   C     C_R   0.682524 0.510210 0.892372 -0.227371
C43   C     C_R   0.784793 0.497043 0.932737 -0.241552
H1    H     H_    0.144729 0.684225 0.096205 0.159360
H2    H     H_    0.000201 0.771303 0.753075 0.165085
H3    H     H_    0.179129 0.660011 0.625008 0.222140
H4    H     H_    0.194786 0.367490 0.386618 0.148495
H5    H     H_    0.872419 0.457044 0.198323 0.158635
H6    H     H_    0.897018 0.472198 0.888472 0.151703
H7    H     H_    0.074024 0.654821 0.961722 0.146281
H8    H     H_    0.137645 0.587976 0.797222 0.153306
H9    H     H_    0.552776 0.443353 0.779372 0.150233
H10   H     H_    0.319941 0.662882 0.166588 0.170756
H11   H     H_    0.723601 0.498621 0.817336 0.159856
H12   H     H_    0.953428 0.453568 0.028168 0.150162
H13   H     H_    0.010167 0.923338 0.531069 0.155074
H14   H     H_    0.997177 0.111939 0.632410 0.147468
H15   H     H_    0.220887 0.208237 0.628013 0.150533
H16   H     H_    0.733991 0.109992 0.444864 0.167647
H17   H     H_    0.945248 0.367600 0.386537 0.135656
H18   H     H_    0.751593 0.782203 0.767707 0.161299
H19   H     H_    0.438034 0.558800 0.226558 0.174621
N1    N     N_R   0.856800 0.501200 0.500850 -0.113449
N2    N     N_R   0.142390 0.501280 0.500880 -0.118867
N3    N     N_1   0.893898 0.817493 0.373996 -0.208407
N4    N     N_1   0.252542 0.733031 0.352543 -0.221561
N5    N     N_1   0.529720 0.762782 0.674730 -0.230580
O1    O     O_R   0.385310 0.683220 0.500000 -0.641176
O2    O     O_R   0.614640 0.683250 0.500010 -0.602703
O3    O     O_R   0.319840 0.499980 0.632240 -0.646876
O4    O     O_R   0.549160 0.500000 0.632250 -0.619477
O5    O     O_R   0.385360 0.316750 0.499990 -0.614382
O6    O     O_R   0.614690 0.316780 0.500000 -0.619167
O7    O     O_R   0.450840 0.500000 0.367750 -0.610850
O8    O     O_R   0.680160 0.500020 0.367760 -0.615814
Zn1   Zn    Zn3+2 0.346880 0.499980 0.499990 0.933847
Zn2   Zn    Zn3+2 0.653120 0.500020 0.500010 0.951991

loop_
_geom_bond_atom_site_label_1
_geom_bond_atom_site_label_2
_ccdc_geom_bond_type
C27   C29   A    
O2    Zn2   S    
C34   C42   A    
O5    Zn1   S    
C28   O7    A    
C4    O3    A    
C12   C23   A    
C6    H5    S    
C30   C35   A    
C29   H4    S    
C3    C7    A    
C27   H17   S    
C5    C6    A    
C1    O1    A    
C18   C19   A    
C8    C9    A    
C16   O5    A    
C1    C15   S    
C17   C36   S    
C11   H15   S    
C9    C10   A    
C21   H18   S    
C6    C31   A    
C29   N2    A    
C3    C39   A    
C13   C14   A    
C7    C31   A    
C13   C19   A    
C16   O6    A    
C10   H14   S    
C24   C25   A    
C39   C40   A    
C36   N3    T    
C43   H6    S    
C25   C26   A    
C1    O2    A    
C34   C39   A    
C25   N2    A    
C26   N1    A    
C7    H19   S    
C20   C38   S    
C2    C43   A    
C37   N4    T    
C17   C18   A    
N2    Zn1   S    
C9    H13   S    
C20   C21   A    
C12   C35   A    
O8    Zn2   S    
C32   H7    S    
O7    Zn1   S    
C40   C41   A    
O3    Zn1   S    
C41   H1    S    
C22   C24   A    
C2    C5    A    
C33   H8    S    
C42   C43   A    
C12   C34   A    
O4    Zn2   S    
N1    Zn2   S    
C15   C17   A    
C8    C14   A    
C30   C33   A    
C5    H12   S    
C28   C31   S    
C23   C32   A    
O1    Zn1   S    
C23   C41   A    
C24   H3    S    
C32   C33   A    
C2    C3    A    
C42   H11   S    
C11   C13   A    
C20   C26   A    
C16   C19   S    
C10   C11   A    
C18   H16   S    
C22   H2    S    
C38   N5    T    
C40   H10   S    
C8    C37   S    
C35   H9    S    
O6    Zn2   S    
C14   C15   A    
C27   N1    A    
C21   C22   A    
C28   O8    A    
C4    O4    A    
C4    C30   S    
