data_mof_unit_11601.cif
_audit_creation_date              2012-12-10T16:39:40-0500
_audit_creation_method            fapswitch 2.2
_symmetry_space_group_name_H-M    P1
_symmetry_Int_Tables_number       1
_space_group_crystal_system       triclinic
_cell_length_a                    16.947068
_cell_length_b                    16.921662
_cell_length_c                    17.018246
_cell_angle_alpha                 67.436181
_cell_angle_beta                  67.931252
_cell_angle_gamma                 67.043589
_cell_volume                      4000.51942584

loop_
_atom_site_label
_atom_site_type_symbol
_atom_type_description
_atom_site_fract_x
_atom_site_fract_y
_atom_site_fract_z
_atom_type_partial_charge
Br1   Br    Br    0.220675 0.036295 0.222130 -0.350639
Br2   Br    Br    0.854322 0.253038 0.614804 -0.435543
Br3   Br    Br    0.756755 0.378972 0.156499 -0.466653
Br4   Br    Br    0.236866 0.627356 0.850560 -0.481273
Br5   Br    Br    0.181918 0.129689 0.514883 -0.496120
Br6   Br    Br    0.736589 0.190317 0.416681 -0.449172
Br7   Br    Br    0.614468 0.248038 0.836625 -0.448409
Br8   Br    Br    0.389613 0.750494 0.174088 -0.460618
Br9   Br    Br    0.123729 0.524251 0.182183 -0.526531
Br10  Br    Br    0.173899 0.396658 0.747424 -0.449111
Br11  Br    Br    0.777568 0.958202 0.774015 -0.328890
Br12  Br    Br    0.049077 0.224167 0.228629 -0.337661
Br13  Br    Br    0.955752 0.775336 0.776001 -0.349840
Br14  Br    Br    0.236987 0.235028 0.067444 -0.352786
Br15  Br    Br    0.762959 0.765350 0.932617 -0.364987
Br16  Br    Br    0.498776 0.856883 0.826779 -0.535190
Br17  Br    Br    0.498313 0.155833 0.156352 -0.505328
Br18  Br    Br    0.849223 0.827064 0.504883 -0.539438
C1    C     C_R   0.313713 0.000725 0.436111 -0.056199
C2    C     C_R   0.324447 0.457309 0.954302 -0.034926
C3    C     C_R   0.544729 0.416125 0.985714 -0.001666
C4    C     C_R   0.018279 0.455734 0.584681 -0.029154
C5    C     C_R   0.992209 0.543040 0.414982 0.003621
C6    C     C_3   0.283195 0.039106 0.840347 -0.742545
C7    C     C_3   0.714819 0.987908 0.156107 -0.735038
C8    C     C_3   0.046835 0.837237 0.229625 -0.768919
C9    C     C_3   0.990502 0.134095 0.757542 -0.744395
C10   C     C_3   0.845111 0.221065 0.060409 -0.690792
C11   C     C_3   0.159005 0.794114 0.948431 -0.732087
C12   C     C_3   0.194857 0.887992 0.709904 -0.667409
C13   C     C_R   0.995393 0.689138 0.564293 -0.008252
C14   C     C_3   0.848550 0.024656 0.278760 -0.716909
C15   C     C_3   0.797595 0.179430 0.904125 -0.690619
C16   C     C_3   0.270282 0.863947 0.033084 -0.687036
C17   C     C_3   0.867910 0.764359 0.209768 -0.745663
C18   C     C_3   0.014415 0.278285 0.857862 -0.713674
C19   C     C_R   0.970248 0.321522 0.449640 -0.039058
C20   C     C_R   0.448923 0.014104 0.443551 0.034371
C21   C     C_R   0.545145 0.020520 0.543469 0.034647
C22   C     C_R   0.991576 0.453698 0.454555 0.034938
C23   C     C_R   0.009095 0.547691 0.548479 0.033690
C24   C     C_R   0.457200 0.459701 0.977713 0.033411
C25   C     C_R   0.541034 0.541660 0.026232 0.033553
C26   C     C_R   0.973450 0.177443 0.433878 1.003664
C27   C     C_R   0.671709 0.049014 0.552084 -0.016855
C28   C     C_R   0.013973 0.826535 0.570334 0.970534
C29   C     C_R   0.178044 0.435312 0.970270 1.005069
C30   C     C_R   0.821924 0.565034 0.029487 0.974585
C31   C     C_R   0.428391 0.991511 0.170946 0.992137
C32   C     C_R   0.570268 0.014147 0.826186 1.001636
C33   C     C_R   0.564452 0.821541 0.031283 1.002498
C34   C     C_R   0.435232 0.178702 0.969369 0.996308
C35   C     C_R   0.029324 0.565498 0.822284 0.993268
C36   C     C_R   0.981469 0.431189 0.175537 0.986176
C37   C     C_R   0.822146 0.028882 0.565880 1.006877
C38   C     C_R   0.992717 0.443204 0.315070 -0.010823
C39   C     C_R   0.175430 0.981491 0.430757 0.952318
C40   C     C_R   0.400583 0.008165 0.394802 0.014305
C41   C     C_R   0.593259 0.022634 0.594111 0.012010
C42   C     C_R   0.984173 0.406213 0.406486 0.009979
C43   C     C_R   0.016263 0.595663 0.595732 0.005116
C44   C     C_R   0.412102 0.414977 0.961630 0.007373
C45   C     C_R   0.586460 0.586292 0.041596 0.011453
C46   C     C_R   0.264174 0.994816 0.388047 -0.172111
C47   C     C_R   0.728245 0.032992 0.604491 -0.147435
C48   C     C_R   0.988625 0.392890 0.266619 -0.159543
C49   C     C_R   0.042302 0.550826 0.674895 -0.060424
C50   C     C_R   0.031666 0.603530 0.729206 -0.166913
C51   C     C_R   0.401483 0.275097 0.960775 -0.146536
C52   C     C_R   0.597958 0.725527 0.041037 -0.149893
C53   C     C_R   0.610568 0.005525 0.735978 -0.157053
C54   C     C_R   0.386670 0.007010 0.258024 -0.161821
C55   C     C_R   0.726399 0.598447 0.038257 -0.166540
C56   C     C_R   0.273293 0.402695 0.962151 -0.148136
C57   C     C_R   0.004839 0.736583 0.611136 -0.156120
C58   C     C_R   0.974057 0.270224 0.397142 -0.156745
C59   C     C_R   0.489537 0.962741 0.727625 0.278640
C60   C     C_R   0.454942 0.328247 0.950997 0.008323
C61   C     C_R   0.507291 0.056587 0.260649 0.291451
C62   C     C_R   0.959891 0.732641 0.490545 0.225362
C63   C     C_R   0.960210 0.289200 0.542483 0.327795
C64   C     C_R   0.707704 0.451871 0.056988 0.257327
C65   C     C_R   0.290680 0.550428 0.946244 0.321852
C66   C     C_R   0.273473 0.017790 0.518661 0.285139
C67   C     C_R   0.691891 0.087851 0.459547 0.254461
C68   C     C_R   0.548254 0.297538 0.935733 0.266730
C69   C     C_R   0.449750 0.700306 0.074709 0.293146
C70   C     C_R   0.013687 0.525446 0.274499 0.230907
C71   C     C_R   0.543705 0.672063 0.053585 -0.019514
C72   C     C_R   0.072240 0.455807 0.698378 0.282146
C73   C     C_R   0.298430 0.005762 0.297218 0.245965
C74   C     C_R   0.698112 0.007006 0.696996 0.233437
C75   C     C_R   0.993627 0.303457 0.305230 0.220784
C76   C     C_R   0.006581 0.697035 0.698248 0.213758
C77   C     C_R   0.310051 0.310810 0.981480 0.190830
C78   C     C_R   0.689636 0.690118 0.018940 0.171672
C79   C     C_R   0.653031 0.072716 0.407456 -0.012136
C80   C     C_R   0.326065 0.997329 0.574179 -0.034086
C81   C     C_R   0.046904 0.408689 0.662350 -0.024242
C82   C     C_R   0.563113 0.997971 0.687051 -0.036231
C83   C     C_R   0.993101 0.582480 0.325832 -0.067231
C84   C     C_R   0.405129 0.664582 0.045748 -0.010673
C85   C     C_R   0.590897 0.333058 0.966456 -0.047461
C86   C     C_R   0.561639 0.052635 0.308995 -0.041065
C87   C     C_R   0.431655 0.978034 0.678334 -0.024087
C88   C     C_R   0.326177 0.589281 0.980825 -0.013779
C89   C     C_R   0.672143 0.412444 0.023338 -0.077329
C90   C     C_R   0.994538 0.323906 0.582184 -0.005817
C91   C     C_R   0.975816 0.685259 0.431467 -0.067031
C92   C     C_R   0.688037 0.085160 0.314622 0.161072
C93   C     C_R   0.434329 0.020142 0.303659 -0.046004
C94   C     C_R   0.290561 0.981213 0.666025 0.169652
C95   C     C_R   0.052382 0.316123 0.698713 0.161943
C96   C     C_R   0.979309 0.675909 0.289787 0.203177
C97   C     C_R   0.314850 0.704421 0.042860 0.170093
C98   C     C_R   0.678192 0.288805 0.977333 0.220967
C99   C     C_R   0.644191 0.071454 0.266727 0.213068
C100  C     C_R   0.343426 0.971292 0.718270 0.164060
C101  C     C_R   0.276954 0.669120 0.006447 0.173741
C102  C     C_R   0.720063 0.330396 0.002055 0.185320
C103  C     C_R   0.024888 0.273875 0.659265 0.167316
C104  C     C_R   0.674515 0.544503 0.047339 -0.018686
C105  C     C_R   0.973019 0.727590 0.342008 0.221096
C106  C     C_R   0.530811 0.033357 0.401229 -0.031753
C107  C     C_R   0.463549 0.000078 0.585676 -0.021248
C108  C     C_R   0.000840 0.411150 0.541015 -0.027179
C109  C     C_R   0.992375 0.592153 0.464787 -0.000952
C110  C     C_R   0.411828 0.544479 0.993454 -0.024225
C111  C     C_R   0.586230 0.456831 0.011039 -0.004583
C112  C     C_R   0.577426 0.040741 0.450664 -0.008967
C113  C     C_R   0.413589 0.002177 0.534934 -0.012603
C114  C     C_R   0.452964 0.584652 0.020063 -0.019017
H1    H     H_    0.319678 0.900029 0.851646 0.253683
H2    H     H_    0.042663 0.909124 0.209632 0.235689
H3    H     H_    0.047512 0.822639 0.171317 0.254116
H4    H     H_    0.109307 0.797392 0.250008 0.261427
H5    H     H_    0.114213 0.148598 0.683593 0.251516
H6    H     H_    0.004558 0.065615 0.753901 0.252371
H7    H     H_    0.920871 0.169751 0.757130 0.282368
H8    H     H_    0.001805 0.128434 0.819758 0.208199
H9    H     H_    0.845223 0.345833 0.970080 0.235618
H10   H     H_    0.874830 0.159652 0.038386 0.229955
H11   H     H_    0.897174 0.231287 0.077161 0.253211
H12   H     H_    0.326234 0.023412 0.883029 0.272411
H13   H     H_    0.789933 0.212575 0.120306 0.263547
H14   H     H_    0.141752 0.696964 0.069419 0.239305
H15   H     H_    0.117049 0.793211 0.912231 0.274416
H16   H     H_    0.217574 0.815189 0.899731 0.247138
H17   H     H_    0.118788 0.843704 0.986710 0.209477
H18   H     H_    0.171080 0.987621 0.765130 0.237925
H19   H     H_    0.124684 0.886698 0.741056 0.244724
H20   H     H_    0.237801 0.830953 0.749236 0.250540
H21   H     H_    0.214681 0.880025 0.642815 0.257443
H22   H     H_    0.778483 0.160149 0.266238 0.295198
H23   H     H_    0.212778 0.054594 0.879685 0.222479
H24   H     H_    0.853322 0.000516 0.347651 0.278579
H25   H     H_    0.909652 0.043485 0.234062 0.234209
H26   H     H_    0.843407 0.970697 0.260748 0.257458
H27   H     H_    0.678040 0.158877 0.994787 0.267485
H28   H     H_    0.852879 0.128844 0.931610 0.219951
H29   H     H_    0.817702 0.240857 0.861287 0.256616
H30   H     H_    0.784758 0.150472 0.863229 0.279354
H31   H     H_    0.195313 0.775394 0.111860 0.231835
H32   H     H_    0.339439 0.860774 0.992024 0.268407
H33   H     H_    0.253948 0.902097 0.080335 0.272819
H34   H     H_    0.292793 0.099379 0.784556 0.257005
H35   H     H_    0.223220 0.900473 0.991468 0.207178
H36   H     H_    0.990234 0.683283 0.160576 0.251992
H37   H     H_    0.860035 0.800079 0.141942 0.241341
H38   H     H_    0.840558 0.813912 0.248110 0.258559
H39   H     H_    0.829723 0.714529 0.241015 0.246346
H40   H     H_    0.118403 0.201024 0.781133 0.228475
H41   H     H_    0.044135 0.241370 0.914591 0.241194
H42   H     H_    0.959760 0.252317 0.867519 0.226614
H43   H     H_    0.986876 0.349923 0.856076 0.256312
H44   H     H_    0.728562 0.110537 0.140842 0.257782
H45   H     H_    0.689545 0.997381 0.100739 0.259357
H46   H     H_    0.690501 0.935144 0.213520 0.238295
H47   H     H_    0.788586 0.964868 0.135540 0.221029
H48   H     H_    0.957691 0.855194 0.345203 0.260752
N1    N     N_2   0.303455 0.962799 0.809576 -0.336402
N2    N     N_2   0.260127 0.775665 0.081736 -0.273669
N3    N     N_2   0.961030 0.719993 0.205558 -0.310702
N4    N     N_2   0.081548 0.266601 0.776937 -0.267526
N5    N     N_2   0.685607 0.072266 0.176375 -0.283650
N6    N     N_2   0.971097 0.819698 0.302349 -0.302550
N7    N     N_2   0.048743 0.178759 0.682372 -0.260335
N8    N     N_2   0.813879 0.297028 0.991394 -0.311979
N9    N     N_2   0.185260 0.706082 0.007444 -0.269331
N10   N     N_2   0.202887 0.971577 0.706075 -0.312597
N11   N     N_2   0.772116 0.101288 0.268936 -0.332667
N12   N     N_2   0.719533 0.197986 0.975474 -0.294587
O1    O     O_R   0.982940 0.138950 0.510160 -0.590991
O2    O     O_R   0.982940 0.510160 0.138950 -0.635128
O3    O     O_R   0.861050 0.017060 0.489840 -0.623282
O4    O     O_R   0.138950 0.982940 0.510160 -0.621635
O5    O     O_R   0.867700 0.025880 0.612340 -0.566379
O6    O     O_R   0.132300 0.974120 0.387660 -0.574970
O7    O     O_R   0.025880 0.612340 0.867700 -0.556324
O8    O     O_R   0.974120 0.387660 0.132300 -0.559386
O9    O     O_R   0.612340 0.867700 0.025880 -0.594090
O10   O     O_R   0.387660 0.132300 0.974120 -0.592406
O11   O     O_R   0.387660 0.974120 0.132300 -0.564649
O12   O     O_R   0.017060 0.861050 0.489840 -0.634648
O13   O     O_R   0.612340 0.025880 0.867700 -0.561012
O14   O     O_R   0.132300 0.387660 0.974120 -0.569393
O15   O     O_R   0.867700 0.612340 0.025880 -0.584411
O16   O     O_R   0.974120 0.132300 0.387660 -0.570622
O17   O     O_R   0.025880 0.867700 0.612340 -0.589323
O18   O     O_R   0.138950 0.510160 0.982940 -0.596816
O19   O     O_R   0.861050 0.489840 0.017060 -0.636491
O20   O     O_R   0.510160 0.982940 0.138950 -0.639402
O21   O     O_R   0.489840 0.017060 0.861050 -0.641682
O22   O     O_R   0.489840 0.861050 0.017060 -0.608679
O23   O     O_R   0.510160 0.138950 0.982940 -0.604857
O24   O     O_R   0.017060 0.489840 0.861050 -0.645465
Zn1   Zn    Zn3+2 0.004880 0.004880 0.583590 1.092521
Zn2   Zn    Zn3+2 0.995120 0.995120 0.416410 1.048223
Zn3   Zn    Zn3+2 0.004880 0.583590 0.004880 1.085928
Zn4   Zn    Zn3+2 0.995120 0.416410 0.995120 1.046553
Zn5   Zn    Zn3+2 0.583590 0.004880 0.004880 1.051028
Zn6   Zn    Zn3+2 0.416410 0.995120 0.995120 1.032688

loop_
_geom_bond_atom_site_label_1
_geom_bond_atom_site_label_2
_ccdc_geom_bond_type
C47   C74   A    
C37   O3    A    
H22   N11   S    
C31   O11   A    
C18   H42   S    
C22   C42   A    
C39   O6    A    
C17   H39   S    
C13   C43   A    
C27   C67   A    
C95   N4    S    
C23   C43   A    
C90   C103  A    
C89   C111  A    
C97   N2    S    
C11   H16   S    
O4    Zn1   S    
C25   C45   A    
C13   C62   A    
Br17  C61   S    
C37   O5    A    
O1    Zn1   S    
O19   Zn4   S    
C10   H13   S    
Br6   C67   S    
Br7   C68   S    
C15   N12   S    
C21   C107  A    
Br12  C75   S    
C52   C78   A    
C25   C114  A    
C84   C114  A    
C79   C112  A    
C14   H25   S    
C16   H32   S    
C10   N8    S    
Br9   C70   S    
C88   C101  A    
C7    H45   S    
C4    C108  A    
C4    C23   A    
H18   N10   S    
C84   C97   A    
C17   N3    S    
C96   N3    S    
C88   C110  A    
C92   N11   S    
C26   O16   A    
C36   O8    A    
C31   O20   A    
C59   C82   A    
Br16  C59   S    
C26   C58   S    
C35   C50   S    
O10   Zn6   S    
C8    H3    S    
O22   Zn6   S    
C14   H24   S    
C13   C57   A    
Br11  C74   S    
C91   C109  A    
C12   H21   S    
C27   C41   A    
C53   C74   A    
H40   N4    S    
C31   C54   S    
C62   C91   A    
H14   N9    S    
C18   N4    S    
C33   C52   S    
O9    Zn5   S    
C16   H33   S    
C24   C44   A    
C5    C22   A    
C6    H23   S    
C24   C110  A    
C60   C68   A    
C28   O12   A    
C98   N12   S    
C54   C93   A    
C22   C108  A    
C18   H41   S    
Br1   C73   S    
C20   C40   A    
H31   N2    S    
C83   C96   A    
C19   C63   A    
C51   C60   A    
O6    Zn2   S    
C15   H30   S    
O5    Zn1   S    
C68   C85   A    
C102  N8    S    
C92   C99   A    
C28   C57   S    
C37   C47   S    
C70   C83   A    
C14   H26   S    
O20   Zn5   S    
C1    C40   A    
O16   Zn2   S    
C9    H6    S    
C80   C94   A    
C39   O4    A    
C106  C112  A    
C49   C50   A    
C35   O7    A    
O24   Zn4   S    
C25   C111  A    
O7    Zn3   S    
C43   C49   A    
H44   N5    S    
C41   C82   A    
Br15  C78   S    
C10   H11   S    
C54   C73   A    
C7    H46   S    
C91   C105  A    
C32   O21   A    
O14   Zn4   S    
C11   H17   S    
C34   O23   A    
C50   C76   A    
O18   Zn3   S    
C98   C102  A    
O11   Zn6   S    
O12   Zn2   S    
C80   C113  A    
C15   H29   S    
C32   C53   S    
C81   C95   A    
C8    H2    S    
C58   C75   A    
C103  N7    S    
C69   C84   A    
O21   Zn6   S    
C107  C113  A    
C12   H20   S    
C30   O19   A    
C1    C46   A    
H36   N3    S    
C21   C41   A    
C45   C71   A    
Br3   C64   S    
C7    H47   S    
Br14  C77   S    
C26   O1    A    
C2    C56   A    
H9    N8    S    
C9    N7    S    
C64   C89   A    
C3    C111  A    
C67   C79   A    
C7    N5    S    
C18   H43   S    
C48   C75   A    
C86   C106  A    
C96   C105  A    
C33   O22   A    
H1    N1    S    
C19   C58   A    
C35   O24   A    
C97   C101  A    
C69   C71   A    
C27   C47   A    
O8    Zn4   S    
C11   N9    S    
C87   C100  A    
C2    C65   A    
C52   C71   A    
C10   H10   S    
C23   C109  A    
C8    H4    S    
C72   C81   A    
C56   C77   A    
C45   C104  A    
C39   C46   S    
C5    C109  A    
C86   C99   A    
C100  N1    S    
C34   C51   S    
C12   N10   S    
C110  C114  A    
C4    C81   A    
C29   O14   A    
C6    N1    S    
H27   N12   S    
C44   C60   A    
C101  N9    S    
C29   C56   S    
C30   C55   S    
C1    C66   A    
C51   C77   A    
C11   H15   S    
C40   C93   A    
C15   H28   S    
O2    Zn3   S    
C36   C48   S    
C21   C112  A    
C87   C107  A    
C28   O17   A    
C53   C82   A    
O15   Zn3   S    
C9    H8    S    
C55   C78   A    
C65   C88   A    
C61   C93   A    
Br13  C76   S    
H48   N6    S    
Br8   C69   S    
C66   C80   A    
C20   C113  A    
C105  N6    S    
C59   C87   A    
C85   C98   A    
O17   Zn1   S    
C36   O2    A    
C99   N5    S    
C94   C100  A    
C79   C92   A    
C8    N6    S    
C89   C102  A    
C12   H19   S    
C5    C83   A    
Br4   C65   S    
C6    H12   S    
C38   C48   A    
C30   O15   A    
O13   Zn5   S    
C17   H37   S    
C16   N2    S    
C34   O10   A    
C49   C72   A    
C2    C44   A    
C6    H34   S    
C61   C86   A    
C9    H7    S    
C63   C90   A    
C19   C42   A    
C38   C70   A    
C94   N10   S    
C3    C24   A    
C3    C85   A    
C32   O13   A    
C38   C42   A    
Br10  C72   S    
C95   C103  A    
C14   N11   S    
Br5   C66   S    
Br18  C62   S    
C55   C104  A    
C29   O18   A    
C33   O9    A    
C17   H38   S    
Br2   C63   S    
C46   C73   A    
C90   C108  A    
O23   Zn5   S    
C64   C104  A    
O3    Zn2   S    
C20   C106  A    
C16   H35   S    
C57   C76   A    
H5    N7    S    
