data_mof_unit_52605.cif
_audit_creation_date              2012-12-10T19:11:32-0500
_audit_creation_method            fapswitch 2.2
_symmetry_space_group_name_H-M    P1
_symmetry_Int_Tables_number       1
_space_group_crystal_system       triclinic
_cell_length_a                    10.646031
_cell_length_b                    9.758891
_cell_length_c                    10.501039
_cell_angle_alpha                 90.229915
_cell_angle_beta                  90.824252
_cell_angle_gamma                 89.964621
_cell_volume                      1090.86739012

loop_
_atom_site_label
_atom_site_type_symbol
_atom_type_description
_atom_site_fract_x
_atom_site_fract_y
_atom_site_fract_z
_atom_type_partial_charge
C1    C     C_R   0.257744 0.500271 0.500020 0.863020
C2    C     C_3   0.500094 0.497719 0.122521 -0.181947
C3    C     C_3   0.071159 0.650486 0.495741 -0.397255
C4    C     C_3   0.074590 0.432689 0.623950 -0.382376
C5    C     C_3   0.928529 0.650922 0.494407 0.424605
C6    C     C_3   0.930127 0.433026 0.624533 0.392912
C7    C     C_3   0.070160 0.420966 0.383142 -0.433319
C8    C     C_3   0.121252 0.501103 0.500608 -0.040935
C9    C     C_3   0.878793 0.500979 0.500439 -0.101181
C10   C     C_3   0.926135 0.420956 0.382771 -0.286923
C11   C     C_3   0.394896 0.081852 0.415614 0.945724
C12   C     C_3   0.393792 0.917873 0.417284 0.938385
C13   C     C_3   0.620727 0.080780 0.450814 0.392831
C14   C     C_3   0.620058 0.918828 0.449162 0.476025
C15   C     C_3   0.483682 0.081423 0.627525 -0.500498
C16   C     C_3   0.485369 0.919599 0.627764 -0.554422
C17   C     C_R   0.500425 0.499482 0.257368 0.922112
C18   C     C_R   0.742398 0.500205 0.500378 0.893858
C19   C     C_R   0.500062 0.500377 0.742435 0.927681
C20   C     C_3   0.387242 0.542629 0.040641 -0.369373
C21   C     C_3   0.522559 0.370053 0.039923 -0.248409
C22   C     C_3   0.411154 0.416728 0.956173 0.690783
C23   C     C_3   0.500715 0.501374 0.877119 -0.169255
C24   C     C_3   0.478285 0.628891 0.959684 -0.263315
C25   C     C_3   0.613586 0.456053 0.958761 -0.364177
C26   C     C_3   0.589829 0.582148 0.043297 0.777634
H1    H     H_    0.889767 0.468529 0.293374 0.223960
H2    H     H_    0.891628 0.313291 0.383989 0.242725
H3    H     H_    0.559853 0.120037 0.691827 0.221864
H4    H     H_    0.563637 0.883338 0.690447 0.206056
H5    H     H_    0.394595 0.119174 0.669155 0.292007
H6    H     H_    0.398104 0.880251 0.671570 0.275244
H7    H     H_    0.698464 0.115324 0.515240 0.124691
H8    H     H_    0.698912 0.882641 0.511061 0.087244
H9    H     H_    0.293682 0.572923 0.076330 0.155657
H10   H     H_    0.539498 0.264682 0.075742 0.246167
H11   H     H_    0.461805 0.734364 0.923813 0.186502
H12   H     H_    0.705694 0.422801 0.921095 0.195566
H13   H     H_    0.104895 0.702567 0.408871 0.252711
H14   H     H_    0.110152 0.325574 0.630428 0.276544
H15   H     H_    0.105981 0.709733 0.580000 0.195761
H16   H     H_    0.111374 0.489084 0.709002 0.145790
H17   H     H_    0.895378 0.710573 0.578159 0.070258
H18   H     H_    0.897183 0.491693 0.708878 0.057034
H19   H     H_    0.104518 0.468044 0.293726 0.162586
H20   H     H_    0.103482 0.313049 0.386060 0.240092
N1    N     N_3   0.499750 0.138610 0.497240 -0.192627
N2    N     N_3   0.499750 0.861390 0.497240 -0.197807
O1    O     O_R   0.314910 0.616040 0.499970 -0.589894
O2    O     O_R   0.314910 0.383960 0.499970 -0.569276
O3    O     O_R   0.500080 0.616020 0.313900 -0.514583
O4    O     O_R   0.500080 0.383980 0.313900 -0.566940
O5    O     O_R   0.685320 0.616040 0.499930 -0.593973
O6    O     O_R   0.685320 0.383960 0.499930 -0.570859
O7    O     O_R   0.500150 0.616060 0.686000 -0.653071
O8    O     O_R   0.500150 0.383940 0.686000 -0.600546
Zn1   Zn    Zn3+2 0.500150 0.654960 0.499940 1.040211
Zn2   Zn    Zn3+2 0.500150 0.345040 0.499940 1.050981
F1    F     F_    0.319034 0.331964 0.905403 -0.679720
O9    O     O_3   0.410504 0.128068 0.287857 -0.573565
C27   C     C_3   0.298867 0.176928 0.229200 -0.132595
H21   H     H_    0.282751 0.285260 0.256212 0.160556
H22   H     H_    0.214763 0.114999 0.251260 0.159980
H23   H     H_    0.310548 0.173150 0.124543 0.197000
O10   O     O_3   0.405212 0.867252 0.290222 -0.553956
C28   C     C_3   0.290527 0.822437 0.234975 -0.117049
H24   H     H_    0.209585 0.889185 0.257958 0.167198
H25   H     H_    0.270670 0.715981 0.264919 0.150433
H26   H     H_    0.300024 0.822736 0.129981 0.159832
F2    F     F_    0.281601 0.127483 0.466017 -0.676209
F3    F     F_    0.281416 0.876054 0.471698 -0.688932
F4    F     F_    0.648620 0.132010 0.331615 -0.560180
F5    F     F_    0.644621 0.869383 0.328161 -0.472385
F6    F     F_    0.682012 0.667091 0.093641 -0.576776
F7    F     F_    0.885186 0.715870 0.384757 -0.575926
F8    F     F_    0.887017 0.299476 0.635528 -0.639965

loop_
_geom_bond_atom_site_label_1
_geom_bond_atom_site_label_2
_ccdc_geom_bond_type
C19   O8    A    
C10   H1    S    
C7    C10   S    
C28   H25   S    
C10   H2    S    
C1    C8    S    
C11   N1    S    
C15   N1    S    
C12   N2    S    
C17   O3    A    
C6    C9    S    
C11   F2    S    
C7    C8    S    
C21   H10   S    
C13   H7    S    
C7    H19   S    
C24   C26   S    
O6    Zn2   S    
C28   H26   S    
C16   H4    S    
C15   C16   S    
O1    Zn1   S    
C27   H22   S    
C18   O5    A    
C20   H9    S    
C20   C24   S    
C23   C24   S    
O3    Zn1   S    
C1    O2    A    
C4    C8    S    
C28   H24   S    
C5    H17   S    
C3    H13   S    
C6    H18   S    
C21   C22   S    
C2    C17   S    
C16   N2    S    
C17   O4    A    
C15   H3    S    
C2    C20   S    
O2    Zn2   S    
C7    H20   S    
C4    H14   S    
N2    Zn1   S    
C4    C6    S    
C3    C8    S    
C22   F1    S    
C13   N1    S    
O5    Zn1   S    
C14   N2    S    
C25   C26   S    
O9    C27   S    
C5    F7    S    
C27   H23   S    
C19   C23   S    
C14   F5    S    
C5    C9    S    
C25   H12   S    
C2    C21   S    
C24   H11   S    
C2    C26   S    
C15   H5    S    
O4    Zn2   S    
C12   F3    S    
C20   C22   S    
O7    Zn1   S    
C11   O9    S    
C9    C10   S    
C19   O7    A    
C21   C25   S    
C3    H15   S    
C3    C5    S    
C14   H8    S    
C11   C12   S    
C6    F8    S    
C13   F4    S    
C16   H6    S    
C12   O10   S    
N1    Zn2   S    
C4    H16   S    
C26   F6    S    
O8    Zn2   S    
C23   C25   S    
C27   H21   S    
C18   O6    A    
C9    C18   S    
O10   C28   S    
C22   C23   S    
C13   C14   S    
C1    O1    A    
