data_mof_unit_20997.cif
_audit_creation_date              2012-12-10T18:04:51-0500
_audit_creation_method            fapswitch 2.2
_symmetry_space_group_name_H-M    P1
_symmetry_Int_Tables_number       1
_space_group_crystal_system       triclinic
_cell_length_a                    10.788684
_cell_length_b                    9.657863
_cell_length_c                    17.873898
_cell_angle_alpha                 89.901284
_cell_angle_beta                  93.230858
_cell_angle_gamma                 90.087486
_cell_volume                      1859.41727908

loop_
_atom_site_label
_atom_site_type_symbol
_atom_type_description
_atom_site_fract_x
_atom_site_fract_y
_atom_site_fract_z
_atom_type_partial_charge
C1    C     C_R   0.262945 0.499847 0.500514 0.957229
C2    C     C_R   0.737416 0.500009 0.500501 0.947484
C3    C     C_1   0.484961 0.518487 0.965067 0.267526
C4    C     C_1   0.497479 0.518047 0.032281 0.264869
C5    C     C_R   0.070826 0.424774 0.556550 0.271992
C6    C     C_R   0.930677 0.573873 0.445186 0.268865
C7    C     C_R   0.940234 0.428059 0.557631 0.267869
C8    C     C_R   0.060878 0.570590 0.444073 0.271226
C9    C     C_R   0.503417 0.500926 0.355169 0.897022
C10   C     C_R   0.492508 0.500071 0.644306 0.900136
C11   C     C_R   0.871872 0.499473 0.500636 -0.158683
C12   C     C_R   0.129071 0.499834 0.501083 -0.149483
C13   C     C_R   0.501779 0.635306 0.842836 0.291645
C14   C     C_R   0.553198 0.399896 0.151183 0.271452
C15   C     C_R   0.474644 0.634054 0.153642 0.289119
C16   C     C_R   0.426900 0.399556 0.847113 0.259720
C17   C     C_R   0.473929 0.633459 0.765049 0.226118
C18   C     C_R   0.526516 0.384809 0.226878 0.259441
C19   C     C_R   0.504924 0.636098 0.231458 0.223897
C20   C     C_R   0.454136 0.382592 0.771437 0.264231
C21   C     C_R   0.474339 0.503641 0.727252 -0.333543
C22   C     C_R   0.511997 0.506567 0.271056 -0.335244
C23   C     C_R   0.402307 0.072722 0.467638 0.486850
C24   C     C_R   0.596834 0.926374 0.533433 0.499542
C25   C     C_R   0.597507 0.072821 0.532664 0.468480
C26   C     C_R   0.402931 0.926365 0.466932 0.488952
C27   C     C_R   0.470982 0.518408 0.884602 -0.251291
C28   C     C_R   0.509612 0.518041 0.112809 -0.255885
Cu1   Cu    Cu3+1 0.500000 0.640660 0.500000 1.084337
Cu2   Cu    Cu3+1 0.500000 0.359340 0.500000 1.078206
N1    N     N_R   0.500000 0.852070 0.500000 -0.342593
N2    N     N_R   0.500000 0.147930 0.500000 -0.348837
O1    O     O_R   0.319640 0.618740 0.499990 -0.551360
O2    O     O_R   0.680360 0.381260 0.500010 -0.575044
O3    O     O_R   0.680360 0.618740 0.500010 -0.552063
O4    O     O_R   0.319640 0.381260 0.499990 -0.572972
O5    O     O_R   0.500000 0.618830 0.391250 -0.556876
O6    O     O_R   0.500000 0.381170 0.608750 -0.545985
O7    O     O_R   0.500000 0.618830 0.608750 -0.574221
O8    O     O_R   0.500000 0.381170 0.391250 -0.562702
S1    S     S_3+6 0.577010 0.780568 0.885954 0.108125
O9    O     O_2   0.482038 0.873866 0.917691 -0.146077
O10   O     O_2   0.666772 0.733649 0.948254 -0.273880
O11   O     O_3   0.656177 0.867348 0.822372 -0.447055
H1    H     H_    0.714281 0.928005 0.852110 0.382820
S2    S     S_3+6 0.651831 0.280998 0.107631 0.093173
O12   O     O_2   0.577094 0.190290 0.053931 -0.197163
O13   O     O_2   0.744932 0.360441 0.065011 -0.257948
O14   O     O_3   0.727847 0.182175 0.172732 -0.424110
H2    H     H_    0.778105 0.117626 0.143938 0.393526
S3    S     S_3+6 0.390890 0.772748 0.108612 0.117035
O15   O     O_2   0.480096 0.872098 0.075605 -0.142502
O16   O     O_2   0.304220 0.717428 0.046894 -0.268581
O17   O     O_3   0.305920 0.856162 0.170306 -0.434087
H3    H     H_    0.252671 0.920514 0.139646 0.384696
S4    S     S_3+6 0.320633 0.288400 0.890614 0.089792
O18   O     O_2   0.389446 0.191581 0.943930 -0.206122
O19   O     O_2   0.233315 0.374528 0.933737 -0.250895
O20   O     O_3   0.237405 0.196475 0.825543 -0.425247
H4    H     H_    0.189524 0.129296 0.854367 0.397411
S5    S     S_3+6 0.399981 0.782097 0.723738 0.132296
O21   O     O_2   0.495301 0.874263 0.691171 -0.171180
O22   O     O_2   0.305274 0.740798 0.662870 -0.271108
O23   O     O_3   0.326130 0.871058 0.788537 -0.382052
H5    H     H_    0.264288 0.805403 0.807176 0.350738
S6    S     S_3+6 0.471577 0.220380 0.253937 0.129409
O24   O     O_2   0.557143 0.158267 0.314158 -0.178141
O25   O     O_2   0.344175 0.238376 0.281968 -0.304444
O26   O     O_3   0.458678 0.110937 0.181086 -0.337901
H6    H     H_    0.386744 0.145170 0.149471 0.363891
S7    S     S_3+6 0.560597 0.796311 0.270189 0.132724
O27   O     O_2   0.454348 0.877103 0.298465 -0.165318
O28   O     O_2   0.656729 0.775662 0.333103 -0.239376
O29   O     O_3   0.627153 0.889857 0.204008 -0.378233
H7    H     H_    0.697403 0.832556 0.188653 0.346163
S8    S     S_3+6 0.489279 0.212936 0.741681 0.135508
O30   O     O_2   0.398710 0.167579 0.679521 -0.164745
O31   O     O_2   0.618593 0.212476 0.715143 -0.292266
O32   O     O_3   0.486428 0.098819 0.812250 -0.333599
H8    H     H_    0.558577 0.123964 0.846290 0.369210
O33   O     O_3   0.301506 0.135621 0.432166 -0.604547
H9    H     H_    0.331726 0.221733 0.410629 0.390272
O34   O     O_3   0.695064 0.862286 0.571517 -0.616264
H10   H     H_    0.662266 0.780217 0.596538 0.368219
O35   O     O_3   0.698150 0.135796 0.568385 -0.587837
H11   H     H_    0.668084 0.221686 0.590087 0.407099
O36   O     O_3   0.304070 0.862332 0.429530 -0.586480
H12   H     H_    0.336338 0.779803 0.404966 0.389693
O37   O     O_3   0.143797 0.350301 0.608344 -0.666760
H13   H     H_    0.095804 0.269565 0.625041 0.376599
O38   O     O_3   0.858705 0.647635 0.392961 -0.661729
H14   H     H_    0.906528 0.729155 0.377057 0.374407
O39   O     O_3   0.877162 0.369521 0.615022 -0.687608
H15   H     H_    0.932282 0.367846 0.661206 0.363254
O40   O     O_3   0.123819 0.628707 0.386466 -0.692329
H16   H     H_    0.068959 0.628954 0.340154 0.360095

loop_
_geom_bond_atom_site_label_1
_geom_bond_atom_site_label_2
_ccdc_geom_bond_type
C2    O3    A    
S6    O25   D    
O36   H12   S    
O39   H15   S    
S1    O9    D    
C14   C18   A    
C19   S7    S    
O40   H16   S    
S8    O32   S    
C13   S1    S    
O33   H9    S    
C1    O1    A    
C14   S2    S    
O35   H11   S    
C15   C19   A    
C1    C12   S    
S2    O14   S    
Cu2   O6    S    
C24   O34   S    
S8    O31   D    
C9    C22   S    
S6    O26   S    
C6    O38   S    
Cu1   O1    S    
S4    O18   D    
C20   S8    S    
C23   C26   A    
S5    O22   D    
C17   S5    S    
S2    O12   D    
C26   O36   S    
C15   S3    S    
C8    C12   A    
C2    O2    A    
C16   C27   A    
S6    O24   D    
O20   H4    S    
S1    O10   D    
S5    O21   D    
C8    O40   S    
C2    C11   S    
C9    O5    A    
C4    C28   S    
C10   C21   S    
C7    O39   S    
S2    O13   D    
O29   H7    S    
Cu2   O2    S    
S3    O15   D    
C19   C22   A    
C24   C25   A    
C5    C12   A    
O38   H14   S    
C5    C7    A    
C6    C8    A    
C9    O8    A    
C17   C21   A    
C10   O7    A    
S3    O16   D    
S5    O23   S    
C7    C11   A    
C16   S4    S    
Cu1   Cu2   S    
O34   H10   S    
C16   C20   A    
Cu1   O7    S    
C25   O35   S    
Cu2   O8    S    
S8    O30   D    
S1    O11   S    
C3    C4    T    
C6    C11   A    
O11   H1    S    
S7    O28   D    
O17   H3    S    
C23   O33   S    
C18   C22   A    
S7    O29   S    
Cu2   O4    S    
C18   S6    S    
Cu1   O3    S    
S4    O20   S    
C13   C17   A    
C10   O6    A    
S3    O17   S    
C23   N2    A    
C3    C27   S    
C24   N1    A    
S7    O27   D    
Cu1   N1    S    
O23   H5    S    
Cu2   N2    S    
C15   C28   A    
C25   N2    A    
S4    O19   D    
O26   H6    S    
O32   H8    S    
C26   N1    A    
C20   C21   A    
O14   H2    S    
Cu1   O5    S    
C13   C27   A    
C14   C28   A    
O37   H13   S    
C5    O37   S    
C1    O4    A    
