data_mof_unit_39741.cif
_audit_creation_date              2012-12-10T19:04:48-0500
_audit_creation_method            fapswitch 2.2
_symmetry_space_group_name_H-M    P1
_symmetry_Int_Tables_number       1
_space_group_crystal_system       triclinic
_cell_length_a                    15.848692
_cell_length_b                    10.803766
_cell_length_c                    9.584624
_cell_angle_alpha                 88.904935
_cell_angle_beta                  89.383625
_cell_angle_gamma                 90.826485
_cell_volume                      1640.56224817

loop_
_atom_site_label
_atom_site_type_symbol
_atom_type_description
_atom_site_fract_x
_atom_site_fract_y
_atom_site_fract_z
_atom_type_partial_charge
C1    C     C_R   0.505268 0.262615 0.501501 0.788031
C2    C     C_3   0.082679 0.500716 0.501772 0.126292
C3    C     C_3   0.972958 0.617084 0.521864 -0.122284
C4    C     C_3   0.917044 0.501909 0.499216 0.121813
C5    C     C_3   0.030155 0.577584 0.398553 -0.208314
C6    C     C_3   0.972540 0.462687 0.375083 -0.238003
C7    C     C_1   0.174437 0.499514 0.502332 -0.011969
C8    C     C_1   0.825393 0.502063 0.498190 -0.035229
C9    C     C_R   0.499551 0.059561 0.626100 -0.005668
C10   C     C_R   0.519729 0.129687 0.506022 -0.182405
C11   C     C_R   0.556447 0.067159 0.392373 -0.004082
C12   C     C_R   0.339887 0.499574 0.500626 0.831118
C13   C     C_R   0.550487 0.937217 0.388087 -0.243300
C14   C     C_R   0.510330 0.870876 0.498402 -0.081464
C15   C     C_R   0.491002 0.933958 0.618907 0.028969
C16   C     C_3   0.417586 0.927074 0.717149 -0.475953
C17   C     C_3   0.430118 0.066279 0.734586 0.316861
C18   C     C_R   0.565131 0.553676 0.071154 0.240443
C19   C     C_R   0.440567 0.436216 0.077963 -0.099837
C20   C     C_R   0.439987 0.436274 0.929817 0.007742
C21   C     C_R   0.565480 0.552781 0.923979 0.228082
C22   C     C_3   0.594539 0.684443 0.913674 -0.531358
C23   C     C_R   0.501472 0.737613 0.498806 0.806674
C24   C     C_3   0.592531 0.686293 0.072386 -0.284754
C25   C     C_R   0.660074 0.500514 0.499382 0.821211
C26   C     C_3   0.969274 0.425094 0.603383 -0.241550
C27   C     C_3   0.025529 0.388097 0.479671 0.519208
C28   C     C_1   0.250072 0.499309 0.501989 -0.157292
C29   C     C_1   0.749804 0.501449 0.498162 -0.157219
C30   C     C_3   0.026963 0.540277 0.625113 -0.212475
Cu1   Cu    Cu3+1 0.500000 0.499980 0.640670 0.946025
Cu2   Cu    Cu3+1 0.500000 0.500020 0.359330 0.963933
H1    H     H_    0.430564 0.871071 0.812689 0.213266
H2    H     H_    0.375140 0.120437 0.699088 0.125717
H3    H     H_    0.391755 0.386536 0.136892 0.156591
H4    H     H_    0.658531 0.693725 0.865368 0.200303
H5    H     H_    0.546478 0.744911 0.866004 0.205449
H6    H     H_    0.543944 0.748386 0.115678 0.165647
H7    H     H_    0.942786 0.362655 0.686587 0.136507
H8    H     H_    0.949150 0.429613 0.273383 0.142837
H9    H     H_    0.056409 0.640534 0.315568 0.151484
H10   H     H_    0.949414 0.711776 0.539426 0.143872
H11   H     H_    0.050652 0.572714 0.726878 0.152507
H12   H     H_    0.576537 0.888996 0.299936 0.146635
H13   H     H_    0.357830 0.902503 0.663837 0.158998
N1    N     N_R   0.500530 0.500930 0.147930 -0.199689
N2    N     N_R   0.500530 0.500890 0.852020 -0.213382
O1    O     O_R   0.500000 0.319640 0.618810 -0.601573
O2    O     O_R   0.500010 0.319680 0.381230 -0.563844
O3    O     O_R   0.379070 0.499970 0.618770 -0.569499
O4    O     O_R   0.379080 0.500010 0.381190 -0.579620
O5    O     O_R   0.499990 0.680320 0.618770 -0.580415
O6    O     O_R   0.500000 0.680360 0.381190 -0.589009
O7    O     O_R   0.620920 0.499990 0.618810 -0.583326
O8    O     O_R   0.620930 0.500030 0.381230 -0.563475
O9    O     O_3   0.058056 0.269155 0.456892 -0.612076
C31   C     C_3   0.991739 0.180961 0.444437 0.047736
H14   H     H_    0.003782 0.127418 0.348613 0.168040
H15   H     H_    0.927772 0.221703 0.432692 0.128504
C32   C     C_3   0.991586 0.091869 0.570430 -0.330093
H16   H     H_    0.052953 0.043474 0.574782 0.229042
H17   H     H_    0.983841 0.144701 0.667901 0.215593
C33   C     C_3   0.920224 0.995990 0.562057 -0.926309
H18   H     H_    0.858076 0.042290 0.562234 0.260864
H19   H     H_    0.922572 0.931837 0.653790 0.254229
H20   H     H_    0.926808 0.941425 0.465580 0.257238
O10   O     O_3   0.452769 0.090517 0.875757 -0.597042
C34   C     C_3   0.535588 0.138758 0.893913 0.107130
H21   H     H_    0.534746 0.196104 0.988655 0.162335
H22   H     H_    0.556291 0.203029 0.808725 0.166020
C35   C     C_3   0.599088 0.034217 0.916658 -0.347826
H23   H     H_    0.593425 0.997696 0.025516 0.216501
H24   H     H_    0.585614 0.956270 0.846941 0.227516
C36   C     C_3   0.689550 0.078475 0.887017 -0.881232
H25   H     H_    0.697614 0.102575 0.774385 0.247579
H26   H     H_    0.733953 0.003398 0.914165 0.259562
H27   H     H_    0.705334 0.161102 0.949062 0.273267
C37   C     C_1   0.372095 0.370150 0.864981 0.336280
N3    N     N_1   0.316391 0.317298 0.815067 -0.301602
C38   C     C_1   0.676340 0.702118 0.134405 0.292148
N4    N     N_1   0.742252 0.714693 0.183422 -0.298708
C39   C     C_1   0.604675 0.133731 0.286117 0.251964
N5    N     N_1   0.644189 0.188777 0.203262 -0.315892

loop_
_geom_bond_atom_site_label_1
_geom_bond_atom_site_label_2
_ccdc_geom_bond_type
C33   H19   S    
C3    H10   S    
C18   C21   A    
C2    C7    S    
Cu1   O5    S    
C4    C8    S    
C23   O5    A    
C19   N1    A    
C26   C27   S    
C36   H26   S    
C12   C28   S    
C32   C33   S    
C18   C24   S    
C8    C29   T    
C5    C6    S    
C26   H7    S    
C31   H15   S    
C15   C16   S    
O9    C31   S    
C32   H17   S    
C24   C38   S    
Cu1   Cu2   S    
C34   H21   S    
C36   H27   S    
C24   H6    S    
C2    C27   S    
C9    C10   A    
Cu2   O8    S    
C33   H20   S    
Cu1   N2    S    
C13   C14   A    
C18   N1    A    
C23   O6    A    
C11   C39   S    
C25   C29   S    
C17   O10   S    
C36   H25   S    
O10   C34   S    
C25   O7    A    
C4    C6    S    
C35   H24   S    
C37   N3    T    
C16   C17   S    
C31   C32   S    
C22   H5    S    
C7    C28   T    
C32   H16   S    
C14   C23   S    
C3    C30   S    
Cu2   O4    S    
C16   H1    S    
C4    C26   S    
C6    C27   S    
C9    C17   S    
C26   C30   S    
Cu1   O1    S    
C22   C24   S    
C30   H11   S    
C2    C5    S    
C17   H2    S    
Cu1   O3    S    
C3    C4    S    
Cu2   O6    S    
C12   O4    A    
C5    H9    S    
C27   O9    S    
Cu2   N1    S    
C1    C10   S    
C25   O8    A    
C38   N4    T    
C3    C5    S    
C16   H13   S    
C35   C36   S    
C12   O3    A    
C1    O1    A    
C22   H4    S    
C20   C37   S    
C2    C30   S    
C19   C20   A    
C9    C15   A    
C35   H23   S    
C19   H3    S    
C11   C13   A    
C31   H14   S    
C34   C35   S    
C6    H8    S    
Cu1   O7    S    
Cu2   O2    S    
C20   N2    A    
C10   C11   A    
C33   H18   S    
C34   H22   S    
C39   N5    T    
C14   C15   A    
C21   C22   S    
C1    O2    A    
C13   H12   S    
C21   N2    A    
