data_mof_unit_31664.cif
_audit_creation_date              2012-12-11T14:13:19-0500
_audit_creation_method            fapswitch 2.2
_symmetry_space_group_name_H-M    P1
_symmetry_Int_Tables_number       1
_space_group_crystal_system       triclinic
_cell_length_a                    17.43681
_cell_length_b                    17.439627
_cell_length_c                    17.2776
_cell_angle_alpha                 90.146033
_cell_angle_beta                  90.230943
_cell_angle_gamma                 90.000555
_cell_volume                      5253.91090605

loop_
_atom_site_label
_atom_site_type_symbol
_atom_type_description
_atom_site_fract_x
_atom_site_fract_y
_atom_site_fract_z
_atom_type_partial_charge
C1    C     C_R   0.573853 0.332641 0.143646 -0.222757
C2    C     C_R   0.697541 0.606740 0.091049 -0.224013
C3    C     C_R   0.426645 0.666667 0.144233 -0.230383
C4    C     C_R   0.303313 0.390010 0.090291 -0.197392
C5    C     C_R   0.607076 0.694931 0.898301 -0.223235
C6    C     C_R   0.668616 0.420054 0.856468 -0.224847
C7    C     C_R   0.392285 0.305754 0.896647 -0.210124
C8    C     C_R   0.319237 0.590518 0.867340 -0.229075
C9    C     C_R   0.109884 0.803224 0.590219 -0.197491
C10   C     C_R   0.167366 0.073317 0.643871 -0.224014
C11   C     C_R   0.893272 0.197523 0.590839 -0.224683
C12   C     C_R   0.833358 0.926121 0.644001 -0.229724
C13   C     C_R   0.090048 0.180658 0.367503 -0.231697
C14   C     C_R   0.193938 0.893532 0.394929 -0.225109
C15   C     C_R   0.919821 0.831030 0.356401 -0.224565
C16   C     C_R   0.804492 0.109023 0.401892 -0.200859
C17   C     C_R   0.609542 0.697683 0.094936 0.173394
C18   C     C_R   0.332267 0.580762 0.146123 0.173581
C19   C     C_R   0.393800 0.301571 0.093723 0.152268
C20   C     C_R   0.668824 0.418507 0.145686 0.173232
C21   C     C_R   0.584437 0.323731 0.860579 0.171474
C22   C     C_R   0.304155 0.396099 0.894427 0.169734
C23   C     C_R   0.406975 0.683418 0.869731 0.198195
C24   C     C_R   0.695903 0.604683 0.895836 0.160956
C25   C     C_R   0.081497 0.168219 0.646026 0.173231
C26   C     C_R   0.802375 0.109490 0.595037 0.171614
C27   C     C_R   0.919314 0.831789 0.645881 0.173585
C28   C     C_R   0.198442 0.893461 0.593576 0.153388
C29   C     C_R   0.103953 0.804322 0.394319 0.160672
C30   C     C_R   0.824221 0.915975 0.360087 0.170039
C31   C     C_R   0.895153 0.196327 0.396740 0.168729
C32   C     C_R   0.183057 0.093224 0.369369 0.201283
C33   C     C_R   0.631213 0.361342 0.188759 0.083700
C34   C     C_R   0.688021 0.682614 0.104188 0.093903
C35   C     C_R   0.369906 0.637970 0.189432 0.087416
C36   C     C_R   0.316468 0.313669 0.104496 0.092892
C37   C     C_R   0.681179 0.679941 0.878333 0.096601
C38   C     C_R   0.641777 0.357565 0.815701 0.091076
C39   C     C_R   0.318649 0.321405 0.875598 0.079863
C40   C     C_R   0.342153 0.656904 0.831391 0.099141
C41   C     C_R   0.186376 0.816086 0.604071 0.093769
C42   C     C_R   0.138645 0.130179 0.689220 0.084954
C43   C     C_R   0.817479 0.188004 0.604092 0.094656
C44   C     C_R   0.862111 0.869058 0.689066 0.086758
C45   C     C_R   0.156278 0.157960 0.331401 0.101388
C46   C     C_R   0.178350 0.819577 0.374256 0.097488
C47   C     C_R   0.857736 0.858204 0.315179 0.090583
C48   C     C_R   0.819304 0.182902 0.382020 0.076499
C49   C     C_2   0.793360 0.763692 0.867740 -0.139911
C50   C     C_2   0.266935 0.652129 0.712484 -0.116164
C51   C     C_2   0.207378 0.236294 0.867192 -0.139566
C52   C     C_2   0.666596 0.270832 0.706978 -0.170640
C53   C     C_2   0.690436 0.345731 0.318489 -0.115877
C54   C     C_2   0.190389 0.278002 0.152641 -0.138879
C55   C     C_2   0.309550 0.656238 0.318198 -0.118714
C56   C     C_2   0.753753 0.804579 0.128734 -0.133888
C57   C     C_2   0.152174 0.233420 0.213007 -0.118890
C58   C     C_2   0.735548 0.294947 0.369268 -0.142467
C59   C     C_2   0.771777 0.836640 0.204195 -0.168030
C60   C     C_2   0.263374 0.708285 0.366414 -0.137437
C61   C     C_2   0.222083 0.689844 0.651710 -0.140727
C62   C     C_2   0.844860 0.808892 0.818141 -0.119372
C63   C     C_2   0.695878 0.253389 0.630489 -0.134631
C64   C     C_2   0.155628 0.189956 0.818477 -0.116059
C65   C     C_2   0.729744 0.732522 0.837244 -0.214644
C66   C     C_2   0.300811 0.693840 0.768469 -0.189977
C67   C     C_2   0.269003 0.269113 0.834991 -0.202006
C68   C     C_2   0.664662 0.341537 0.735539 -0.178841
C69   C     C_2   0.656753 0.317095 0.255262 -0.198171
C70   C     C_2   0.259330 0.256589 0.126255 -0.212306
C71   C     C_2   0.344097 0.683325 0.255188 -0.197020
C72   C     C_2   0.754419 0.729002 0.126165 -0.209903
C73   C     C_2   0.193460 0.200100 0.269453 -0.187733
C74   C     C_2   0.767067 0.231193 0.339797 -0.198014
C75   C     C_2   0.841703 0.834289 0.235025 -0.179457
C76   C     C_2   0.230827 0.770101 0.334017 -0.217279
C77   C     C_2   0.243555 0.758454 0.624698 -0.209520
C78   C     C_2   0.817203 0.843014 0.754853 -0.196353
C79   C     C_2   0.771293 0.254581 0.625758 -0.210278
C80   C     C_2   0.183416 0.155273 0.755734 -0.198812
H1    H     H_    0.535359 0.287411 0.159464 0.153525
H2    H     H_    0.751949 0.581165 0.076789 0.111621
H3    H     H_    0.464839 0.711464 0.160724 0.153826
H4    H     H_    0.247963 0.413663 0.076243 0.102828
H5    H     H_    0.586051 0.751693 0.908648 0.118025
H6    H     H_    0.710439 0.458884 0.835606 0.144761
H7    H     H_    0.413058 0.248724 0.903575 0.141356
H8    H     H_    0.266383 0.562319 0.856583 0.150471
H9    H     H_    0.085937 0.748027 0.576090 0.102867
H10   H     H_    0.212829 0.034896 0.659653 0.152270
H11   H     H_    0.918777 0.251960 0.576640 0.111456
H12   H     H_    0.788561 0.964119 0.660384 0.154284
H13   H     H_    0.061708 0.233409 0.357063 0.151166
H14   H     H_    0.250914 0.915041 0.401721 0.118635
H15   H     H_    0.958164 0.788553 0.335821 0.144436
H16   H     H_    0.747676 0.088752 0.412540 0.135860
H17   H     H_    0.810987 0.750053 0.926470 0.137403
H18   H     H_    0.266128 0.589944 0.715270 0.127154
H19   H     H_    0.191830 0.248686 0.926719 0.135944
H20   H     H_    0.658213 0.221812 0.743582 0.140343
H21   H     H_    0.688183 0.406265 0.331393 0.141224
H22   H     H_    0.166546 0.333976 0.139812 0.127582
H23   H     H_    0.311999 0.596280 0.332929 0.141017
H24   H     H_    0.715397 0.836811 0.092195 0.137706
H25   H     H_    0.089934 0.233599 0.214873 0.127787
H26   H     H_    0.748455 0.312982 0.428096 0.135955
H27   H     H_    0.722536 0.849711 0.238775 0.140027
H28   H     H_    0.250477 0.692567 0.425735 0.137631
H29   H     H_    0.165694 0.666382 0.639697 0.127442
H30   H     H_    0.905039 0.811182 0.832381 0.141199
H31   H     H_    0.662624 0.214899 0.594931 0.138074
H32   H     H_    0.095313 0.187997 0.832048 0.141459
H33   H     H_    0.713090 0.741268 0.777421 0.136711
H34   H     H_    0.298849 0.756019 0.767651 0.149777
H35   H     H_    0.283058 0.261502 0.774375 0.137832
H36   H     H_    0.683842 0.389106 0.699956 0.140026
H37   H     H_    0.647139 0.255655 0.250712 0.140708
H38   H     H_    0.279472 0.198935 0.136768 0.146571
H39   H     H_    0.353225 0.744747 0.249673 0.139982
H40   H     H_    0.797312 0.698713 0.160433 0.144324
H41   H     H_    0.255603 0.202895 0.269554 0.149371
H42   H     H_    0.759119 0.214341 0.279874 0.138388
H43   H     H_    0.888603 0.810596 0.201262 0.139209
H44   H     H_    0.238861 0.784526 0.273594 0.136955
H45   H     H_    0.301625 0.777890 0.634358 0.142917
H46   H     H_    0.755823 0.852622 0.749538 0.139328
H47   H     H_    0.802207 0.298060 0.658838 0.145215
H48   H     H_    0.244893 0.145843 0.751039 0.141906
N1    N     N_R   0.574080 0.369570 0.076720 -0.053742
N2    N     N_R   0.630430 0.574080 0.076720 -0.044471
N3    N     N_R   0.425920 0.630430 0.076720 -0.053625
N4    N     N_R   0.369570 0.425920 0.076720 -0.048061
N5    N     N_R   0.574080 0.630430 0.923280 -0.047418
N6    N     N_R   0.630430 0.425920 0.923280 -0.052141
N7    N     N_R   0.425920 0.369570 0.923280 -0.050067
N8    N     N_R   0.369570 0.574080 0.923280 -0.053127
N9    N     N_R   0.074080 0.869570 0.576720 -0.047756
N10   N     N_R   0.130430 0.074080 0.576720 -0.054218
N11   N     N_R   0.925920 0.130430 0.576720 -0.044585
N12   N     N_R   0.869570 0.925920 0.576720 -0.053354
N13   N     N_R   0.074080 0.130430 0.423280 -0.053026
N14   N     N_R   0.130430 0.925920 0.423280 -0.046655
N15   N     N_R   0.925920 0.869570 0.423280 -0.051984
N16   N     N_R   0.869570 0.074080 0.423280 -0.051492
N17   N     N_R   0.574050 0.630410 0.076720 -0.059985
N18   N     N_R   0.369590 0.574050 0.076720 -0.063278
N19   N     N_R   0.425950 0.369590 0.076720 -0.057439
N20   N     N_R   0.630410 0.425950 0.076720 -0.063358
N21   N     N_R   0.574050 0.369590 0.923280 -0.064202
N22   N     N_R   0.369590 0.425950 0.923280 -0.057189
N23   N     N_R   0.425950 0.630410 0.923280 -0.065975
N24   N     N_R   0.630410 0.574050 0.923280 -0.057784
N25   N     N_R   0.074050 0.130410 0.576720 -0.063320
N26   N     N_R   0.869590 0.074050 0.576720 -0.060084
N27   N     N_R   0.925950 0.869590 0.576720 -0.063195
N28   N     N_R   0.130410 0.925950 0.576720 -0.057333
N29   N     N_R   0.074050 0.869590 0.423280 -0.057741
N30   N     N_R   0.869590 0.925950 0.423280 -0.063428
N31   N     N_R   0.925950 0.130410 0.423280 -0.057225
N32   N     N_R   0.130410 0.074050 0.423280 -0.066964
Ni1   Ni    Ni4+2 0.500000 0.370760 0.000000 0.191162
Ni2   Ni    Ni4+2 0.629240 0.500000 0.000000 0.191069
Ni3   Ni    Ni4+2 0.500000 0.629240 0.000000 0.189724
Ni4   Ni    Ni4+2 0.370760 0.500000 0.000000 0.190451
Ni5   Ni    Ni4+2 0.000000 0.870760 0.500000 0.190793
Ni6   Ni    Ni4+2 0.129240 0.000000 0.500000 0.191028
Ni7   Ni    Ni4+2 0.000000 0.129240 0.500000 0.190940
Ni8   Ni    Ni4+2 0.870760 0.000000 0.500000 0.189512
C81   C     C_3   0.573376 0.775074 0.078663 -0.463862
C82   C     C_3   0.562672 0.825386 0.151664 -0.249399
C83   C     C_3   0.494282 0.879610 0.143213 -0.950518
H49   H     H_    0.502126 0.917314 0.092116 0.270413
H50   H     H_    0.440113 0.846779 0.136353 0.257478
H51   H     H_    0.489556 0.916168 0.195711 0.251529
H52   H     H_    0.555193 0.789791 0.204314 0.189647
H53   H     H_    0.613495 0.861769 0.161801 0.197173
H54   H     H_    0.607150 0.806477 0.034747 0.168885
H55   H     H_    0.516898 0.764800 0.050747 0.195483
C84   C     C_3   0.251910 0.552755 0.163930 -0.432956
C85   C     C_3   0.248844 0.492403 0.229862 -0.219579
C86   C     C_3   0.179672 0.502370 0.282773 -0.966543
H56   H     H_    0.187270 0.552601 0.320985 0.268359
H57   H     H_    0.126419 0.508643 0.247924 0.271644
H58   H     H_    0.173618 0.451136 0.320324 0.255148
H59   H     H_    0.242420 0.434221 0.206698 0.205402
H60   H     H_    0.302543 0.491640 0.264423 0.186195
H61   H     H_    0.217514 0.603813 0.180745 0.200807
H62   H     H_    0.223907 0.530943 0.110674 0.153822
C87   C     C_3   0.428080 0.227096 0.065321 -0.464753
C88   C     C_3   0.440448 0.167318 0.128810 -0.286924
C89   C     C_3   0.512640 0.119518 0.115443 -0.929958
H63   H     H_    0.510591 0.092033 0.057381 0.264837
H64   H     H_    0.564715 0.155928 0.119773 0.255672
H65   H     H_    0.516287 0.073821 0.159937 0.260079
H66   H     H_    0.442987 0.194055 0.187240 0.195608
H67   H     H_    0.391370 0.127546 0.125955 0.212955
H68   H     H_    0.389282 0.201714 0.021054 0.175578
H69   H     H_    0.483129 0.239917 0.036087 0.203798
C90   C     C_3   0.750760 0.443468 0.161696 -0.427404
C91   C     C_3   0.758375 0.504672 0.226759 -0.218131
C92   C     C_3   0.826173 0.490188 0.280820 -0.974499
H70   H     H_    0.815846 0.439535 0.317437 0.272771
H71   H     H_    0.879390 0.482053 0.246721 0.274124
H72   H     H_    0.834243 0.540291 0.319823 0.253804
H73   H     H_    0.770208 0.561596 0.202516 0.196729
H74   H     H_    0.704720 0.510289 0.260586 0.188265
H75   H     H_    0.783593 0.391288 0.178207 0.199979
H76   H     H_    0.778101 0.463315 0.107601 0.152756
C93   C     C_3   0.557754 0.241138 0.855149 -0.433929
C94   C     C_3   0.504959 0.222808 0.784793 -0.230596
C95   C     C_3   0.471443 0.142063 0.790415 -0.957222
H77   H     H_    0.518093 0.098832 0.786851 0.265098
H78   H     H_    0.440022 0.133901 0.845478 0.262453
H79   H     H_    0.430853 0.132394 0.741705 0.253961
H80   H     H_    0.458508 0.265275 0.778126 0.199677
H81   H     H_    0.534773 0.225757 0.729011 0.196555
H82   H     H_    0.608558 0.202973 0.854369 0.169300
H83   H     H_    0.530525 0.225300 0.910388 0.173488
C96   C     C_3   0.224907 0.427930 0.906923 -0.450478
C97   C     C_3   0.183177 0.441188 0.829437 -0.243030
C98   C     C_3   0.111192 0.489802 0.840444 -0.947224
H84   H     H_    0.070371 0.460219 0.879490 0.275923
H85   H     H_    0.126126 0.546555 0.865574 0.260571
H86   H     H_    0.082896 0.499314 0.783611 0.252690
H87   H     H_    0.221212 0.469258 0.786667 0.180724
H88   H     H_    0.167076 0.385465 0.803382 0.210337
H89   H     H_    0.191107 0.386738 0.941892 0.178214
H90   H     H_    0.228139 0.480922 0.942406 0.182546
C99   C     C_3   0.434909 0.765034 0.869116 -0.443844
C100  C     C_3   0.489026 0.782760 0.800955 -0.211234
C101  C     C_3   0.448126 0.814588 0.730826 -0.987267
H91   H     H_    0.418039 0.768002 0.699467 0.268184
H92   H     H_    0.407541 0.859965 0.749294 0.263420
H93   H     H_    0.490733 0.840072 0.690745 0.259310
H94   H     H_    0.530756 0.827301 0.819867 0.185126
H95   H     H_    0.521158 0.730939 0.782435 0.207217
H96   H     H_    0.384945 0.804583 0.869187 0.182633
H97   H     H_    0.464363 0.776719 0.924761 0.143860
C102  C     C_3   0.775019 0.571655 0.907954 -0.458864
C103  C     C_3   0.819750 0.564688 0.831554 -0.240030
C104  C     C_3   0.889690 0.512859 0.840923 -0.942186
H98   H     H_    0.929362 0.536830 0.885251 0.272979
H99   H     H_    0.871691 0.454371 0.858526 0.261779
H100  H     H_    0.920534 0.508404 0.785016 0.253035
H101  H     H_    0.783398 0.542447 0.783721 0.181329
H102  H     H_    0.838826 0.622002 0.812733 0.212168
H103  H     H_    0.807612 0.609464 0.948124 0.179162
H104  H     H_    0.770437 0.515219 0.937185 0.191177
C105  C     C_3   0.056689 0.250067 0.662400 -0.427838
C106  C     C_3   0.995802 0.257308 0.727403 -0.217754
C107  C     C_3   0.010132 0.325279 0.781280 -0.974776
H105  H     H_    0.061033 0.315318 0.818043 0.272622
H106  H     H_    0.017797 0.378480 0.747027 0.274451
H107  H     H_    0.960149 0.333131 0.820155 0.253835
H108  H     H_    0.938623 0.268627 0.703134 0.197224
H109  H     H_    0.990792 0.203671 0.761380 0.188052
H110  H     H_    0.108991 0.282717 0.679204 0.199742
H111  H     H_    0.036628 0.277807 0.608425 0.152481
C108  C     C_3   0.724721 0.073382 0.579148 -0.465449
C109  C     C_3   0.675513 0.062095 0.652580 -0.246328
C110  C     C_3   0.620850 0.994050 0.643984 -0.949523
H112  H     H_    0.582235 0.002730 0.593457 0.270675
H113  H     H_    0.653315 0.939848 0.636067 0.257484
H114  H     H_    0.585248 0.988766 0.696862 0.251382
H115  H     H_    0.711874 0.053963 0.704839 0.188357
H116  H     H_    0.639537 0.112938 0.663783 0.196805
H117  H     H_    0.692541 0.107713 0.536006 0.167893
H118  H     H_    0.734446 0.017232 0.550341 0.195240
C111  C     C_3   0.947454 0.751383 0.663471 -0.432722
C112  C     C_3   0.008190 0.748068 0.729437 -0.220276
C113  C     C_3   0.998348 0.678845 0.782315 -0.966184
H119  H     H_    0.947927 0.686190 0.819981 0.268613
H120  H     H_    0.992417 0.625592 0.747437 0.271252
H121  H     H_    0.049497 0.673030 0.820394 0.255101
H122  H     H_    0.066234 0.741535 0.706314 0.205201
H123  H     H_    0.009281 0.801699 0.764011 0.186318
H124  H     H_    0.896497 0.716898 0.680144 0.201081
H125  H     H_    0.968951 0.723612 0.610152 0.154274
C114  C     C_3   0.272865 0.928148 0.566322 -0.465850
C115  C     C_3   0.332777 0.938175 0.630379 -0.289093
C116  C     C_3   0.382801 0.008913 0.617769 -0.932965
H126  H     H_    0.410084 0.006566 0.559806 0.265018
H127  H     H_    0.347961 0.062014 0.622410 0.255781
H128  H     H_    0.428689 0.010692 0.662475 0.260559
H129  H     H_    0.305844 0.941391 0.688509 0.196849
H130  H     H_    0.370884 0.887823 0.627765 0.214622
H131  H     H_    0.297800 0.890924 0.520686 0.178338
H132  H     H_    0.260020 0.984265 0.539351 0.204623
C117  C     C_3   0.071697 0.725056 0.407060 -0.459027
C118  C     C_3   0.063982 0.679490 0.330911 -0.239673
C119  C     C_3   0.012559 0.609454 0.341149 -0.943421
H133  H     H_    0.037232 0.570371 0.385389 0.273125
H134  H     H_    0.954213 0.627411 0.359314 0.261733
H135  H     H_    0.007553 0.577989 0.285430 0.253129
H136  H     H_    0.041022 0.715215 0.283150 0.180939
H137  H     H_    0.121149 0.660430 0.311545 0.212393
H138  H     H_    0.110326 0.693134 0.446819 0.178181
H139  H     H_    0.015645 0.729499 0.437030 0.191046
C120  C     C_3   0.742721 0.945231 0.353290 -0.430580
C121  C     C_3   0.728253 0.999977 0.283864 -0.225948
C122  C     C_3   0.647850 0.034629 0.286776 -0.957256
H140  H     H_    0.604099 0.988743 0.280201 0.264847
H141  H     H_    0.637981 0.065242 0.342192 0.262563
H142  H     H_    0.640781 0.076184 0.238698 0.252536
H143  H     H_    0.771625 0.045835 0.280529 0.199778
H144  H     H_    0.733632 0.971602 0.227292 0.194311
H145  H     H_    0.702942 0.895760 0.350312 0.168227
H146  H     H_    0.726430 0.971634 0.408987 0.172217
C123  C     C_3   0.927945 0.275309 0.408743 -0.448736
C124  C     C_3   0.940365 0.316230 0.330987 -0.244085
C125  C     C_3   0.989354 0.388155 0.341216 -0.946474
H147  H     H_    0.960230 0.429576 0.380196 0.275911
H148  H     H_    0.046266 0.373350 0.366060 0.260445
H149  H     H_    0.998542 0.415682 0.284146 0.252683
H150  H     H_    0.967775 0.277689 0.288021 0.181108
H151  H     H_    0.884345 0.332217 0.305527 0.210388
H152  H     H_    0.887570 0.309802 0.444186 0.179242
H153  H     H_    0.981402 0.271879 0.443536 0.182180
C126  C     C_3   0.264569 0.065166 0.366679 -0.447353
C127  C     C_3   0.280916 0.012429 0.296723 -0.211590
C128  C     C_3   0.307581 0.055059 0.225729 -0.982752
H154  H     H_    0.257963 0.081296 0.195631 0.270570
H155  H     H_    0.350095 0.099155 0.243055 0.259313
H156  H     H_    0.335001 0.014124 0.184957 0.257003
H157  H     H_    0.327626 0.972063 0.312980 0.185067
H158  H     H_    0.229444 0.978699 0.280006 0.206558
H159  H     H_    0.304239 0.115023 0.367281 0.181139
H160  H     H_    0.277584 0.034942 0.421202 0.144186

loop_
_geom_bond_atom_site_label_1
_geom_bond_atom_site_label_2
_ccdc_geom_bond_type
C4    C36   A    
C5    C37   A    
N7    Ni1   S    
C32   C45   A    
C119  H133  S    
C53   C69   D    
C22   N22   A    
C124  H151  S    
C122  H140  S    
C116  H128  S    
C83   H50   S    
C3    N3    A    
C16   N16   A    
C1    N1    A    
C64   H32   S    
C8    N8    A    
C113  H119  S    
N3    N18   A    
C115  H129  S    
C25   C105  S    
C26   C108  S    
C56   C72   D    
C100  H95   S    
C127  H158  S    
C33   C69   S    
C2    C34   A    
C35   C71   S    
C90   C91   S    
N5    Ni3   S    
C86   H57   S    
C16   H16   S    
C89   H63   S    
C48   C74   S    
C82   H53   S    
C84   H62   S    
N11   N26   A    
C60   C76   D    
C102  H104  S    
C99   C100  S    
C54   C70   D    
N28   Ni6   S    
N11   Ni7   S    
C68   H36   S    
C20   C33   A    
C73   H41   S    
C31   C48   A    
C3    H3    S    
C103  H101  S    
C17   C34   A    
C109  H116  S    
C77   H45   S    
C121  C122  S    
N8    Ni4   S    
C122  H142  S    
C87   H68   S    
C79   H47   S    
C49   C62   S    
C65   H33   S    
C51   C64   S    
C52   C63   S    
C53   C58   S    
N17   Ni3   S    
C9    C41   A    
C56   C59   S    
C71   H39   S    
N20   Ni2   S    
C89   H65   S    
C117  H138  S    
C12   C44   A    
C13   C45   A    
C120  H145  S    
N27   Ni5   S    
N31   Ni7   S    
C101  H93   S    
C63   H31   S    
C49   H17   S    
C11   H11   S    
C128  H154  S    
C7    C39   A    
C8    C40   A    
C58   H26   S    
C55   C71   D    
C93   H82   S    
C121  H143  S    
C22   C96   S    
C14   N14   A    
C88   C89   S    
C105  H111  S    
C4    N4    A    
C5    N5    A    
C105  C106  S    
C118  H137  S    
C119  H134  S    
C110  H112  S    
C82   C83   S    
C94   H80   S    
C104  H98   S    
C57   C73   D    
C108  H118  S    
C27   C44   A    
C21   C38   A    
C61   C77   D    
C37   C65   S    
C6    C38   A    
C21   N21   A    
C96   H90   S    
C18   C35   A    
C5    H5    S    
N2    Ni2   S    
C92   H71   S    
C87   C88   S    
C81   H54   S    
C97   C98   S    
C36   C70   S    
C93   C94   S    
C106  H109  S    
C50   H18   S    
C111  H124  S    
C76   H44   S    
C115  C116  S    
N29   Ni5   S    
C107  H107  S    
C80   H48   S    
N6    N21   A    
N18   Ni4   S    
C52   H20   S    
C59   H27   S    
C84   C85   S    
C8    H8    S    
C114  H131  S    
C98   H84   S    
N14   Ni6   S    
C123  H153  S    
C3    C35   A    
C128  H156  S    
C72   H40   S    
C24   C37   A    
N1    Ni1   S    
C51   C67   D    
C23   C99   S    
C85   H60   S    
C88   H66   S    
C19   C87   S    
C15   N15   A    
C27   C111  S    
C126  H159  S    
N32   Ni6   S    
C125  H148  S    
C34   C72   S    
C58   C74   D    
N15   N30   A    
N4    N19   A    
C112  H122  S    
C62   C78   D    
C109  C110  S    
C110  H114  S    
C116  H127  S    
N7    N22   A    
N22   Ni4   S    
C6    H6    S    
N10   Ni6   S    
C104  H100  S    
C44   C78   S    
C109  H115  S    
C47   C75   S    
C20   N20   A    
C70   H38   S    
C22   C39   A    
C90   H76   S    
C115  H130  S    
C95   H79   S    
C50   C61   S    
C55   C60   S    
C54   C57   S    
C113  H121  S    
C91   H73   S    
C10   C42   A    
C102  C103  S    
C83   H49   S    
N9    Ni5   S    
N30   Ni8   S    
C107  H105  S    
C14   C46   A    
C86   H56   S    
C31   C123  S    
C98   H86   S    
C15   H15   S    
C84   H61   S    
C1    H1    S    
C23   C40   A    
C28   C41   A    
C10   N10   A    
C30   N30   A    
C102  H103  S    
C118  C119  S    
C92   H70   S    
C11   N11   A    
N15   Ni5   S    
C24   N24   A    
C9    N9    A    
C7    H7    S    
C32   C126  S    
C53   H21   S    
C114  C115  S    
C12   N12   A    
C13   N13   A    
C60   H28   S    
C82   H52   S    
C40   C66   S    
C111  C112  S    
N25   Ni7   S    
N2    N17   A    
C103  H102  S    
C64   C80   D    
N26   Ni8   S    
N5    N24   A    
C12   H12   S    
C124  H150  S    
C122  H141  S    
C27   N27   A    
C83   H51   S    
N13   Ni7   S    
C25   N25   A    
C56   H24   S    
N19   Ni1   S    
C9    H9    S    
C96   C97   S    
C29   N29   A    
C106  C107  S    
C19   N19   A    
C13   H13   S    
C17   N17   A    
C120  C121  S    
C89   H64   S    
C95   H77   S    
N3    Ni3   S    
C100  H94   S    
C101  H92   S    
C127  H157  S    
N16   N31   A    
C24   C102  S    
N10   N25   A    
C74   H42   S    
C38   C68   S    
C2    H2    S    
N21   Ni1   S    
C93   H83   S    
N14   N29   A    
C78   H46   S    
C29   C117  S    
N8    N23   A    
C85   C86   S    
C28   C114  S    
C86   H58   S    
C121  H144  S    
C124  C125  S    
C66   H34   S    
C54   H22   S    
C105  H110  S    
C25   C42   A    
C29   C46   A    
C114  H132  S    
C94   H81   S    
C97   H88   S    
C2    N2    A    
C21   C93   S    
C100  C101  S    
C30   C120  S    
C108  H117  S    
N12   N27   A    
C126  C127  S    
C10   H10   S    
C6    N6    A    
C112  C113  S    
C96   H89   S    
C99   H97   S    
C14   H14   S    
N24   Ni2   S    
C87   H69   S    
N12   Ni8   S    
C57   H25   S    
C125  H147  S    
C42   C80   S    
C81   C82   S    
C15   C47   A    
C61   H29   S    
C16   C48   A    
C46   C76   S    
C1    C33   A    
C63   C79   D    
C123  C124  S    
C49   C65   D    
N16   Ni8   S    
C75   H43   S    
C117  H139  S    
C19   C36   A    
C41   C77   S    
C17   C81   S    
C120  H146  S    
C107  H106  S    
C43   C79   S    
C55   H23   S    
C45   C73   S    
C67   H35   S    
C103  C104  S    
N1    N20   A    
C123  H152  S    
C91   C92   S    
C128  H155  S    
C4    H4    S    
C111  H125  S    
C11   C43   A    
C52   C68   D    
C88   H67   S    
C26   C43   A    
N4    Ni4   S    
C51   H19   S    
C118  H136  S    
C112  H123  S    
C30   C47   A    
C119  H135  S    
C110  H113  S    
C116  H126  S    
N6    Ni2   S    
N9    N28   A    
C104  H99   S    
C20   C90   S    
C7    N7    A    
N13   N32   A    
C62   H30   S    
C90   H75   S    
C50   C66   D    
C95   H78   S    
C18   C84   S    
N23   Ni3   S    
C92   H72   S    
C26   N26   A    
C108  C109  S    
C59   C75   D    
C81   H55   S    
C117  C118  S    
C106  H108  S    
C113  H120  S    
C23   N23   A    
C91   H74   S    
C39   C67   S    
C18   N18   A    
C127  C128  S    
C98   H85   S    
C69   H37   S    
C97   H87   S    
C85   H59   S    
C126  H160  S    
C94   C95   S    
C125  H149  S    
C101  H91   S    
C28   N28   A    
C99   H96   S    
C31   N31   A    
C32   N32   A    
