data_mof_unit_54578.cif
_audit_creation_date              2013-03-05T16:11:21-0500
_audit_creation_method            fapswitch 2.2
_symmetry_space_group_name_H-M    P1
_symmetry_Int_Tables_number       1
_space_group_crystal_system       triclinic
_cell_length_a                    10.790445
_cell_length_b                    10.038615
_cell_length_c                    11.054321
_cell_angle_alpha                 88.161625
_cell_angle_beta                  94.659313
_cell_angle_gamma                 89.093212
_cell_volume                      1192.64091932

loop_
_atom_site_label
_atom_site_type_symbol
_atom_site_description
_atom_site_fract_x
_atom_site_fract_y
_atom_site_fract_z
_atom_type_partial_charge
O1    O     O_R   0.316750 0.614620 0.499990 -0.560632
O2    O     O_R   0.316750 0.385380 0.499990 -0.566912
C1    C     C_R   0.260650 0.500171 0.506915 1.018598
O3    O     O_R   0.499970 0.614670 0.314790 -0.563691
O4    O     O_R   0.499970 0.385330 0.314790 -0.599922
C2    C     C_R   0.497448 0.502859 0.258459 1.047397
Zn1   Zn    Zn3+2 0.499980 0.653120 0.500000 1.160358
Zn2   Zn    Zn3+2 0.499980 0.346880 0.500000 1.151447
O5    O     O_R   0.683220 0.614710 0.500010 -0.605077
O6    O     O_R   0.683220 0.385290 0.500010 -0.592559
O7    O     O_R   0.500010 0.614660 0.685200 -0.551828
O8    O     O_R   0.500010 0.385340 0.685200 -0.566187
C3    C     C_R   0.738868 0.499221 0.496229 0.981705
C4    C     C_R   0.497032 0.498402 0.742340 1.004055
C5    C     C_3   0.458062 0.649678 0.061919 -0.029208
C6    C     C_3   0.399463 0.401223 0.070794 -0.026478
H1    H     H_    0.533023 0.713837 0.095914 0.228055
H2    H     H_    0.441833 0.310013 0.108254 0.234564
C7    C     C_3   0.456961 0.651022 0.919245 0.290452
C8    C     C_3   0.390389 0.394434 0.926669 0.296966
C9    C     C_3   0.635585 0.471954 0.089273 0.253725
C10   C     C_3   0.495125 0.507920 0.122513 -0.454282
C11   C     C_3   0.492841 0.498707 0.879994 -0.478107
C12   C     C_3   0.628795 0.457117 0.944009 0.275740
C13   C     C_R   0.063821 0.376067 0.518141 0.342374
C14   C     C_R   0.059140 0.620157 0.516632 0.319007
C15   C     C_R   0.936466 0.377552 0.501283 -0.088905
C16   C     C_R   0.932407 0.618135 0.498466 -0.103825
H3    H     H_    0.889029 0.283630 0.498423 0.243228
H4    H     H_    0.881684 0.711541 0.493572 0.241752
C17   C     C_R   0.870995 0.497972 0.494006 -0.134799
C18   C     C_R   0.127595 0.499015 0.516213 -0.186754
C19   C     C_R   0.585050 0.065216 0.571733 0.240552
C20   C     C_R   0.594782 0.925368 0.557929 0.267748
N1    N     N_R   0.499970 0.857200 0.499970 -0.208171
N2    N     N_R   0.499970 0.142800 0.499970 -0.217546
C21   C     C_R   0.409199 0.934921 0.432923 0.221772
C22   C     C_R   0.419750 0.076524 0.422749 0.242211
N3    N     N_R   0.301823 0.877768 0.370143 0.267910
O9    O     O_R   0.306476 0.760367 0.326974 -0.279975
O10   O     O_R   0.199475 0.947569 0.346643 -0.223025
N4    N     N_R   0.357673 0.146101 0.320335 0.253314
O11   O     O_R   0.257273 0.214940 0.333224 -0.253922
O12   O     O_R   0.377614 0.106183 0.212877 -0.255003
N5    N     N_R   0.349795 0.719256 0.103922 0.281982
O13   O     O_R   0.359044 0.847083 0.119104 -0.206035
O14   O     O_R   0.238812 0.671222 0.090156 -0.177883
N6    N     N_R   0.277667 0.394186 0.123234 0.295470
O15   O     O_R   0.203411 0.298288 0.090670 -0.168858
O16   O     O_R   0.253068 0.459937 0.218197 -0.309962
N7    N     N_R   0.332860 0.699314 0.861997 0.275474
O17   O     O_R   0.290819 0.816687 0.887435 -0.162958
O18   O     O_R   0.288489 0.655174 0.758729 -0.332286
N8    N     N_R   0.263004 0.431472 0.871871 0.259162
O19   O     O_R   0.229628 0.401452 0.760796 -0.332961
O20   O     O_R   0.182510 0.499185 0.927556 -0.207663
N9    N     N_R   0.547659 0.752547 0.881749 0.249690
O21   O     O_R   0.650686 0.775126 0.946966 -0.251307
O22   O     O_R   0.510857 0.844113 0.799999 -0.247020
N10   N     N_R   0.414162 0.252359 0.892214 0.250049
O23   O     O_R   0.445062 0.157404 0.972588 -0.217847
O24   O     O_R   0.380714 0.212215 0.783835 -0.243216
N11   N     N_R   0.725605 0.578519 0.126192 0.236015
O25   O     O_R   0.706827 0.654507 0.216285 -0.372391
O26   O     O_R   0.841571 0.563600 0.103692 -0.176487
N12   N     N_R   0.684773 0.347996 0.158222 0.236376
O27   O     O_R   0.780669 0.354307 0.237263 -0.301442
O28   O     O_R   0.632842 0.232383 0.148507 -0.287691
Br1   Br    Br    0.761797 0.542805 0.859341 -0.154216
Br2   Br    Br    0.686430 0.282311 0.905031 -0.109238
Br3   Br    Br    0.135221 0.202321 0.564525 -0.149386
Br4   Br    Br    0.122255 0.790033 0.564211 -0.143913
N13   N     N_R   0.661164 0.118880 0.669111 0.267901
O29   O     O_R   0.750191 0.198162 0.645458 -0.323012
O30   O     O_R   0.674014 0.048637 0.770517 -0.184710
N14   N     N_R   0.709337 0.859725 0.600387 0.238856
O31   O     O_R   0.710565 0.766457 0.683992 -0.256066
O32   O     O_R   0.813625 0.916505 0.580097 -0.310549

loop_
_geom_bond_atom_site_label_1
_geom_bond_atom_site_label_2
_geom_bond_distance
_ccdc_geom_bond_type
N12   O28   1.300510 A    
N11   O26   1.302735 A    
C14   C18   1.413154 A    
C9    N12   1.504529 S    
C15   H3    1.080057 S    
C14   Br4   1.919549 S    
N13   O29   1.294718 A    
C6    N6    1.480644 S    
C12   Br2   1.925956 S    
N3    O10   1.302060 A    
N5    O13   1.303793 A    
C7    N9    1.496228 S    
C5    C7    1.575861 S    
N1    C21   1.392175 A    
N14   O32   1.301788 A    
C22   N4    1.424597 S    
O4    C2    1.315137 A    
O7    C4    1.311197 A    
N9    O22   1.302355 A    
C2    C10   1.500186 S    
C19   N2    1.377725 A    
N10   O24   1.301280 A    
C20   N1    1.367205 A    
Zn2   N2    2.048693 S    
O5    C3    1.300599 A    
C5    C10   1.584608 S    
C11   C12   1.618700 S    
C13   Br3   1.932489 S    
C8    N10   1.511349 S    
Zn2   O8    2.095458 S    
C13   C18   1.422984 A    
N6    O16   1.300878 A    
N12   O27   1.302657 A    
C9    C10   1.626090 S    
N13   O30   1.301518 A    
N4    O12   1.298941 A    
O3    Zn1   2.095562 S    
C12   Br1   1.970082 S    
Zn1   O7    2.071114 S    
Zn1   O5    2.008479 S    
N5    O14   1.297377 A    
N8    O20   1.300153 A    
C15   C17   1.387222 A    
N7    O17   1.303159 A    
N14   O31   1.293455 A    
C8    N8    1.492857 S    
N3    O9    1.287362 A    
N10   O23   1.302562 A    
N7    O18   1.295801 A    
C4    C11   1.526111 S    
C7    C11   1.651429 S    
C21   C22   1.429409 A    
C8    C11   1.636673 S    
C6    C8    1.591976 S    
C19   C20   1.420171 A    
Zn2   O6    2.020459 S    
N6    O15   1.303125 A    
O8    C4    1.317701 A    
O3    C2    1.300535 A    
N4    O11   1.295841 A    
C5    N5    1.466753 S    
C19   N13   1.425155 S    
C5    H1    1.092217 S    
N8    O19   1.297497 A    
C6    C10   1.586827 S    
O1    Zn1   2.020540 S    
Zn1   N1    2.048668 S    
C3    C17   1.427785 S    
C16   C17   1.385800 A    
O2    Zn2   2.008533 S    
O6    C3    1.301200 A    
O4    Zn2   2.071224 S    
C13   C15   1.371499 A    
C14   C16   1.366502 A    
C16   H4    1.075824 S    
O2    C1    1.300502 A    
C21   N3    1.438468 S    
N9    O21   1.302018 A    
N2    C22   1.362070 A    
C1    C18   1.447912 S    
C9    N11   1.500328 S    
N11   O25   1.300548 A    
C7    N7    1.500265 S    
C6    H2    1.072619 S    
C9    C12   1.613284 S    
O1    C1    1.310029 A    
C20   N14   1.429186 S    
