data_mof_unit_19427.cif
_audit_creation_date              2012-10-26T19:18:39-0400
_audit_creation_method            fapswitch 2.2
_symmetry_space_group_name_H-M    P1
_symmetry_Int_Tables_number       1
_space_group_crystal_system       triclinic
_cell_length_a                    9.689002
_cell_length_b                    10.92396
_cell_length_c                    15.493526
_cell_angle_alpha                 89.972359
_cell_angle_beta                  74.118819
_cell_angle_gamma                 90.060269
_cell_volume                      1577.2767859

loop_
_atom_site_label
_atom_site_type_symbol
_atom_type_description
_atom_site_fract_x
_atom_site_fract_y
_atom_site_fract_z
_atom_type_partial_charge
C1    C     C_R   0.998692 0.265438 0.502898 0.556856
C2    C     C_R   0.236631 0.570235 0.045790 0.003892
C3    C     C_R   0.331650 0.526469 0.093847 0.026219
C4    C     C_R   0.917204 0.499966 0.672208 0.538779
C5    C     C_R   0.090331 0.584705 0.088479 -0.080458
C6    C     C_R   0.034231 0.554556 0.178607 0.225718
C7    C     C_R   0.273396 0.496121 0.184844 -0.157087
C8    C     C_2   0.891409 0.933539 0.507068 -0.140415
C9    C     C_2   0.010380 0.865039 0.478585 0.076253
C10   C     C_2   0.891203 0.066144 0.496412 -0.139649
C11   C     C_2   0.995780 0.133939 0.512888 -0.096924
C12   C     C_R   0.676766 0.515733 0.909104 0.031723
C13   C     C_2   0.398307 0.432575 0.553966 -0.016944
C14   C     C_2   0.554918 0.429639 0.551930 -0.019649
C15   C     C_R   0.002013 0.734530 0.495736 0.576478
C16   C     C_R   0.082566 0.501493 0.327498 0.567033
C17   C     C_R   0.872014 0.498871 0.770761 -0.000997
C18   C     C_R   0.127674 0.513567 0.228652 0.001397
C19   C     C_R   0.920367 0.463169 0.913674 -0.138117
C20   C     C_R   0.968886 0.472332 0.820604 -0.135372
C21   C     C_R   0.727793 0.520770 0.815054 -0.132781
C22   C     C_R   0.775083 0.482831 0.958068 0.046978
C23   C     C_R   0.530101 0.537712 0.955267 0.035690
C24   C     C_R   0.481002 0.514635 0.049280 0.044156
C25   C     C_R   0.583267 0.482530 0.095523 -0.115179
C26   C     C_R   0.727332 0.468084 0.050631 -0.115697
C27   C     C_R   0.431486 0.583618 0.910694 -0.130000
C28   C     C_R   0.287942 0.599622 0.955341 -0.135036
Cu1   Cu    Cu3+1 0.138640 0.500020 0.499980 0.974079
Cu2   Cu    Cu3+1 0.861360 0.499980 0.500020 0.959612
H1    H     H_    0.801668 0.442716 0.088591 0.135680
H2    H     H_    0.339358 0.458382 0.223863 0.132365
H3    H     H_    0.216194 0.634809 0.918413 0.112590
H4    H     H_    0.996076 0.438483 0.950843 0.108269
H5    H     H_    0.080966 0.455002 0.787600 0.125644
H6    H     H_    0.656278 0.537405 0.774128 0.122266
H7    H     H_    0.556686 0.470201 0.167105 0.120011
H8    H     H_    0.462131 0.611672 0.841427 0.105558
H9    H     H_    0.851994 0.492900 0.246760 0.331527
H10   H     H_    0.018295 0.618909 0.051429 0.136924
H11   H     H_    0.789449 0.891175 0.541005 0.135284
H12   H     H_    0.799722 0.108337 0.480441 0.156917
H13   H     H_    0.081405 0.091931 0.535371 0.137745
H14   H     H_    0.325467 0.374504 0.602647 0.133155
H15   H     H_    0.414635 0.551232 0.452871 0.218620
H16   H     H_    0.586525 0.366097 0.596848 0.138187
H17   H     H_    0.623503 0.561681 0.460169 0.218122
I1    I     I_    0.209397 0.927797 0.391032 -0.356346
N1    N     N_2   0.346430 0.498660 0.500980 -0.342547
N2    N     N_2   0.652550 0.498630 0.501000 -0.347183
O1    O     O_R   0.117050 0.321960 0.499980 -0.488475
O2    O     O_R   0.882890 0.321920 0.500020 -0.499785
O3    O     O_R   0.052910 0.500040 0.629810 -0.503268
O4    O     O_R   0.818750 0.499990 0.629840 -0.507397
O5    O     O_R   0.117110 0.678080 0.499980 -0.468361
O6    O     O_R   0.882950 0.678040 0.500020 -0.499243
O7    O     O_R   0.181250 0.500010 0.370160 -0.496856
O8    O     O_R   0.947090 0.499960 0.370190 -0.479273
O9    O     O_3   0.889256 0.570272 0.215651 -0.690689

loop_
_geom_bond_atom_site_label_1
_geom_bond_atom_site_label_2
_ccdc_geom_bond_type
C23   C24   A    
C11   H13   S    
Cu1   Cu2   S    
C23   C27   A    
C4    O3    A    
C10   H12   S    
Cu2   O4    S    
C19   C20   A    
C1    C11   S    
H15   N1    S    
C7    C18   A    
H9    O9    S    
C15   O6    A    
C19   C22   A    
C2    C3    A    
Cu2   N2    S    
Cu1   N1    S    
C26   H1    S    
C14   H16   S    
C21   H6    S    
C16   O8    A    
C13   C14   S    
C8    H11   S    
C1    O1    A    
C12   C23   A    
C3    C24   A    
C14   N2    D    
Cu1   O3    S    
C13   N1    D    
C4    C17   S    
Cu2   O8    S    
C8    C10   S    
Cu1   O7    S    
C28   H3    S    
H17   N2    S    
C3    C7    A    
C16   O7    A    
Cu1   O1    S    
C5    C6    A    
C6    C18   A    
C1    O2    A    
C2    C5    A    
C10   C11   D    
C27   H8    S    
C12   C21   A    
C12   C22   A    
C17   C20   A    
C24   C25   A    
C9    I1    S    
C16   C18   S    
C22   C26   A    
C5    H10   S    
C27   C28   A    
Cu2   O2    S    
C2    C28   A    
C7    H2    S    
Cu1   O5    S    
C25   H7    S    
C25   C26   A    
C4    O4    A    
C20   H5    S    
Cu2   O6    S    
C6    O9    S    
C13   H14   S    
C17   C21   A    
C9    C15   S    
C8    C9    D    
C19   H4    S    
C15   O5    A    
