data_mof_unit_41269.cif
_audit_creation_date              2012-12-11T15:48:11-0500
_audit_creation_method            fapswitch 2.2
_symmetry_space_group_name_H-M    P1
_symmetry_Int_Tables_number       1
_space_group_crystal_system       triclinic
_cell_length_a                    6.929807
_cell_length_b                    17.597798
_cell_length_c                    19.452926
_cell_angle_alpha                 108.506701
_cell_angle_beta                  89.701705
_cell_angle_gamma                 90.59348
_cell_volume                      2249.46790189

loop_
_atom_site_label
_atom_site_type_symbol
_atom_type_description
_atom_site_fract_x
_atom_site_fract_y
_atom_site_fract_z
_atom_type_partial_charge
O1    O     O_R   0.494330 0.415710 0.413720 -0.539922
O2    O     O_R   0.819360 0.430070 0.560210 -0.544084
O3    O     O_R   0.994320 0.584290 0.586280 -0.540350
C1    C     C_R   0.650150 0.414499 0.581496 0.710521
O4    O     O_R   0.823740 0.406290 0.412670 -0.542697
O5    O     O_R   0.998730 0.560340 0.437690 -0.539235
C2    C     C_R   0.654449 0.383132 0.384896 0.694048
O6    O     O_R   0.489920 0.439660 0.562310 -0.539199
O7    O     O_3   0.662330 0.550570 0.508380 -0.370163
V1    V     V_3+5 0.935370 0.490620 0.498440 1.401507
O8    O     O_R   0.328720 0.569930 0.439790 -0.543206
C3    C     C_R   0.160544 0.585148 0.418175 0.712071
O9    O     O_R   0.324340 0.593710 0.587330 -0.544592
C4    C     C_R   0.155329 0.616896 0.615329 0.684757
V2    V     V_3+5 0.435940 0.509380 0.501560 1.399557
O10   O     O_3   0.159110 0.449430 0.491620 -0.368288
C5    C     C_R   0.312399 0.723878 0.718823 -0.158489
H1    H     H_    0.453351 0.704829 0.695926 0.116396
C6    C     C_R   0.300991 0.787649 0.783767 -0.151006
H2    H     H_    0.433829 0.815866 0.808764 0.117275
C7    C     C_R   0.121060 0.814636 0.815859 -0.042237
C8    C     C_R   0.952874 0.776053 0.781107 -0.158598
H3    H     H_    0.811913 0.795095 0.803998 0.115285
C9    C     C_R   0.964280 0.712288 0.716168 -0.150604
H4    H     H_    0.831430 0.684076 0.691178 0.118931
C10   C     C_R   0.144203 0.685296 0.684072 -0.046687
C11   C     C_R   0.989128 0.630523 0.324818 -0.216314
C12   C     C_R   0.152247 0.634555 0.368837 -0.085991
C13   C     C_R   0.307230 0.685507 0.364999 -0.223388
C14   C     C_R   0.299290 0.732440 0.318548 0.090262
C15   C     C_R   0.136153 0.727219 0.274062 0.053031
C16   C     C_R   0.980969 0.675794 0.277025 0.088350
C17   C     C_R   0.451576 0.784628 0.315795 -0.182169
C18   C     C_R   0.443788 0.830372 0.268686 -0.190702
C19   C     C_R   0.283401 0.824891 0.223516 0.087716
C20   C     C_R   0.128211 0.773473 0.226496 0.053112
C21   C     C_R   0.965120 0.768204 0.181978 0.092717
C22   C     C_R   0.812764 0.716070 0.184771 -0.182227
C23   C     C_R   0.820521 0.670354 0.231896 -0.189645
C24   C     C_R   0.275360 0.870050 0.175619 -0.211804
C25   C     C_R   0.112429 0.865831 0.131468 -0.095755
C26   C     C_R   0.957346 0.814981 0.135404 -0.229162
H5    H     H_    0.869422 0.591138 0.326896 0.125517
H6    H     H_    0.433212 0.689395 0.398802 0.128845
H7    H     H_    0.577605 0.789685 0.349758 0.135216
H8    H     H_    0.564048 0.869706 0.267261 0.131471
H9    H     H_    0.395053 0.909431 0.173511 0.124261
H10   H     H_    0.831441 0.811007 0.101546 0.126898
H11   H     H_    0.686749 0.711003 0.150799 0.135323
H12   H     H_    0.700249 0.631029 0.233324 0.133274
C27   C     C_R   0.467435 0.185648 0.867429 -0.220440
C28   C     C_R   0.623344 0.135824 0.870011 -0.081254
C29   C     C_R   0.783953 0.132766 0.824636 -0.219826
C30   C     C_R   0.787752 0.177506 0.776249 0.089682
C31   C     C_R   0.630933 0.227395 0.774251 0.053440
C32   C     C_R   0.470941 0.231881 0.820429 0.087793
C33   C     C_R   0.944968 0.172822 0.729365 -0.186106
C34   C     C_R   0.948032 0.217800 0.681545 -0.185549
C35   C     C_R   0.793939 0.268293 0.679729 0.088438
C36   C     C_R   0.633954 0.272786 0.725911 0.053732
C37   C     C_R   0.477137 0.322676 0.723912 0.089628
C38   C     C_R   0.319919 0.327358 0.770795 -0.185873
C39   C     C_R   0.316848 0.282374 0.818612 -0.184443
C40   C     C_R   0.797434 0.314513 0.632720 -0.221354
C41   C     C_R   0.641529 0.364338 0.630134 -0.084304
C42   C     C_R   0.480932 0.367411 0.675519 -0.220175
H13   H     H_    0.343304 0.188837 0.902362 0.129160
H14   H     H_    0.904172 0.094264 0.825837 0.123874
H15   H     H_    0.066299 0.134674 0.729944 0.133626
H16   H     H_    0.071826 0.213495 0.646287 0.134221
H17   H     H_    0.921550 0.311306 0.597777 0.128572
H18   H     H_    0.360710 0.405909 0.674312 0.125263
H19   H     H_    0.198586 0.365504 0.770215 0.134059
H20   H     H_    0.193048 0.286675 0.853866 0.135040
C43   C     C_R   0.790593 0.257432 0.298681 -0.210309
H21   H     H_    0.911943 0.263355 0.335064 0.120415
C44   C     C_R   0.783265 0.192257 0.234428 0.015132
C45   C     C_R   0.624578 0.183225 0.186041 -0.095633
C46   C     C_R   0.475739 0.239951 0.205576 -0.133275
H22   H     H_    0.353019 0.235308 0.170205 0.161433
C47   C     C_R   0.484132 0.304196 0.270264 -0.156806
H23   H     H_    0.367522 0.346979 0.283092 0.123088
C48   C     C_R   0.642851 0.314154 0.317022 -0.058197
O11   O     O_R   0.774940 0.060470 0.937800 -0.541775
O12   O     O_R   0.440880 0.093730 0.087350 -0.521512
O13   O     O_R   0.266130 0.939630 0.062280 -0.537631
C49   C     C_R   0.610449 0.115755 0.116300 0.700267
O14   O     O_R   0.445480 0.069960 0.939820 -0.547447
O15   O     O_R   0.270770 0.915690 0.913690 -0.545384
C50   C     C_R   0.614704 0.085617 0.918607 0.699718
O16   O     O_R   0.770300 0.084410 0.086380 -0.514446
O17   O     O_3   0.602600 0.949510 0.991670 -0.381290
V3    V     V_3+5 0.329470 0.009370 0.001550 1.460361
O18   O     O_R   0.940760 0.906160 0.912560 -0.549179
C51   C     C_R   0.109835 0.883033 0.884602 0.667181
O19   O     O_R   0.936150 0.929930 0.060100 -0.544662
C52   C     C_R   0.104288 0.914949 0.081899 0.740756
V4    V     V_3+5 0.828930 0.990450 0.998310 1.439800
O20   O     O_3   0.105670 0.050490 0.008320 -0.345691
C53   C     C_2   0.939542 0.133181 0.222912 0.344823
H24   H     H_    0.948114 0.095269 0.257190 0.021718
O21   O     O_2   0.065360 0.129590 0.177932 -0.518487

loop_
_geom_bond_atom_site_label_1
_geom_bond_atom_site_label_2
_ccdc_geom_bond_type
C45   C49   S    
C24   H9    S    
C2    C48   S    
C31   C32   A    
C49   O16   A    
C17   H7    S    
C25   C26   A    
C28   C50   S    
C19   C20   A    
C1    O6    A    
C47   H23   S    
O17   V4    S    
C22   H11   S    
C29   C30   A    
C35   C40   A    
C13   C14   A    
C3    C12   S    
C5    C10   A    
C7    C8    A    
C12   C13   A    
C6    C7    A    
C21   C22   A    
C9    C10   A    
C18   C19   A    
C15   C20   A    
O5    C3    A    
C14   C15   A    
C40   H17   S    
O18   V4    S    
V2    O10   S    
C44   C53   S    
C27   C32   A    
C16   C23   A    
C21   C26   A    
O13   C52   A    
C29   H14   S    
C1    C41   S    
O17   V3    S    
O14   V3    S    
O8    V2    S    
C37   C42   A    
C42   H18   S    
C15   C16   A    
O19   V4    S    
C38   H19   S    
C18   H8    S    
O7    V1    S    
V3    O20   S    
C35   C36   A    
C31   C36   A    
O18   C51   A    
O11   C50   A    
C47   C48   A    
C5    H1    S    
O12   C49   A    
C27   C28   A    
C9    H4    S    
O4    C2    A    
C45   C46   A    
C34   H16   S    
C26   H10   S    
C7    C51   S    
C34   C35   A    
C44   C45   A    
C36   C37   A    
O15   C51   A    
O2    C1    A    
C43   H21   S    
C38   C39   A    
O13   V3    S    
O12   V3    S    
O19   C52   A    
C53   O21   D    
C17   C18   A    
C32   C39   A    
C27   H13   S    
C4    C10   S    
C43   C44   A    
O3    C4    A    
O1    V2    S    
C24   C25   A    
O14   C50   A    
C41   C42   A    
O6    V2    S    
O9    V2    S    
C13   H6    S    
C25   C52   S    
O2    V1    S    
C28   C29   A    
C46   C47   A    
C30   C31   A    
C20   C21   A    
C14   C17   A    
C11   C16   A    
O1    C2    A    
O5    V1    S    
O8    C3    A    
C39   H20   S    
O11   V4    S    
C40   C41   A    
C6    H2    S    
C19   C24   A    
O7    V2    S    
O4    V1    S    
O3    V1    S    
V1    O10   S    
C43   C48   A    
C33   C34   A    
C22   C23   A    
C53   H24   S    
C5    C6    A    
C8    C9    A    
O16   V4    S    
O15   V3    S    
C37   C38   A    
C46   H22   S    
C11   H5    S    
C23   H12   S    
V4    O20   S    
C11   C12   A    
C8    H3    S    
C33   H15   S    
O9    C4    A    
C30   C33   A    
