data_mof_unit_17014.cif
_audit_creation_date              2012-10-26T20:50:46-0400
_audit_creation_method            fapswitch 2.2
_symmetry_space_group_name_H-M    P1
_symmetry_Int_Tables_number       1
_space_group_crystal_system       triclinic
_cell_length_a                    11.054834
_cell_length_b                    10.809172
_cell_length_c                    9.589257
_cell_angle_alpha                 89.589974
_cell_angle_beta                  102.685979
_cell_angle_gamma                 88.771461
_cell_volume                      1117.54294965

loop_
_atom_site_label
_atom_site_type_symbol
_atom_type_description
_atom_site_fract_x
_atom_site_fract_y
_atom_site_fract_z
_atom_type_partial_charge
C1    C     C_R   0.502879 0.262561 0.501145 0.552180
C2    C     C_R   0.419696 0.578010 0.050685 0.112229
C3    C     C_R   0.420407 0.575500 0.902381 0.010057
C4    C     C_R   0.262909 0.501399 0.442061 0.551583
C5    C     C_R   0.568231 0.415455 0.944537 0.153003
C6    C     C_3   0.704855 0.393841 0.972004 -0.276964
C7    C     C_3   0.705791 0.396220 0.130302 -0.278926
C8    C     C_R   0.507311 0.737302 0.501030 0.540166
C9    C     C_R   0.737148 0.500068 0.558333 0.545336
C10   C     C_2   0.127868 0.506814 0.410482 -0.137092
C11   C     C_2   0.068086 0.507252 0.517647 -0.162185
C12   C     C_R   0.517481 0.129521 0.506320 -0.008585
C13   C     C_2   0.872338 0.500131 0.592160 -0.140205
C14   C     C_2   0.933545 0.514372 0.487845 -0.169964
C15   C     C_R   0.487194 0.062401 0.617242 0.014368
C16   C     C_3   0.321850 0.663262 0.091026 -0.255447
C17   C     C_3   0.324953 0.796438 0.036696 -0.479696
C18   C     C_3   0.649370 0.875822 0.305127 -0.264426
C19   C     C_3   0.771304 0.816305 0.385917 -0.414438
C20   C     C_R   0.572456 0.067204 0.407230 -0.146988
C21   C     C_R   0.579854 0.937050 0.407165 -0.013278
C22   C     C_R   0.524629 0.870410 0.505316 0.018346
C23   C     C_R   0.489577 0.935625 0.615619 0.009608
C24   C     C_3   0.376390 0.927507 0.675499 -0.275925
C25   C     C_3   0.373276 0.068060 0.676791 -0.266657
C26   C     C_R   0.568586 0.415664 0.091426 0.149509
Cu1   Cu    Cu3+1 0.499990 0.499980 0.640670 0.926420
Cu2   Cu    Cu3+1 0.500010 0.500020 0.359330 0.913601
H1    H     H_    0.391765 0.106651 0.786402 0.142000
H2    H     H_    0.884324 0.530729 0.378531 0.142980
H3    H     H_    0.421606 0.826540 0.045622 0.145783
H4    H     H_    0.273249 0.804455 0.923873 0.129330
H5    H     H_    0.278617 0.860010 0.100307 0.143694
H6    H     H_    0.228895 0.625648 0.045460 0.113054
H7    H     H_    0.328514 0.670005 0.205248 0.221660
H8    H     H_    0.733734 0.306113 0.185908 0.122688
H9    H     H_    0.753333 0.478207 0.182584 0.139804
H10   H     H_    0.077112 0.511584 0.299688 0.091739
H11   H     H_    0.754738 0.747200 0.465082 0.170764
H12   H     H_    0.357359 0.634466 0.826819 0.123684
H13   H     H_    0.818527 0.769174 0.309376 0.128362
H14   H     H_    0.833156 0.888190 0.442767 0.143396
H15   H     H_    0.592396 0.806969 0.237350 0.180410
H16   H     H_    0.672155 0.945084 0.229090 0.121222
H17   H     H_    0.398772 0.885285 0.783973 0.136517
H18   H     H_    0.729650 0.301456 0.934832 0.125120
H19   H     H_    0.754453 0.472667 0.937061 0.151318
H20   H     H_    0.118368 0.500953 0.628605 0.154267
H21   H     H_    0.922070 0.486793 0.702523 0.095046
H22   H     H_    0.608475 0.119944 0.329365 0.123761
H23   H     H_    0.296617 0.887289 0.599442 0.129691
H24   H     H_    0.291992 0.110175 0.600655 0.135648
N1    N     N_R   0.500780 0.500930 0.148120 -0.229665
N2    N     N_R   0.500790 0.500890 0.852210 -0.245940
O1    O     O_R   0.500000 0.319640 0.618810 -0.491124
O2    O     O_R   0.500010 0.319680 0.381230 -0.499212
O3    O     O_R   0.320680 0.500000 0.575130 -0.502935
O4    O     O_R   0.320690 0.500040 0.337550 -0.517918
O5    O     O_R   0.499990 0.680320 0.618770 -0.500385
O6    O     O_R   0.500000 0.680360 0.381190 -0.526478
O7    O     O_R   0.679310 0.499960 0.662450 -0.501774
O8    O     O_R   0.679320 0.500000 0.424870 -0.502136

loop_
_geom_bond_atom_site_label_1
_geom_bond_atom_site_label_2
_ccdc_geom_bond_type
C4    O3    A    
C8    C22   S    
Cu2   N1    S    
C19   H14   S    
C6    C7    S    
C18   H16   S    
C18   C21   S    
C2    C16   S    
C7    H8    S    
Cu1   O1    S    
C12   C15   A    
C10   H10   S    
C23   C24   S    
C12   C20   A    
C24   H23   S    
C15   C23   A    
C2    C3    A    
C7    H9    S    
C25   H24   S    
C8    O5    A    
Cu1   O5    S    
C18   H15   S    
C24   C25   S    
C1    C12   S    
C6    H18   S    
C11   H20   S    
C7    C26   S    
C17   H5    S    
Cu2   O2    S    
C13   H21   S    
C24   H17   S    
C19   H11   S    
C21   C22   A    
C6    H19   S    
C3    N2    A    
C1    O2    A    
C14   H2    S    
C3    H12   S    
C1    O1    A    
Cu2   O4    S    
Cu2   O6    S    
C16   H7    S    
C25   H1    S    
C5    C6    S    
C17   H3    S    
C11   C14   S    
C9    O7    A    
C15   C25   S    
C10   C11   D    
C4    C10   S    
C9    O8    A    
C26   N1    A    
C19   H13   S    
C5    N2    A    
Cu1   N2    S    
C20   C21   A    
C18   C19   S    
Cu1   O3    S    
C4    O4    A    
Cu1   Cu2   S    
C17   H4    S    
C9    C13   S    
C22   C23   A    
C20   H22   S    
Cu1   O7    S    
C16   H6    S    
C13   C14   D    
C8    O6    A    
C5    C26   A    
C16   C17   S    
C2    N1    A    
Cu2   O8    S    
