data_mof_unit_46670.cif
_audit_creation_date              2012-12-10T17:51:21-0500
_audit_creation_method            fapswitch 2.2
_symmetry_space_group_name_H-M    P1
_symmetry_Int_Tables_number       1
_space_group_crystal_system       triclinic
_cell_length_a                    14.869483
_cell_length_b                    15.045645
_cell_length_c                    17.300656
_cell_angle_alpha                 108.609448
_cell_angle_beta                  73.723099
_cell_angle_gamma                 115.718051
_cell_volume                      3258.89267125

loop_
_atom_site_label
_atom_site_type_symbol
_atom_type_description
_atom_site_fract_x
_atom_site_fract_y
_atom_site_fract_z
_atom_type_partial_charge
C1    C     C_R   0.118527 0.687065 0.512863 0.765084
C2    C     C_R   0.881597 0.313059 0.487368 0.840560
C3    C     C_R   0.186312 0.794289 0.528857 -0.114251
C4    C     C_R   0.813943 0.205978 0.472529 -0.056415
C5    C     C_R   0.229972 0.945955 0.637184 -0.204840
C6    C     C_R   0.767073 0.055698 0.363823 -0.194541
C7    C     C_R   0.157212 0.858716 0.600347 -0.197286
C8    C     C_R   0.841137 0.141835 0.399998 -0.232860
C9    C     C_R   0.287096 0.826032 0.485433 -0.084725
C10   C     C_R   0.714279 0.174537 0.518110 -0.059420
C11   C     C_R   0.359814 0.921513 0.518603 0.067643
C12   C     C_R   0.639230 0.081147 0.484390 0.001946
C13   C     C_R   0.331534 0.973260 0.599828 0.146578
C14   C     C_R   0.665992 0.029800 0.402286 0.153410
C15   C     C_R   0.461614 0.963880 0.478046 0.094328
C16   C     C_R   0.536864 0.040194 0.525102 0.045804
C17   C     C_R   0.507098 0.070065 0.611147 -0.232605
C18   C     C_R   0.490088 0.934547 0.391937 -0.150707
C19   C     C_R   0.405798 0.045400 0.645916 -0.223237
C20   C     C_R   0.590952 0.959141 0.356383 -0.197048
C21   C     C_R   0.324879 0.390754 0.331222 -0.307834
C22   C     C_R   0.675224 0.609461 0.668758 -0.309398
C23   C     C_R   0.988419 0.501848 0.652110 0.813113
C24   C     C_R   0.011493 0.498004 0.347865 0.767244
C25   C     C_R   0.227944 0.389272 0.366110 0.038675
C26   C     C_R   0.772112 0.610798 0.633876 0.045498
C27   C     C_R   0.280204 0.477776 0.497326 0.328309
C28   C     C_R   0.719818 0.522318 0.502670 0.311584
C29   C     C_R   0.375001 0.465139 0.467167 -0.038334
C30   C     C_R   0.625077 0.535075 0.532824 -0.047571
C31   C     C_R   0.401303 0.435380 0.380367 0.129947
C32   C     C_R   0.598798 0.564885 0.619621 0.118511
C33   C     C_R   0.448654 0.490958 0.518150 0.025008
C34   C     C_R   0.551435 0.509297 0.481845 0.028230
C35   C     C_R   0.577769 0.504884 0.396300 -0.205078
C36   C     C_R   0.422335 0.495399 0.603701 -0.227558
C37   C     C_R   0.504399 0.458737 0.344716 0.195217
C38   C     C_R   0.495712 0.541589 0.655279 0.196096
C39   C     C_R   0.978818 0.497823 0.737258 -0.003560
C40   C     C_R   0.020619 0.501235 0.262577 -0.020960
C41   C     C_R   0.028165 0.447274 0.754707 -0.200299
C42   C     C_R   0.971014 0.551340 0.244866 -0.214914
C43   C     C_R   0.020435 0.444199 0.835620 -0.146027
C44   C     C_R   0.978075 0.553395 0.163795 -0.150040
C45   C     C_R   0.963853 0.492481 0.900217 0.190417
C46   C     C_R   0.034280 0.504567 0.099312 0.193356
C47   C     C_R   0.911055 0.539302 0.882601 -0.167888
C48   C     C_R   0.087288 0.458133 0.117153 -0.170333
C49   C     C_R   0.918705 0.542336 0.801445 -0.168827
C50   C     C_R   0.080272 0.456083 0.198460 -0.196569
C51   C     C_2   0.959508 0.495916 0.986572 -0.227215
C52   C     C_2   0.038365 0.500555 0.012877 -0.233689
Cu1   Cu    Cu3+1 0.916740 0.524770 0.521640 0.949725
Cu2   Cu    Cu3+1 0.083260 0.475230 0.478360 0.946449
H1    H     H_    0.071908 0.409174 0.705859 0.148231
H2    H     H_    0.927592 0.589879 0.293624 0.149512
H3    H     H_    0.560637 0.112055 0.653316 0.170587
H4    H     H_    0.435169 0.891140 0.350880 0.131424
H5    H     H_    0.828898 0.641929 0.673114 0.127296
H6    H     H_    0.171158 0.358102 0.326867 0.127723
H7    H     H_    0.340108 0.360851 0.265316 0.152622
H8    H     H_    0.660024 0.639415 0.734658 0.155562
H9    H     H_    0.656047 0.535753 0.368507 0.153735
H10   H     H_    0.344066 0.464515 0.631505 0.151521
H11   H     H_    0.120143 0.417939 0.210924 0.143123
H12   H     H_    0.878963 0.580737 0.789161 0.139975
H13   H     H_    0.106790 0.498388 0.969842 0.145097
H14   H     H_    0.891099 0.498106 0.029623 0.147047
H15   H     H_    0.866060 0.575690 0.931860 0.122589
H16   H     H_    0.132013 0.421351 0.067974 0.123193
H17   H     H_    0.940204 0.593847 0.151949 0.124545
H18   H     H_    0.058168 0.403470 0.847257 0.124489
H19   H     H_    0.385758 0.077290 0.710917 0.145665
H20   H     H_    0.610125 0.927444 0.291177 0.138018
H21   H     H_    0.917357 0.165134 0.365391 0.152467
H22   H     H_    0.080372 0.835099 0.633759 0.153353
H23   H     H_    0.207740 0.988378 0.697684 0.135702
H24   H     H_    0.787867 0.013445 0.302735 0.136560
N1    N     N_R   0.208390 0.438070 0.445820 -0.176896
N2    N     N_R   0.791610 0.561930 0.554180 -0.176727
O1    O     O_R   0.020090 0.662480 0.528530 -0.579870
O2    O     O_R   0.979910 0.337520 0.471470 -0.586198
O3    O     O_R   0.160710 0.620650 0.491980 -0.576568
O4    O     O_R   0.839290 0.379350 0.508020 -0.578147
O5    O     O_R   0.921540 0.523360 0.633990 -0.575668
O6    O     O_R   0.078460 0.476640 0.366010 -0.597543
O7    O     O_R   0.062170 0.481520 0.597440 -0.598735
O8    O     O_R   0.937830 0.518480 0.402560 -0.590159
C53   C     C_3   0.538688 0.441861 0.252265 -0.886940
H25   H     H_    0.622409 0.467869 0.235459 0.228063
H26   H     H_    0.506489 0.359805 0.223156 0.227959
H27   H     H_    0.513366 0.484374 0.226561 0.242318
C54   C     C_3   0.461437 0.558542 0.747733 -0.893123
H28   H     H_    0.377720 0.532579 0.764544 0.228362
H29   H     H_    0.486727 0.516036 0.773474 0.235829
H30   H     H_    0.493675 0.640606 0.776801 0.233670
C55   C     C_3   0.731290 0.447943 0.420908 -0.794033
H31   H     H_    0.657023 0.391239 0.404760 0.197041
H32   H     H_    0.767584 0.399193 0.421664 0.264093
H33   H     H_    0.774577 0.488314 0.370591 0.211828
C56   C     C_3   0.268683 0.552130 0.579094 -0.747524
H34   H     H_    0.232371 0.600863 0.578351 0.270327
H35   H     H_    0.342931 0.608878 0.595246 0.208734
H36   H     H_    0.225404 0.511746 0.629410 0.194722
C57   C     C_2   0.687499 0.247662 0.592474 0.353347
H37   H     H_    0.619380 0.261565 0.600110 0.079313
O9    O     O_2   0.741092 0.292153 0.645896 -0.539708
C58   C     C_2   0.316615 0.751192 0.414348 0.375163
H38   H     H_    0.270474 0.709666 0.365932 0.059111
O10   O     O_2   0.388599 0.731041 0.412303 -0.520781

loop_
_geom_bond_atom_site_label_1
_geom_bond_atom_site_label_2
_ccdc_geom_bond_type
C28   C55   S    
C15   C18   A    
C54   H28   S    
C29   C33   A    
C27   C29   A    
C2    O4    A    
C4    C8    A    
C55   H31   S    
C39   C41   A    
Cu1   Cu2   S    
C9    C58   S    
C57   O9    D    
C56   H34   S    
C22   C32   A    
Cu1   O4    S    
C35   C37   A    
C3    C7    A    
Cu2   O7    S    
C40   C50   A    
C6    H24   S    
C22   H8    S    
C45   C51   S    
C1    O1    A    
C15   C16   A    
C46   C52   S    
C33   C36   A    
C58   H38   S    
C44   H17   S    
Cu1   O1    S    
C34   C35   A    
C47   H15   S    
C42   H2    S    
C11   C15   A    
C18   H4    S    
C41   H1    S    
C12   C16   A    
C16   C17   A    
C25   H6    S    
C32   C38   A    
C53   H26   S    
C26   H5    S    
C5    C13   A    
C40   C42   A    
C56   H35   S    
C23   O7    A    
C41   C43   A    
C42   C44   A    
Cu2   O3    S    
C55   H32   S    
C44   C46   A    
C45   C47   A    
C46   C48   A    
C49   H12   S    
C30   C34   A    
C51   C52   D    
C14   C20   A    
C19   H19   S    
Cu1   N2    S    
C47   C49   A    
C5    C7    A    
C13   C19   A    
C6    C8    A    
C27   C56   S    
C8    H21   S    
C26   N2    A    
C31   C37   A    
C1    C3    S    
C2    C4    S    
C3    C9    A    
C6    C14   A    
C43   C45   A    
C21   C31   A    
C33   C34   A    
C20   H20   S    
C53   H27   S    
C48   C50   A    
C24   O8    A    
C52   H13   S    
C10   C12   A    
C39   C49   A    
C12   C14   A    
C54   H30   S    
C9    C11   A    
C23   O5    A    
C2    O2    A    
C5    H23   S    
Cu2   O2    S    
C55   H33   S    
Cu2   O6    S    
Cu2   N1    S    
C43   H18   S    
C21   C25   A    
C24   C40   S    
C25   N1    A    
C21   H7    S    
C48   H16   S    
C35   H9    S    
C7    H22   S    
C1    O3    A    
C57   H37   S    
C27   N1    A    
C37   C53   S    
C36   C38   A    
C29   C31   A    
C30   C32   A    
C11   C13   A    
C24   O6    A    
C23   C39   S    
C38   C54   S    
C28   C30   A    
C17   C19   A    
C58   O10   D    
Cu1   O8    S    
C18   C20   A    
C51   H14   S    
C28   N2    A    
C50   H11   S    
C54   H29   S    
C22   C26   A    
C10   C57   S    
Cu1   O5    S    
C56   H36   S    
C53   H25   S    
C36   H10   S    
C4    C10   A    
C17   H3    S    
