data_mof_unit_27059.cif
_audit_creation_date              2012-12-10T17:42:41-0500
_audit_creation_method            fapswitch 2.2
_symmetry_space_group_name_H-M    P1
_symmetry_Int_Tables_number       1
_space_group_crystal_system       triclinic
_cell_length_a                    9.984824
_cell_length_b                    10.615614
_cell_length_c                    13.090904
_cell_angle_alpha                 92.48599
_cell_angle_beta                  70.318946
_cell_angle_gamma                 89.306193
_cell_volume                      1304.75552947

loop_
_atom_site_label
_atom_site_type_symbol
_atom_type_description
_atom_site_fract_x
_atom_site_fract_y
_atom_site_fract_z
_atom_type_partial_charge
C1    C     C_R   0.500482 0.739049 0.497215 0.826383
C2    C     C_R   0.433749 0.484184 0.983098 0.075320
C3    C     C_R   0.435416 0.540773 0.887106 0.101423
C4    C     C_R   0.526788 0.530161 0.036491 0.081640
C5    C     C_R   0.602745 0.641888 0.002537 0.165671
C6    C     C_R   0.582623 0.707494 0.918995 -0.234615
C7    C     C_R   0.503064 0.655969 0.859682 -0.216795
C8    C     C_R   0.544977 0.469968 0.123832 -0.248000
C9    C     C_R   0.704180 0.631133 0.145615 -0.162910
C10   C     C_R   0.369081 0.480853 0.820125 -0.101133
C11   C     C_R   0.450675 0.860259 0.317428 -0.174143
C12   C     C_R   0.420287 0.499598 0.703910 0.822719
C13   C     C_R   0.427916 0.921965 0.232540 -0.129742
C14   C     C_R   0.431289 0.052899 0.231429 -0.115685
C15   C     C_R   0.457380 0.122520 0.315237 -0.140393
C16   C     C_R   0.478961 0.061415 0.402691 0.100179
C17   C     C_R   0.476014 0.929476 0.403678 0.087702
C18   C     C_R   0.502632 0.871161 0.490101 -0.077459
C19   C     C_R   0.536160 0.939144 0.571069 -0.210643
C20   C     C_R   0.538412 0.067698 0.570298 -0.194731
C21   C     C_R   0.507212 0.127924 0.488528 -0.073633
C22   C     C_R   0.801553 0.676597 0.635002 -0.088029
C23   C     C_R   0.502145 0.260722 0.496665 0.881090
C24   C     C_R   0.845769 0.769431 0.694032 -0.183353
C25   C     C_R   0.982050 0.763898 0.698861 -0.183298
C26   C     C_R   0.077688 0.669628 0.639332 -0.110787
C27   C     C_R   0.040981 0.582750 0.569599 0.139662
C28   C     C_R   0.897166 0.583748 0.569114 0.075600
C29   C     C_R   0.964673 0.425672 0.427034 0.464930
C30   C     C_R   0.105096 0.423992 0.430901 -0.169542
C31   C     C_R   0.578998 0.500428 0.296435 0.857667
C32   C     C_R   0.694455 0.689041 0.055045 -0.214734
C33   C     C_R   0.623538 0.525281 0.182572 -0.011746
C34   C     C_R   0.276492 0.382199 0.858610 -0.196404
C35   C     C_R   0.258879 0.336739 0.960102 -0.103392
C36   C     C_R   0.339806 0.384027 0.020711 -0.160837
H1    H     H_    0.763056 0.675889 0.192575 0.170793
H2    H     H_    0.449911 0.758517 0.313758 0.160295
H3    H     H_    0.408965 0.867905 0.166921 0.149348
H4    H     H_    0.414924 0.100660 0.164976 0.137658
H5    H     H_    0.462687 0.223772 0.309740 0.135643
H6    H     H_    0.692995 0.682075 0.640975 0.187070
H7    H     H_    0.773528 0.845922 0.736717 0.131998
H8    H     H_    0.014212 0.833494 0.748306 0.145466
H9    H     H_    0.180439 0.668928 0.647541 0.195848
H10   H     H_    0.629422 0.798389 0.899559 0.137126
H11   H     H_    0.188033 0.364986 0.373714 0.208906
H12   H     H_    0.752358 0.774384 0.029693 0.147708
H13   H     H_    0.490015 0.385267 0.154152 0.126373
H14   H     H_    0.223848 0.335874 0.807787 0.157073
H15   H     H_    0.324508 0.342086 0.097128 0.165001
H16   H     H_    0.187816 0.260032 0.989396 0.146205
H17   H     H_    0.491647 0.707808 0.793551 0.116689
H18   H     H_    0.557788 0.892486 0.636185 0.129142
N1    N     N_R   0.856860 0.501200 0.500990 -0.181566
N2    N     N_R   0.142450 0.501280 0.501020 -0.151778
O1    O     O_R   0.385310 0.683220 0.500000 -0.634856
O2    O     O_R   0.614640 0.683250 0.500010 -0.634386
O3    O     O_R   0.328400 0.499950 0.653610 -0.627945
O4    O     O_R   0.557730 0.499970 0.653620 -0.623019
O5    O     O_R   0.385360 0.316750 0.499990 -0.627376
O6    O     O_R   0.614690 0.316780 0.500000 -0.553341
O7    O     O_R   0.442270 0.500030 0.346380 -0.631482
O8    O     O_R   0.671600 0.500050 0.346390 -0.526134
Zn1   Zn    Zn3+2 0.346880 0.499980 0.499990 0.930781
Zn2   Zn    Zn3+2 0.653120 0.500020 0.500010 1.012948
H19   H     H_    0.560961 0.120713 0.635088 0.148731
S1    S     S_3+6 0.949259 0.347421 0.308650 0.021531
O9    O     O_2   0.819419 0.269656 0.331234 -0.291103
O10   O     O_2   0.947444 0.444665 0.229029 -0.308970
O11   O     O_3   0.091539 0.250120 0.250422 -0.621368
H20   H     H_    0.073499 0.207391 0.187738 0.373009

loop_
_geom_bond_atom_site_label_1
_geom_bond_atom_site_label_2
_ccdc_geom_bond_type
C22   H6    S    
C11   H2    S    
C2    C4    A    
C24   C25   A    
O7    Zn1   S    
C16   C21   A    
C1    O1    A    
C29   S1    S    
C32   H12   S    
C20   H19   S    
C19   C20   A    
C9    C32   A    
C23   O5    A    
C4    C8    A    
C5    C32   A    
C31   C33   S    
C2    C3    A    
C1    C18   S    
O4    Zn2   S    
O11   H20   S    
C10   C34   A    
C3    C10   A    
C22   C28   A    
C1    O2    A    
O3    Zn1   S    
C9    C33   A    
C11   C13   A    
C15   H5    S    
C26   C27   A    
C29   C30   A    
C36   H15   S    
C10   C12   S    
S1    O11   S    
C31   O8    A    
C19   H18   S    
C9    H1    S    
C28   N1    A    
O2    Zn2   S    
C17   C18   A    
C6    C7    A    
C3    C7    A    
C8    C33   A    
C21   C23   S    
C6    H10   S    
C5    C6    A    
C22   C24   A    
C34   H14   S    
C13   H3    S    
C7    H17   S    
C14   H4    S    
C15   C16   A    
C12   O4    A    
O5    Zn1   S    
C30   H11   S    
C31   O7    A    
N1    Zn2   S    
C20   C21   A    
C25   H8    S    
S1    O10   D    
C34   C35   A    
C2    C36   A    
C35   H16   S    
C24   H7    S    
O6    Zn2   S    
C27   N2    A    
C18   C19   A    
C14   C15   A    
C29   N1    A    
C26   H9    S    
C25   C26   A    
C13   C14   A    
C12   O3    A    
C30   N2    A    
C8    H13   S    
S1    O9    D    
C23   O6    A    
C11   C17   A    
N2    Zn1   S    
C16   C17   A    
O1    Zn1   S    
C4    C5    A    
C27   C28   A    
C35   C36   A    
O8    Zn2   S    
