data_mof_unit_24384.cif
_audit_creation_date              2012-12-11T15:27:40-0500
_audit_creation_method            fapswitch 2.2
_symmetry_space_group_name_H-M    P1
_symmetry_Int_Tables_number       1
_space_group_crystal_system       triclinic
_cell_length_a                    22.998032
_cell_length_b                    7.291384
_cell_length_c                    15.149319
_cell_angle_alpha                 89.999862
_cell_angle_beta                  107.535272
_cell_angle_gamma                 90.00036
_cell_volume                      2422.30524295

loop_
_atom_site_label
_atom_site_type_symbol
_atom_type_description
_atom_site_fract_x
_atom_site_fract_y
_atom_site_fract_z
_atom_type_partial_charge
O1    O     O_R   0.711000 0.648610 0.341170 -0.532308
O2    O     O_R   0.289000 0.351390 0.658830 -0.534342
O3    O     O_R   0.789000 0.148610 0.158830 -0.532305
O4    O     O_R   0.211000 0.851390 0.841170 -0.534342
O5    O     O_R   0.829650 0.322030 0.336650 -0.537202
O6    O     O_R   0.170350 0.677970 0.663350 -0.538937
O7    O     O_R   0.670350 0.822030 0.163350 -0.537194
O8    O     O_R   0.329650 0.177970 0.836650 -0.538938
C1    C     C_R   0.854289 0.485847 0.356791 0.726737
C2    C     C_R   0.145733 0.514112 0.643136 0.727167
C3    C     C_R   0.645711 0.985846 0.143209 0.726724
C4    C     C_R   0.354267 0.014113 0.856864 0.727169
O9    O     O_R   0.713950 0.319280 0.352070 -0.538043
O10   O     O_R   0.286050 0.680720 0.647930 -0.535845
O11   O     O_R   0.786050 0.819280 0.147930 -0.538054
O12   O     O_R   0.213950 0.180720 0.852070 -0.535845
O13   O     O_R   0.672470 0.142870 0.174360 -0.534502
O14   O     O_R   0.327530 0.857130 0.825640 -0.532557
O15   O     O_R   0.827530 0.642870 0.325640 -0.534486
O16   O     O_R   0.172470 0.357130 0.674360 -0.532557
C5    C     C_R   0.701637 0.487733 0.376190 0.680993
C6    C     C_R   0.298371 0.512821 0.623810 0.681317
C7    C     C_R   0.798361 0.987734 0.123808 0.681006
C8    C     C_R   0.201628 0.012820 0.876188 0.681316
O17   O     O_3   0.736530 0.478650 0.191680 -0.380607
O18   O     O_3   0.263470 0.521350 0.808320 -0.380599
O19   O     O_3   0.763470 0.978650 0.308320 -0.380563
O20   O     O_3   0.236530 0.021350 0.691680 -0.380609
V1    V     V_3+5 0.752500 0.206170 0.260820 1.402106
V2    V     V_3+5 0.247500 0.793830 0.739180 1.399261
V3    V     V_3+5 0.747500 0.706170 0.239180 1.402110
V4    V     V_3+5 0.252500 0.293830 0.760820 1.399263
C9    C     C_R   0.827775 0.000180 0.050924 -0.026529
C10   C     C_R   0.172087 0.010711 0.949119 -0.027512
C11   C     C_R   0.672220 0.500181 0.449070 -0.026528
C12   C     C_R   0.327910 0.510712 0.550876 -0.027507
C13   C     C_R   0.821254 0.051236 0.890841 -0.123283
C14   C     C_R   0.177688 0.071090 0.108112 -0.123565
C15   C     C_R   0.678736 0.551259 0.609149 -0.123286
C16   C     C_R   0.322304 0.571044 0.391876 -0.123557
C17   C     C_R   0.792827 0.018189 0.958547 -0.184689
C18   C     C_R   0.206628 0.038895 0.041009 -0.182811
C19   C     C_R   0.707167 0.518212 0.541447 -0.184749
C20   C     C_R   0.293366 0.538857 0.458984 -0.182830
C21   C     C_R   0.891130 0.015392 0.075469 -0.186250
C22   C     C_R   0.108517 0.015480 0.924493 -0.187541
C23   C     C_R   0.608864 0.515387 0.424520 -0.186235
C24   C     C_R   0.391479 0.515509 0.575499 -0.187535
C25   C     C_R   0.920679 0.063880 0.009560 0.049578
C26   C     C_R   0.078240 0.066241 0.989228 0.049784
C27   C     C_R   0.579313 0.563886 0.490425 0.049578
C28   C     C_R   0.421752 0.566253 0.510757 0.049776
C29   C     C_R   0.885069 0.072667 0.915159 -0.004932
C30   C     C_R   0.113650 0.084765 0.083362 -0.004933
C31   C     C_R   0.614921 0.572683 0.584827 -0.004926
C32   C     C_R   0.386341 0.584743 0.416623 -0.004925
C33   C     C_R   0.984867 0.094714 0.034467 -0.082277
C34   C     C_R   0.013754 0.092190 0.963571 -0.082209
C35   C     C_R   0.515124 0.594713 0.465514 -0.082269
C36   C     C_R   0.486237 0.592215 0.536409 -0.082207
C37   C     C_R   0.976957 0.125780 0.870669 0.126557
C38   C     C_R   0.021268 0.137062 0.126530 0.127312
C39   C     C_R   0.523032 0.625834 0.629308 0.126525
C40   C     C_R   0.478721 0.637035 0.373449 0.127310
C41   C     C_R   0.913313 0.108151 0.846741 0.392048
C42   C     C_R   0.085005 0.123922 0.150887 0.392020
C43   C     C_R   0.586675 0.608174 0.653242 0.392029
C44   C     C_R   0.414985 0.623890 0.349094 0.392019
H1    H     H_    0.083632 0.980967 0.854128 0.103618
H2    H     H_    0.916540 0.986655 0.146341 0.102511
H3    H     H_    0.416367 0.481026 0.645867 0.103606
H4    H     H_    0.583457 0.486641 0.353648 0.102512
H5    H     H_    0.255987 0.038537 0.060492 0.104308
H6    H     H_    0.743602 0.007523 0.938977 0.106007
H7    H     H_    0.244007 0.538472 0.439502 0.104310
H8    H     H_    0.756393 0.507569 0.561019 0.106030
H9    H     H_    0.792931 0.062433 0.819582 0.149378
H10   H     H_    0.205807 0.090333 0.178999 0.149225
H11   H     H_    0.707057 0.562469 0.680409 0.149401
H12   H     H_    0.294184 0.590257 0.320988 0.149223
C45   C     C_1   0.416721 0.006710 0.918881 -0.194701
C46   C     C_1   0.583214 0.993046 0.081331 -0.192635
C47   C     C_1   0.083279 0.506709 0.581119 -0.194704
C48   C     C_1   0.916786 0.493047 0.418669 -0.192669
C49   C     C_1   0.469097 0.002148 0.970126 0.002592
C50   C     C_1   0.530816 0.997478 0.030158 0.003189
C51   C     C_1   0.030902 0.502147 0.529874 0.002596
C52   C     C_1   0.969184 0.497478 0.469842 0.003168
O21   O     O_3   0.878334 0.142292 0.756418 -0.561179
C53   C     C_3   0.875973 0.981955 0.702893 0.078305
H13   H     H_    0.840631 0.887474 0.713384 0.119253
H14   H     H_    0.920441 0.907443 0.721132 0.111382
C54   C     C_3   0.859049 0.035656 0.600786 -0.281385
H15   H     H_    0.813341 0.101664 0.579400 0.196297
H16   H     H_    0.892933 0.136180 0.590945 0.205049
C55   C     C_3   0.858247 0.869021 0.539527 -0.798287
H17   H     H_    0.903194 0.798793 0.560899 0.224121
H18   H     H_    0.848718 0.914100 0.466660 0.251146
H19   H     H_    0.822244 0.771188 0.543922 0.220747
O22   O     O_3   0.119543 0.166596 0.240397 -0.560611
C56   C     C_3   0.123593 0.010204 0.297158 0.079817
H20   H     H_    0.159989 0.917551 0.288677 0.118616
H21   H     H_    0.079949 0.931541 0.280438 0.110666
C57   C     C_3   0.139779 0.071944 0.398027 -0.291392
H22   H     H_    0.184620 0.143142 0.417985 0.196576
H23   H     H_    0.104630 0.170115 0.405771 0.205915
C58   C     C_3   0.142668 0.909621 0.462726 -0.786475
H24   H     H_    0.098728 0.833789 0.442764 0.220871
H25   H     H_    0.151326 0.960618 0.534459 0.251241
H26   H     H_    0.180071 0.815005 0.460663 0.221166
O23   O     O_3   0.621652 0.642259 0.743572 -0.561183
C59   C     C_3   0.623992 0.481884 0.797062 0.078288
H27   H     H_    0.659244 0.387226 0.786426 0.119193
H28   H     H_    0.579481 0.407621 0.778909 0.111484
C60   C     C_3   0.641067 0.535444 0.899199 -0.281372
H29   H     H_    0.686841 0.601049 0.920509 0.196259
H30   H     H_    0.607309 0.636260 0.909175 0.205083
C61   C     C_3   0.641772 0.368806 0.960413 -0.798398
H31   H     H_    0.596734 0.299095 0.939171 0.224160
H32   H     H_    0.651482 0.413772 0.033326 0.251232
H33   H     H_    0.677611 0.270561 0.955805 0.220683
O24   O     O_3   0.380444 0.666562 0.259585 -0.560611
C62   C     C_3   0.376399 0.510178 0.202819 0.079825
H34   H     H_    0.339989 0.417546 0.211272 0.118611
H35   H     H_    0.420037 0.431484 0.219558 0.110656
C63   C     C_3   0.360240 0.571941 0.101956 -0.291386
H36   H     H_    0.315400 0.643141 0.081974 0.196570
H37   H     H_    0.395397 0.670116 0.094243 0.205927
C64   C     C_3   0.357368 0.409632 0.037254 -0.786454
H38   H     H_    0.401307 0.333798 0.057238 0.220865
H39   H     H_    0.348730 0.460646 0.965527 0.251222
H40   H     H_    0.319958 0.315014 0.039286 0.221166
N1    N     N_3   0.000624 0.213347 0.803541 -0.637437
H41   H     H_    0.006924 0.116406 0.756498 0.218601
H42   H     H_    0.040951 0.284682 0.835051 0.238848
N2    N     N_3   0.996769 0.228688 0.191652 -0.636909
H43   H     H_    0.991508 0.135316 0.240970 0.218818
H44   H     H_    0.955704 0.295086 0.158648 0.239362
N3    N     N_3   0.499365 0.713462 0.696420 -0.637405
H45   H     H_    0.493062 0.616563 0.743479 0.218610
H46   H     H_    0.459038 0.784784 0.664896 0.238845
N4    N     N_3   0.503220 0.728647 0.308320 -0.636920
H47   H     H_    0.508482 0.635264 0.259008 0.218817
H48   H     H_    0.544283 0.795058 0.341320 0.239362

loop_
_geom_bond_atom_site_label_1
_geom_bond_atom_site_label_2
_ccdc_geom_bond_type
O17   V3    S    
C47   C51   T    
C51   C52   S    
O1    C5    A    
C54   H15   S    
O19   V1    S    
C9    C21   A    
O3    C7    A    
O23   C59   S    
C10   C18   A    
O4    V2    S    
O15   V3    S    
C57   H23   S    
C53   H13   S    
C37   N1    S    
C33   C38   A    
C49   C50   S    
O7    C3    A    
C35   C40   A    
C56   H20   S    
C36   C39   A    
C40   C44   A    
O9    V1    S    
C54   C55   S    
C14   C18   A    
O4    C8    A    
C62   H35   S    
C42   O22   S    
C60   H29   S    
C55   H19   S    
C2    C47   S    
O1    V3    S    
O13   V1    S    
C31   C43   A    
C7    C9    S    
O2    V4    S    
C38   N2    S    
O3    V1    S    
C61   H31   S    
C57   H22   S    
C22   H1    S    
C28   C36   A    
C17   H6    S    
C1    O15   A    
C15   C31   A    
C2    O16   A    
C60   H30   S    
C55   H18   S    
O2    C6    A    
C58   H24   S    
C16   H12   S    
C10   C22   A    
C11   C19   A    
C16   C20   A    
C64   H40   S    
C13   C29   A    
C34   C37   A    
O11   C7    A    
C11   C23   A    
C35   C36   A    
O12   C8    A    
C58   H25   S    
O10   V2    S    
C59   H28   S    
C59   H27   S    
O5    V1    S    
C3    C46   S    
C39   C43   A    
O7    V3    S    
C38   C42   A    
O8    V4    S    
C62   H34   S    
N2    H44   S    
C44   O24   S    
O18   V4    S    
C62   C63   S    
C15   C19   A    
C14   H10   S    
C63   C64   S    
C16   C32   A    
C46   C50   T    
C13   H9    S    
C8    C10   S    
C61   H33   S    
C26   C34   A    
C20   H7    S    
C41   O21   S    
O5    C1    A    
C53   H14   S    
C14   C30   A    
C21   C25   A    
O8    C4    A    
C60   C61   S    
C55   H17   S    
O9    C5    A    
C26   C30   A    
O14   V2    S    
C43   O23   S    
O6    V2    S    
C56   C57   S    
N1    H41   S    
C58   H26   S    
N4    H48   S    
C12   C20   A    
C27   C35   A    
C24   H3    S    
C29   C41   A    
C53   C54   S    
C64   H38   S    
O16   V4    S    
C19   H8    S    
C3    O13   A    
C18   H5    S    
C63   H37   S    
C21   H2    S    
C39   N3    S    
C48   C52   T    
N2    H43   S    
O6    C2    A    
C25   C33   A    
C23   C27   A    
N3    H45   S    
O11   V3    S    
C30   C42   A    
O12   V4    S    
C6    C12   S    
C22   C26   A    
C56   H21   S    
C9    C17   A    
O10   C6    A    
O20   V2    S    
C5    C11   S    
O24   C62   S    
C32   C44   A    
N3    H46   S    
C33   C34   A    
C40   N4    S    
C63   H36   S    
C25   C29   A    
O22   C56   S    
C4    C45   S    
C12   C24   A    
C27   C31   A    
C57   C58   S    
C13   C17   A    
C61   H32   S    
C23   H4    S    
C1    C48   S    
C37   C41   A    
C24   C28   A    
C54   H16   S    
C4    O14   A    
N1    H42   S    
N4    H47   S    
O21   C53   S    
C59   C60   S    
C45   C49   T    
C28   C32   A    
C15   H11   S    
C64   H39   S    
