data_mof_unit_7162.cif
_audit_creation_date              2012-12-10T19:05:17-0500
_audit_creation_method            fapswitch 2.2
_symmetry_space_group_name_H-M    P1
_symmetry_Int_Tables_number       1
_space_group_crystal_system       triclinic
_cell_length_a                    9.546104
_cell_length_b                    10.861848
_cell_length_c                    17.236687
_cell_angle_alpha                 90.729987
_cell_angle_beta                  85.813582
_cell_angle_gamma                 91.023282
_cell_volume                      1782.0731117

loop_
_atom_site_label
_atom_site_type_symbol
_atom_type_description
_atom_site_fract_x
_atom_site_fract_y
_atom_site_fract_z
_atom_type_partial_charge
C1    C     C_R   0.501243 0.737701 0.502254 0.857067
C2    C     C_R   0.347896 0.502562 0.779157 -0.181621
C3    C     C_R   0.459655 0.614897 0.150182 0.451873
C4    C     C_R   0.453204 0.605711 0.231486 0.335795
C5    C     C_R   0.601460 0.424156 0.219943 0.423946
C6    C     C_R   0.607625 0.433595 0.139286 -0.312573
C7    C     C_R   0.537742 0.528030 0.104453 -0.128636
C8    C     C_2   0.454674 0.460814 0.981981 -0.316443
C9    C     C_2   0.544782 0.531964 0.019825 0.035004
C10   C     C_R   0.526378 0.511676 0.266011 -0.303209
C11   C     C_R   0.377047 0.933337 0.519075 0.074868
C12   C     C_R   0.481843 0.492966 0.650071 0.789046
C13   C     C_R   0.503672 0.870852 0.511800 -0.198099
C14   C     C_R   0.630254 0.939327 0.517444 0.474385
C15   C     C_R   0.626560 0.068183 0.515304 -0.294596
C16   C     C_R   0.498742 0.129176 0.510440 -0.167007
C17   C     C_R   0.374090 0.060048 0.518945 0.124553
C18   C     C_3   0.247598 0.058943 0.472819 -0.467487
C19   C     C_3   0.251488 0.919752 0.473015 -0.405431
C20   C     C_R   0.933938 0.457277 0.436816 0.262164
C21   C     C_R   0.918325 0.560674 0.556152 -0.061670
C22   C     C_R   0.067257 0.563434 0.555397 0.039035
C23   C     C_R   0.499010 0.262179 0.501575 0.818646
C24   C     C_R   0.081010 0.457845 0.436674 0.216534
C25   C     C_3   0.089914 0.333729 0.400007 -0.526091
C26   C     C_3   0.930655 0.332187 0.400595 -0.455996
C27   C     C_R   0.518190 0.502680 0.350302 0.920234
C28   C     C_R   0.473310 0.475200 0.734907 -0.084766
C29   C     C_R   0.588452 0.429575 0.773034 -0.035689
C30   C     C_R   0.579169 0.421790 0.853727 -0.164648
C31   C     C_R   0.457068 0.457162 0.897123 0.156321
C32   C     C_R   0.339776 0.493328 0.859881 -0.155854
Cu1   Cu    Cu3+1 0.359330 0.500020 0.500000 0.961426
Cu2   Cu    Cu3+1 0.640670 0.499980 0.500000 0.989109
H1    H     H_    0.666928 0.366889 0.103658 0.188393
H2    H     H_    0.725081 0.119259 0.513340 0.178062
H3    H     H_    0.153793 0.094601 0.507372 0.201260
H4    H     H_    0.269859 0.097888 0.413739 0.194460
H5    H     H_    0.160473 0.876709 0.507023 0.203639
H6    H     H_    0.276801 0.878938 0.414321 0.216048
H7    H     H_    0.856033 0.608408 0.601719 0.144243
H8    H     H_    0.143738 0.335745 0.340621 0.192291
H9    H     H_    0.129879 0.266840 0.439894 0.220240
H10   H     H_    0.892494 0.333512 0.341302 0.242470
H11   H     H_    0.879737 0.261860 0.439972 0.210290
H12   H     H_    0.244011 0.518740 0.893413 0.133919
H13   H     H_    0.256824 0.533557 0.751666 0.178870
H14   H     H_    0.373273 0.407679 0.014668 0.159990
H15   H     H_    0.667938 0.389540 0.883258 0.135665
N1    N     N_R   0.852130 0.499070 0.499500 -0.190503
N2    N     N_R   0.148040 0.499110 0.499500 -0.206994
O1    O     O_R   0.381190 0.680360 0.500000 -0.582268
O2    O     O_R   0.618770 0.680320 0.499990 -0.537346
O3    O     O_R   0.367430 0.500040 0.613600 -0.576503
O4    O     O_R   0.605020 0.500000 0.613590 -0.587164
O5    O     O_R   0.381230 0.319680 0.500010 -0.585958
O6    O     O_R   0.618810 0.319640 0.500000 -0.584161
O7    O     O_R   0.394980 0.500000 0.386410 -0.587212
O8    O     O_R   0.632570 0.499960 0.386400 -0.558341
C33   C     C_1   0.716265 0.386971 0.731883 0.254359
N3    N     N_1   0.818628 0.352577 0.699150 -0.291374
O9    O     O_3   0.758792 0.881865 0.513964 -0.559057
C34   C     C_3   0.814715 0.892837 0.587275 -0.304450
H16   H     H_    0.914950 0.842490 0.585063 0.176573
H17   H     H_    0.742690 0.850589 0.633666 0.159385
H18   H     H_    0.838980 0.990459 0.602198 0.163601
C35   C     C_1   0.130533 0.642360 0.611091 0.266437
N4    N     N_1   0.180048 0.707547 0.655574 -0.319678
O10   O     O_3   0.384595 0.694060 0.278019 -0.557190
C36   C     C_3   0.238370 0.669227 0.282546 -0.228080
H19   H     H_    0.210235 0.569360 0.277772 0.125425
H20   H     H_    0.188486 0.721429 0.237416 0.179901
H21   H     H_    0.192572 0.701827 0.339966 0.171139
O11   O     O_3   0.673307 0.331754 0.253510 -0.578506
C37   C     C_3   0.582905 0.228208 0.263572 -0.306199
H22   H     H_    0.488027 0.249620 0.302529 0.137364
H23   H     H_    0.639824 0.154665 0.291628 0.198014
H24   H     H_    0.551694 0.191513 0.206638 0.174189
C38   C     C_1   0.646288 0.614645 0.980311 0.309138
N5    N     N_1   0.727386 0.680735 0.948753 -0.293286
O12   O     O_3   0.400355 0.715432 0.117213 -0.544034
C39   C     C_3   0.276559 0.679037 0.082174 -0.305236
H25   H     H_    0.224891 0.593792 0.106975 0.122575
H26   H     H_    0.299362 0.667356 0.018541 0.186993
H27   H     H_    0.199592 0.754180 0.090749 0.188410

loop_
_geom_bond_atom_site_label_1
_geom_bond_atom_site_label_2
_ccdc_geom_bond_type
C10   C27   S    
C34   H17   S    
Cu1   O7    S    
C25   H9    S    
O12   C39   S    
C26   H10   S    
C23   O5    A    
Cu1   O1    S    
C11   C19   S    
O9    C34   S    
C12   C28   S    
C28   C29   A    
C18   H3    S    
C3    C7    A    
C5    C6    A    
C15   C16   A    
C14   O9    S    
C6    H1    S    
C2    C32   A    
C18   C19   S    
C9    C38   S    
C5    O11   S    
C1    O2    A    
C21   N1    A    
C20   N1    A    
C26   H11   S    
C20   C24   A    
C16   C17   A    
C3    O12   S    
Cu2   O6    S    
C36   H19   S    
C24   N2    A    
C34   H18   S    
Cu2   O4    S    
C21   C22   A    
C36   H21   S    
C4    O10   S    
C1    O1    A    
C17   C18   S    
Cu2   N1    S    
O11   C37   S    
C35   N4    T    
C24   C25   S    
C8    C9    D    
C25   C26   S    
C38   N5    T    
C33   N3    T    
C37   H22   S    
C8    H14   S    
C29   C30   A    
C31   C32   A    
C29   C33   S    
C23   O6    A    
Cu1   Cu2   S    
C37   H23   S    
C19   H5    S    
C21   H7    S    
C30   H15   S    
C16   C23   S    
C39   H26   S    
Cu2   O8    S    
C1    C13   S    
C4    C10   A    
C3    C4    A    
C15   H2    S    
Cu1   O3    S    
C7    C9    S    
C11   C17   A    
C8    C31   S    
C32   H12   S    
C27   O7    A    
C25   H8    S    
C2    C28   A    
C6    C7    A    
C2    H13   S    
Cu1   N2    S    
C39   H27   S    
C18   H4    S    
C5    C10   A    
C27   O8    A    
C11   C13   A    
C30   C31   A    
C20   C26   S    
Cu1   O5    S    
O10   C36   S    
C37   H24   S    
C22   C35   S    
C12   O4    A    
C19   H6    S    
C34   H16   S    
Cu2   O2    S    
C39   H25   S    
C14   C15   A    
C36   H20   S    
C13   C14   A    
C12   O3    A    
C22   N2    A    
