data_mof_unit_24847.cif
_audit_creation_date              2012-12-10T16:47:49-0500
_audit_creation_method            fapswitch 2.2
_symmetry_space_group_name_H-M    P1
_symmetry_Int_Tables_number       1
_space_group_crystal_system       triclinic
_cell_length_a                    7.815828
_cell_length_b                    8.570086
_cell_length_c                    10.693875
_cell_angle_alpha                 91.846683
_cell_angle_beta                  82.685742
_cell_angle_gamma                 94.079684
_cell_volume                      708.477235561

loop_
_atom_site_label
_atom_site_type_symbol
_atom_type_description
_atom_site_fract_x
_atom_site_fract_y
_atom_site_fract_z
_atom_type_partial_charge
C1    C     C_R   0.546010 0.794801 0.496868 0.957479
C2    C     C_2   0.570037 0.958540 0.494956 -0.389930
C3    C     C_R   0.298577 0.505522 0.940983 0.170967
C4    C     C_R   0.242718 0.657845 0.938458 -0.150684
C5    C     C_R   0.088614 0.696785 0.009455 -0.170168
C6    C     C_R   0.988658 0.584300 0.083082 -0.074433
C7    C     C_R   0.040192 0.431409 0.083691 -0.138572
C8    C     C_R   0.193990 0.391414 0.012078 -0.133399
C9    C     C_2   0.429958 0.041462 0.505113 -0.385551
C10   C     C_R   0.494747 0.494102 0.738037 0.873539
C11   C     C_R   0.453989 0.205197 0.503156 0.959362
C12   C     C_R   0.504202 0.502557 0.263018 0.910978
C13   C     C_2   0.588121 0.397999 0.059410 -0.190863
C14   C     C_2   0.521158 0.513829 0.131469 -0.296241
C15   C     C_2   0.595545 0.405452 0.923855 -0.214727
C16   C     C_2   0.470980 0.469384 0.871176 -0.160571
H1    H     H_    0.637773 0.298331 0.099916 0.151487
H2    H     H_    0.297901 0.989734 0.514895 0.179955
H3    H     H_    0.014212 0.380355 0.405182 0.186975
H4    H     H_    0.985808 0.619740 0.594733 0.192395
H5    H     H_    0.485675 0.621484 0.094451 0.146106
H6    H     H_    0.708347 0.362370 0.866743 0.177917
H7    H     H_    0.702095 0.010268 0.485176 0.179226
H8    H     H_    0.321247 0.747404 0.884201 0.119960
H9    H     H_    0.047871 0.814819 0.008775 0.128246
H10   H     H_    0.871655 0.616536 0.139751 0.158582
H11   H     H_    0.961876 0.344340 0.140588 0.127517
H12   H     H_    0.233704 0.273125 0.014240 0.127209
N1    N     N_2   0.950320 0.457950 0.466680 -0.175639
N2    N     N_2   0.049680 0.542050 0.533320 -0.170785
O1    O     O_R   0.389250 0.738570 0.508180 -0.613175
O2    O     O_R   0.678390 0.711630 0.486820 -0.629556
O3    O     O_R   0.355470 0.513470 0.691600 -0.613447
O4    O     O_R   0.644610 0.486520 0.670240 -0.621831
O5    O     O_R   0.321610 0.288370 0.513180 -0.628854
O6    O     O_R   0.610750 0.261430 0.491820 -0.615133
O7    O     O_R   0.355390 0.513480 0.329760 -0.609595
O8    O     O_R   0.644530 0.486530 0.308400 -0.633225
Zn1   Zn    Zn3+2 0.306940 0.517990 0.514260 0.942784
Zn2   Zn    Zn3+2 0.693060 0.482010 0.485740 0.925694

loop_
_geom_bond_atom_site_label_1
_geom_bond_atom_site_label_2
_ccdc_geom_bond_type
O5    Zn1   S    
C6    C7    A    
C13   H1    S    
C2    H7    S    
C11   O5    A    
C6    H10   S    
C7    C8    A    
O7    Zn1   S    
H4    N2    S    
C13   C14   D    
O8    Zn2   S    
C9    C11   S    
N1    N2    D    
O4    Zn2   S    
C14   H5    S    
C11   O6    A    
C15   H6    S    
O1    Zn1   S    
N2    Zn1   S    
C1    C2    S    
C10   O3    A    
C13   C15   S    
C12   O8    A    
C5    C6    A    
C4    H8    S    
C5    H9    S    
C15   C16   D    
H3    N1    S    
C9    H2    S    
C1    O1    A    
O2    Zn2   S    
C7    H11   S    
N1    Zn2   S    
C8    H12   S    
C10   O4    A    
C3    C8    A    
C12   O7    A    
O6    Zn2   S    
C10   C16   S    
C2    C9    D    
O3    Zn1   S    
C1    O2    A    
C3    C16   S    
C3    C4    A    
C12   C14   S    
C4    C5    A    
