data_mof_unit_25494.cif
_audit_creation_date              2012-12-10T18:11:36-0500
_audit_creation_method            fapswitch 2.2
_symmetry_space_group_name_H-M    P1
_symmetry_Int_Tables_number       1
_space_group_crystal_system       triclinic
_cell_length_a                    10.487211
_cell_length_b                    12.62133
_cell_length_c                    13.084005
_cell_angle_alpha                 82.04183
_cell_angle_beta                  90.534492
_cell_angle_gamma                 102.286693
_cell_volume                      1675.50536824

loop_
_atom_site_label
_atom_site_type_symbol
_atom_type_description
_atom_site_fract_x
_atom_site_fract_y
_atom_site_fract_z
_atom_type_partial_charge
C1    C     C_R   0.481868 0.438633 0.691351 0.851073
C2    C     C_3   0.067397 0.598413 0.521190 -0.179944
C3    C     C_3   0.964911 0.516228 0.590578 0.254824
C4    C     C_3   0.877353 0.500674 0.498753 -0.037980
C5    C     C_R   0.387719 0.690007 0.067780 -0.203713
C6    C     C_R   0.503031 0.598326 0.200144 -0.169029
C7    C     C_R   0.510058 0.301725 0.838987 -0.182322
C8    C     C_R   0.522416 0.273219 0.944408 -0.188826
C9    C     C_R   0.506430 0.345770 0.011878 -0.130358
C10   C     C_R   0.474129 0.447381 0.974443 0.094072
C11   C     C_R   0.437534 0.465307 0.870765 0.074704
C12   C     C_R   0.742086 0.500530 0.499642 0.864630
C13   C     C_R   0.471881 0.530142 0.036778 -0.031644
C14   C     C_R   0.403469 0.614285 0.002729 0.113573
C15   C     C_R   0.349652 0.620615 0.904961 -0.220172
C16   C     C_R   0.368762 0.548473 0.838790 -0.202448
C17   C     C_R   0.538188 0.534469 0.130444 0.416614
C18   C     C_R   0.433074 0.679332 0.167903 -0.279118
C19   C     C_R   0.470601 0.399071 0.801543 -0.115004
C20   C     C_R   0.320206 0.089633 0.345436 -0.312666
C21   C     C_R   0.653341 0.798534 0.630620 0.025929
C22   C     C_R   0.684997 0.902484 0.659604 -0.251610
C23   C     C_R   0.513013 0.561224 0.308921 0.885245
C24   C     C_R   0.626759 0.984404 0.610263 -0.199680
C25   C     C_R   0.536221 0.962315 0.531084 0.016431
C26   C     C_R   0.507596 0.854932 0.504387 0.235056
C27   C     C_R   0.473187 0.041884 0.477599 -0.014704
C28   C     C_R   0.383206 0.012442 0.399034 0.196887
C29   C     C_R   0.357221 0.906417 0.374427 -0.297263
C30   C     C_R   0.418924 0.829018 0.426324 -0.219594
C31   C     C_R   0.495679 0.150288 0.498432 -0.055478
C32   C     C_R   0.346876 0.195304 0.369798 0.026941
C33   C     C_R   0.257974 0.499760 0.499627 0.848931
C34   C     C_3   0.933699 0.403082 0.476864 -0.168527
C35   C     C_3   0.022187 0.418648 0.571284 -0.187742
C36   C     C_3   0.122922 0.500143 0.499423 0.004404
C37   C     C_3   0.037333 0.484262 0.405141 -0.175915
C38   C     C_3   0.978530 0.581684 0.427048 -0.226843
H1    H     H_    0.044404 0.353184 0.630154 0.134189
H2    H     H_    0.533581 0.248819 0.786732 0.153142
H3    H     H_    0.513866 0.318492 0.093149 0.195504
H4    H     H_    0.548779 0.196421 0.973690 0.147789
H5    H     H_    0.325954 0.556449 0.763279 0.165736
H6    H     H_    0.299592 0.256488 0.329046 0.132165
H7    H     H_    0.289033 0.883138 0.314517 0.150739
H8    H     H_    0.251493 0.068508 0.285318 0.142486
H9    H     H_    0.562221 0.180527 0.556090 0.123076
H10   H     H_    0.697892 0.734295 0.668808 0.132289
H11   H     H_    0.875803 0.323932 0.458177 0.156480
H12   H     H_    0.654480 0.063540 0.635777 0.134521
H13   H     H_    0.754230 0.919497 0.720203 0.148592
H14   H     H_    0.395661 0.749317 0.403577 0.211466
H15   H     H_    0.072296 0.471006 0.329049 0.133166
H16   H     H_    0.956017 0.647069 0.368215 0.142866
H17   H     H_    0.124875 0.677427 0.540557 0.154039
H18   H     H_    0.407440 0.730028 0.221319 0.167404
H19   H     H_    0.295300 0.682994 0.878711 0.143229
H20   H     H_    0.333480 0.752933 0.043381 0.149199
N1    N     N_R   0.432930 0.222190 0.444670 -0.100819
N2    N     N_R   0.566370 0.776980 0.554790 -0.130535
O1    O     O_R   0.467970 0.366730 0.627150 -0.616374
O2    O     O_R   0.510820 0.544830 0.662520 -0.615467
O3    O     O_R   0.664630 0.410960 0.482340 -0.618132
O4    O     O_R   0.707470 0.589060 0.517710 -0.628499
O5    O     O_R   0.489180 0.455170 0.337480 -0.576823
O6    O     O_R   0.532030 0.633270 0.372850 -0.641477
O7    O     O_R   0.292530 0.410940 0.482290 -0.619584
O8    O     O_R   0.335370 0.589040 0.517660 -0.648358
Zn1   Zn    Zn3+2 0.471390 0.381080 0.476380 0.947647
Zn2   Zn    Zn3+2 0.528610 0.618920 0.523620 0.915524
O9    O     O_3   0.627115 0.468734 0.158460 -0.663243
C39   C     C_3   0.753568 0.532982 0.169537 0.091191
H21   H     H_    0.803477 0.486337 0.229690 0.171033
H22   H     H_    0.753833 0.612947 0.196729 0.109643
C40   C     C_3   0.831864 0.551868 0.068033 -0.349676
H23   H     H_    0.831947 0.471749 0.041877 0.236671
H24   H     H_    0.785251 0.601365 0.007872 0.216993
C41   C     C_3   0.972623 0.611605 0.081020 -0.976473
H25   H     H_    0.974852 0.692322 0.106549 0.262266
H26   H     H_    0.026978 0.625323 0.006308 0.265342
H27   H     H_    0.022184 0.562050 0.138869 0.265197
N3    N     N_2   0.919154 0.533407 0.689756 -0.310726
H28   H     H_    0.869154 0.595915 0.684530 0.228373
C42   C     C_3   0.016070 0.540264 0.769140 -0.819121
H29   H     H_    0.969524 0.545839 0.843451 0.248412
H30   H     H_    0.095071 0.614212 0.748781 0.231300
H31   H     H_    0.058246 0.465970 0.779328 0.248904

loop_
_geom_bond_atom_site_label_1
_geom_bond_atom_site_label_2
_ccdc_geom_bond_type
C34   C37   S    
C35   C36   S    
C42   H31   S    
C1    O2    A    
C7    C8    A    
C11   C19   A    
C29   C30   A    
C5    H20   S    
C23   O6    A    
C36   C37   S    
C42   H30   S    
C2    H17   S    
C12   O4    A    
C41   H26   S    
O1    Zn1   S    
C15   C16   A    
C33   C36   S    
O2    Zn2   S    
C34   C35   S    
C31   N1    A    
N3    C42   S    
O3    Zn1   S    
C8    C9    A    
C7    H2    S    
O4    Zn2   S    
C4    C12   S    
C9    C10   A    
C18   H18   S    
C21   H10   S    
C37   H15   S    
C31   H9    S    
C13   C14   A    
C15   H19   S    
C39   C40   S    
C24   H12   S    
C6    C18   A    
C4    C34   S    
C1    C19   S    
C27   C31   A    
C24   C25   A    
C21   N2    A    
C39   H22   S    
C12   O3    A    
C41   H25   S    
C5    C18   A    
C20   C28   A    
C25   C26   A    
C29   H7    S    
O7    Zn1   S    
C35   H1    S    
C40   H23   S    
C37   C38   S    
C11   C16   A    
C2    C38   S    
C38   H16   S    
N2    Zn2   S    
C3    N3    S    
C32   H6    S    
C42   H29   S    
C40   H24   S    
C16   H5    S    
C5    C14   A    
N1    Zn1   S    
C4    C38   S    
C17   O9    S    
C7    C19   A    
C22   C24   A    
C3    C35   S    
C3    C4    S    
C33   O7    A    
C20   C32   A    
C2    C36   S    
C6    C17   A    
C30   H14   S    
C28   C29   A    
C34   H11   S    
C8    H4    S    
C39   H21   S    
C10   C13   A    
C1    O1    A    
C26   C30   A    
C25   C27   A    
C9    H3    S    
C13   C17   A    
C23   O5    A    
C2    C3    S    
O9    C39   S    
C41   H27   S    
O6    Zn2   S    
O5    Zn1   S    
C6    C23   S    
C40   C41   S    
C10   C11   A    
O8    Zn2   S    
N3    H28   S    
C27   C28   A    
C14   C15   A    
C32   N1    A    
C21   C22   A    
C26   N2    A    
C20   H8    S    
C33   O8    A    
C22   H13   S    
