data_mof_unit_48054.cif
_audit_creation_date              2012-12-11T19:09:16-0500
_audit_creation_method            fapswitch 2.2
_symmetry_space_group_name_H-M    P1
_symmetry_Int_Tables_number       1
_space_group_crystal_system       triclinic
_cell_length_a                    8.247927
_cell_length_b                    15.15213
_cell_length_c                    26.966712
_cell_angle_alpha                 99.391748
_cell_angle_beta                  92.525409
_cell_angle_gamma                 81.129797
_cell_volume                      3284.57108275

loop_
_atom_site_label
_atom_site_type_symbol
_atom_type_description
_atom_site_fract_x
_atom_site_fract_y
_atom_site_fract_z
_atom_type_partial_charge
Ba1   Ba    Ba6+2 0.860050 0.456430 0.522540 1.679919
Ba2   Ba    Ba6+2 0.329780 0.543490 0.477450 1.664197
C1    C     C_3   0.682732 0.137023 0.646660 -0.372898
C2    C     C_R   0.951611 0.599116 0.186341 0.592438
C3    C     C_2   0.771593 0.570864 0.275543 -0.099469
C4    C     C_3   0.184979 0.260500 0.653115 0.270651
C5    C     C_3   0.739309 0.596122 0.331197 -0.073666
C6    C     C_1   0.988286 0.489513 0.344894 0.033033
C7    C     C_2   0.032076 0.482192 0.297082 -0.098277
C8    C     C_2   0.918023 0.523903 0.259225 0.217802
C9    C     C_R   0.043408 0.514260 0.104961 -0.080488
C10   C     C_R   0.067269 0.434628 0.126764 -0.034312
C11   C     C_R   0.129825 0.352844 0.096839 -0.059145
C12   C     C_3   0.683536 0.227678 0.629497 0.357294
C13   C     C_R   0.984482 0.596869 0.135087 -0.029027
C14   C     C_2   0.854871 0.541932 0.363718 -0.260750
C15   C     C_2   0.351042 0.477386 0.640509 -0.283313
C16   C     C_3   0.157727 0.240925 0.705320 -0.323329
C17   C     C_R   0.191837 0.427399 0.972761 0.019604
C18   C     C_R   0.071489 0.587912 0.978644 0.019999
C19   C     C_R   0.149155 0.506456 0.950038 0.050601
C20   C     C_R   0.278555 0.349826 0.943507 -0.100146
C21   C     C_R   0.318124 0.349379 0.893664 -0.060350
C22   C     C_R   0.271293 0.425756 0.870239 -0.030444
C23   C     C_3   0.477431 0.682744 0.632722 0.294159
C24   C     C_R   0.185115 0.504209 0.898231 -0.077999
C25   C     C_R   0.136021 0.580672 0.874554 -0.034628
C26   C     C_R   0.171839 0.577405 0.823259 0.591298
C27   C     C_R   0.310273 0.425360 0.819503 0.577739
C28   C     C_3   0.271151 0.253891 0.370898 0.713368
C29   C     C_2   0.457135 0.481469 0.728808 -0.071100
C30   C     C_3   0.499014 0.486067 0.675067 -0.052170
C31   C     C_1   0.206425 0.518030 0.657068 0.044338
C32   C     C_2   0.166847 0.519726 0.704715 -0.108377
C33   C     C_2   0.298604 0.499066 0.743627 0.202062
C34   C     C_3   0.435777 0.718707 0.687442 -0.363319
C35   C     C_R   0.148176 0.428712 0.023779 0.019693
C36   C     C_R   0.079108 0.511508 0.053088 0.050766
C37   C     C_R   0.045544 0.591748 0.031097 0.019475
C38   C     C_R   0.170256 0.349885 0.046747 -0.099411
C39   C     C_R   0.960258 0.676143 0.113523 -0.058652
C40   C     C_3   0.345663 0.246627 0.319232 -0.333352
C41   C     C_R   0.021205 0.662863 0.953454 -0.100620
C42   C     C_R   0.052251 0.659072 0.902681 -0.061336
C43   C     C_R   0.988903 0.673719 0.062775 -0.101457
C44   C     C_R   0.348172 0.171542 0.527607 0.053209
C45   C     C_3   0.937983 0.764074 0.356490 0.331679
C46   C     C_R   0.573975 0.201490 0.481176 0.048528
C47   C     C_R   0.764707 0.770228 0.491205 -0.287606
C48   C     C_R   0.865865 0.829545 0.480901 0.018150
C49   C     C_R   0.815646 0.922397 0.492619 -0.175560
C50   C     C_R   0.649518 0.956823 0.504107 0.003643
C51   C     C_R   0.557208 0.896769 0.521839 -0.002806
C52   C     C_3   0.966176 0.736860 0.592832 0.307868
C53   C     C_R   0.574274 0.048276 0.500717 0.029550
C54   C     C_R   0.420548 0.080412 0.525169 -0.003788
C55   C     C_R   0.341672 0.020984 0.547016 -0.095992
C56   C     C_3   0.864355 0.816612 0.315372 -0.324323
C57   C     C_R   0.407521 0.931168 0.544960 -0.048192
C58   C     C_R   0.639666 0.107291 0.472108 0.024855
C59   C     C_R   0.430374 0.231148 0.508148 -0.238088
C60   C     C_R   0.619112 0.803358 0.516210 0.035313
C61   C     C_3   0.934064 0.837672 0.613187 -0.384409
C62   C     C_3   0.700707 0.356288 0.375794 0.282999
C63   C     C_3   0.741322 0.333633 0.320049 -0.387595
C64   C     C_3   0.772147 0.067551 0.432320 -0.189063
C65   C     C_3   0.762307 0.096935 0.380686 -0.280488
C66   C     C_3   0.434424 0.772995 0.350285 0.320112
C67   C     C_3   0.364496 0.847691 0.320556 -0.289816
C68   C     C_R   0.025774 0.438244 0.177780 0.594748
H1    H     H_    0.797859 0.223636 0.608409 0.094911
H2    H     H_    0.805430 0.381567 0.397355 0.051017
H3    H     H_    0.592325 0.409401 0.381124 0.100162
H4    H     H_    0.790527 0.122231 0.671746 0.132233
H5    H     H_    0.863698 0.291733 0.314779 0.129167
H6    H     H_    0.740045 0.396059 0.303728 0.083992
H7    H     H_    0.650192 0.295227 0.298692 0.126409
H8    H     H_    0.574879 0.240155 0.604422 -0.063744
H9    H     H_    0.688761 0.082555 0.613502 0.066534
H10   H     H_    0.366683 0.659588 0.613260 0.034292
H11   H     H_    0.579194 0.625109 0.630872 0.030696
H12   H     H_    0.371621 0.313646 0.313251 0.077921
H13   H     H_    0.340019 0.779358 0.689741 0.141512
H14   H     H_    0.387932 0.666978 0.704956 0.077988
H15   H     H_    0.547120 0.737407 0.708713 0.121320
H16   H     H_    0.568444 0.138261 0.667219 0.126200
H17   H     H_    0.183794 0.298615 0.733743 0.129125
H18   H     H_    0.008406 0.698763 0.338940 0.075463
H19   H     H_    0.834263 0.750937 0.377783 -0.070103
H20   H     H_    0.962058 0.828817 0.291459 0.149578
H21   H     H_    0.778463 0.777722 0.291433 0.119202
H22   H     H_    0.794519 0.882214 0.332457 0.098310
H23   H     H_    0.461121 0.198054 0.315918 0.098629
H24   H     H_    0.569122 0.771478 0.352206 -0.078264
H25   H     H_    0.386394 0.789848 0.389020 0.100390
H26   H     H_    0.402761 0.912567 0.338747 0.154298
H27   H     H_    0.228775 0.855677 0.319156 0.161697
H28   H     H_    0.114153 0.327832 0.650006 0.088927
H29   H     H_    0.411235 0.831280 0.281623 0.104627
H30   H     H_    0.153148 0.448220 0.285372 0.114296
H31   H     H_    0.148406 0.290155 0.112156 0.121460
H32   H     H_    0.555874 0.470161 0.756085 0.102137
H33   H     H_    0.385700 0.288127 0.873331 0.121544
H34   H     H_    0.258919 0.223410 0.289001 0.123921
H35   H     H_    0.321749 0.288532 0.958476 0.069904
H36   H     H_    0.215093 0.283849 0.026556 0.069798
H37   H     H_    0.684884 0.601269 0.249454 0.103173
H38   H     H_    0.917186 0.741046 0.135874 0.122010
H39   H     H_    0.953520 0.725374 0.971712 0.069920
H40   H     H_    0.317696 0.262040 0.648634 -0.011187
H41   H     H_    0.010665 0.718657 0.885513 0.121884
H42   H     H_    0.039808 0.537112 0.715935 0.125870
H43   H     H_    0.969334 0.738153 0.049774 0.070573
H44   H     H_    0.839228 0.558545 0.404076 0.078340
H45   H     H_    0.848213 0.712383 0.582433 0.013775
H46   H     H_    0.363373 0.439446 0.602699 0.068226
H47   H     H_    0.378238 0.301988 0.512647 0.055508
H48   H     H_    0.224884 0.042045 0.565083 0.105698
H49   H     H_    0.806116 0.698079 0.483606 0.058816
H50   H     H_    0.906056 0.965825 0.490835 0.085856
H51   H     H_    0.027971 0.231839 0.708980 0.137333
H52   H     H_    0.337774 0.889209 0.561617 0.097603
H53   H     H_    0.239592 0.178629 0.712287 0.120434
H54   H     H_    0.352781 0.280579 0.401576 -0.053221
H55   H     H_    0.636785 0.123321 0.369761 0.170523
H56   H     H_    0.045691 0.725379 0.559522 0.041154
H57   H     H_    0.847599 0.145989 0.379652 0.199423
H58   H     H_    0.807026 0.039114 0.351211 0.115221
H59   H     H_    0.894890 0.076323 0.448934 0.177616
H60   H     H_    0.764553 0.994954 0.420869 0.110935
H61   H     H_    0.051750 0.143322 0.319802 0.315101
H62   H     H_    0.861055 0.849625 0.647930 0.141368
H63   H     H_    0.864483 0.875619 0.585501 0.060600
H64   H     H_    0.052394 0.863837 0.621989 0.112431
N1    N     N_R   0.966602 0.520012 0.207070 -0.421019
N2    N     N_R   0.258236 0.500230 0.796110 -0.424852
O1    O     O_2   0.906490 0.548660 0.619040 -0.470801
O2    O     O_2   0.206488 0.821267 0.471466 -0.479238
O3    O     O_3   0.044377 0.814337 0.387116 -0.589248
O4    O     O_3   0.138490 0.548590 0.558860 -0.491349
O5    O     O_3   0.572560 0.389970 0.472910 -0.495759
O6    O     O_2   0.345680 0.723560 0.528460 -0.467450
O7    O     O_3   0.526723 0.752453 0.611557 -0.648430
O8    O     O_2   0.452734 0.515492 0.325530 -0.491631
O9    O     O_3   0.389268 0.690251 0.326517 -0.575769
O10   O     O_2   0.040424 0.368397 0.195764 -0.603199
O11   O     O_2   0.390551 0.358080 0.796173 -0.600696
O12   O     O_3   0.665559 0.278209 0.391630 -0.663158
O13   O     O_2   0.910671 0.672100 0.212688 -0.620544
O14   O     O_2   0.128640 0.644047 0.803086 -0.596871
O15   O     O_3   0.686290 0.382320 0.585720 -0.495054
O16   O     O_2   0.841569 0.429506 0.671587 -0.500229
O17   O     O_3   0.043385 0.693049 0.630937 -0.630405
O18   O     O_3   0.676996 0.296263 0.671601 -0.589018
O19   O     O_2   0.844020 0.276410 0.471510 -0.410137
O20   O     O_3   0.101490 0.335510 0.560360 -0.486912
O21   O     O_2   0.006605 0.176517 0.527266 -0.463052
O22   O     O_2   0.388987 0.083045 0.388954 -0.351586
O23   O     O_3   0.129891 0.192676 0.617510 -0.625659
O24   O     O_2   0.129235 0.155588 0.425861 -0.304179
O25   O     O_3   0.134578 0.094731 0.330049 -0.515332
O26   O     O_2   0.283210 0.451320 0.380930 -0.489428
O27   O     O_3   0.051220 0.451340 0.441130 -0.469262
O28   O     O_3   0.503420 0.617610 0.414270 -0.473622
O29   O     O_3   0.117077 0.307160 0.371904 -0.664206
O30   O     O_3   0.617160 0.609950 0.527080 -0.480936
O31   O     O_3   0.088220 0.664410 0.439630 -0.485631
P1    P     P_3+3 0.071960 0.575810 0.612130 0.991746
P2    P     P_3+3 0.664360 0.290070 0.457280 0.999534
P3    P     P_3+3 0.147538 0.218586 0.557247 0.976370
P4    P     P_3+3 0.117760 0.424110 0.387870 0.975108
P5    P     P_3+3 0.054428 0.782828 0.446833 0.979496
P6    P     P_3+3 0.676372 0.400534 0.651193 0.966500
P7    P     P_3+3 0.529236 0.722988 0.546138 0.936537
P8    P     P_3+3 0.521142 0.602727 0.348819 0.961135
S1    S     S_3+6 0.233378 0.144312 0.380428 -0.105629

loop_
_geom_bond_atom_site_label_1
_geom_bond_atom_site_label_2
_ccdc_geom_bond_type
O4    P1    S    
C33   N2    S    
C53   C54   A    
C26   O14   D    
O15   P6    S    
O23   P3    S    
Ba1   O20   S    
C40   H23   S    
C32   H42   S    
C12   H1    S    
C40   H12   S    
C19   C24   A    
C67   H26   S    
C1    H9    S    
Ba2   O26   S    
C52   O17   S    
C4    O23   S    
C51   C57   A    
O6    P7    D    
C2    O13   D    
C52   H56   S    
C24   C25   A    
C63   H6    S    
C61   H63   S    
C39   H38   S    
C22   C24   A    
C32   C33   S    
C35   C38   A    
C65   H55   S    
C36   C37   A    
C55   C57   A    
C52   C61   S    
H61   O25   S    
C34   H13   S    
C23   H10   S    
C54   C55   A    
O28   P8    S    
Ba1   Ba2   S    
C56   H21   S    
O20   P3    S    
Ba1   O19   S    
C1    H4    S    
C22   C27   A    
C11   C38   A    
C17   C35   A    
C9    C13   A    
C25   C42   A    
C21   H33   S    
O26   P4    D    
O9    P8    S    
C66   C67   S    
C5    P8    S    
C21   C22   A    
C68   O10   D    
O27   P4    S    
C7    C8    S    
Ba2   O30   S    
C6    P4    S    
Ba2   P4    S    
C37   C43   A    
C64   H59   S    
C57   H52   S    
C12   H8    S    
C64   C65   S    
C58   C64   S    
C6    C14   D    
C53   C58   A    
C62   O12   S    
C1    H16   S    
C23   H11   S    
O24   S1    D    
C23   O7    S    
C15   C31   D    
C28   S1    S    
C49   H50   S    
C46   C58   A    
C4    C16   S    
O30   P7    S    
C66   H25   S    
C63   H7    S    
C15   C30   S    
C44   C59   A    
C59   H47   S    
C49   C50   A    
C29   H32   S    
C17   C20   A    
C8    N1    S    
C13   C39   A    
Ba2   O28   S    
C3    C5    S    
O25   S1    S    
C6    C7    D    
C16   H51   S    
Ba1   P1    S    
C48   C49   A    
O2    P5    D    
C66   H24   S    
C44   P3    S    
C14   H44   S    
C4    H40   S    
C9    C36   A    
C41   C42   A    
C61   H64   S    
C35   C36   A    
C65   H57   S    
O21   P3    D    
C51   C60   A    
O19   P2    D    
C29   C30   S    
C62   H3    S    
C52   H45   S    
O5    P2    S    
O12   P2    S    
O3    P5    S    
C61   H62   S    
C10   C11   A    
C56   H20   S    
Ba1   O4    S    
O29   P4    S    
C2    N1    Am   
O16   P6    D    
C67   H29   S    
O22   S1    D    
C5    C14   S    
C28   H54   S    
C45   H19   S    
C7    H30   S    
O17   P1    S    
C68   N1    Am   
Ba2   O6    S    
C29   C33   D    
C31   P1    S    
C45   O3    S    
C11   H31   S    
C4    H28   S    
C18   C41   A    
Ba1   O1    S    
C50   C51   A    
C38   H36   S    
C3    H37   S    
C18   C37   A    
C10   C68   A    
C47   C60   A    
O18   P6    S    
C17   C19   A    
C26   N2    Am   
C28   O29   S    
C40   H34   S    
Ba2   O27   S    
C27   O11   D    
C9    C10   A    
C50   C53   A    
O31   P5    S    
C1    C12   S    
C34   H15   S    
C20   H35   S    
C30   P6    S    
C16   H53   S    
C16   H17   S    
C63   H5    S    
Ba2   O4    S    
C45   H18   S    
C2    C13   A    
C3    C8    D    
C65   H58   S    
C62   C63   S    
C45   C56   S    
C46   C59   A    
C47   H49   S    
Ba1   O30   S    
C34   H14   S    
O8    P8    D    
Ba1   P2    S    
C31   C32   D    
Ba1   O15   S    
C62   H2    S    
Ba1   O5    S    
C23   C34   S    
C46   P2    S    
C42   H41   S    
C43   H43   S    
C27   N2    Am   
C18   C19   A    
Ba1   O27   S    
C47   C48   A    
C44   C54   A    
C25   C26   A    
Ba2   O5    S    
C39   C43   A    
C20   C21   A    
C28   C40   S    
C48   P5    S    
C41   H39   S    
O7    P7    S    
C56   H22   S    
Ba2   O31   S    
O1    P1    D    
C12   O18   S    
C66   O9    S    
C15   H46   S    
C67   H27   S    
C55   H48   S    
C64   H60   S    
C60   P7    S    
