data_mof_unit_5533.cif
_audit_creation_date              2012-10-26T21:17:56-0400
_audit_creation_method            fapswitch 2.2
_symmetry_space_group_name_H-M    P1
_symmetry_Int_Tables_number       1
_space_group_crystal_system       triclinic
_cell_length_a                    14.680177
_cell_length_b                    14.536725
_cell_length_c                    27.666921
_cell_angle_alpha                 76.838408
_cell_angle_beta                  102.534407
_cell_angle_gamma                 114.604797
_cell_volume                      5177.01581119

loop_
_atom_site_label
_atom_site_type_symbol
_atom_type_description
_atom_site_fract_x
_atom_site_fract_y
_atom_site_fract_z
_atom_type_partial_charge
C1    C     C_R   0.880831 0.311634 0.506000 0.537756
C2    C     C_R   0.996462 0.404147 0.138316 0.027164
C3    C     C_R   0.993472 0.491990 0.645609 0.001657
C4    C     C_R   0.996831 0.493965 0.354762 -0.010011
C5    C     C_R   0.984414 0.390557 0.036896 0.015569
C6    C     C_R   0.938547 0.537857 0.963079 0.016466
C7    C     C_R   0.914023 0.522637 0.011884 0.014026
C8    C     C_R   0.976737 0.383721 0.985700 0.010887
C9    C     C_R   0.949501 0.458161 0.049818 0.008562
C10   C     C_R   0.965578 0.465250 0.949510 0.006177
C11   C     C_R   0.033599 0.338616 0.075171 -0.147421
C12   C     C_R   0.119156 0.688349 0.494169 0.539560
C13   C     C_R   0.942472 0.626284 0.928470 -0.147137
C14   C     C_R   0.037714 0.343548 0.125127 -0.120628
C15   C     C_R   0.957548 0.635567 0.879428 -0.121553
C16   C     C_R   0.997167 0.496403 0.592533 0.543233
C17   C     C_R   0.000574 0.499989 0.407534 0.538558
C18   C     C_R   0.981670 0.300339 0.969221 0.026132
C19   C     C_R   0.852849 0.566160 0.023925 0.011786
C20   C     C_R   0.814399 0.202678 0.504984 0.001837
C21   C     C_R   0.185594 0.797212 0.495718 0.001543
C22   C     C_R   0.776464 0.028346 0.495083 -0.118600
C23   C     C_R   0.978829 0.473184 0.899427 -0.049238
C24   C     C_R   0.223333 0.971218 0.506156 -0.118151
C25   C     C_R   0.845817 0.129763 0.494954 0.000459
C26   C     C_R   0.153806 0.869985 0.505624 0.001053
C27   C     C_R   0.713445 0.173326 0.510943 -0.150973
C28   C     C_R   0.286974 0.826498 0.490564 -0.149213
C29   C     C_R   0.640418 0.075135 0.504425 0.011547
C30   C     C_R   0.359905 0.924454 0.497602 0.012393
C31   C     C_R   0.674367 0.999238 0.500404 0.049222
C32   C     C_R   0.325772 0.000275 0.501500 0.049411
C33   C     C_R   0.535009 0.050916 0.502123 0.013810
C34   C     C_R   0.952110 0.462599 0.100620 -0.050581
C35   C     C_R   0.465379 0.948593 0.500279 0.014335
C36   C     C_R   0.503349 0.872489 0.502928 -0.124845
C37   C     C_R   0.497031 0.126929 0.499691 -0.125302
C38   C     C_R   0.605448 0.896312 0.501607 0.012445
C39   C     C_R   0.394810 0.103087 0.500756 0.012608
C40   C     C_R   0.000245 0.403253 0.833089 0.379604
C41   C     C_R   0.929078 0.535895 0.165428 0.384785
C42   C     C_R   0.703796 0.649571 0.408309 -0.165228
C43   C     C_R   0.296043 0.350117 0.591587 -0.164984
C44   C     C_R   0.790019 0.627568 0.424759 0.036436
C45   C     C_R   0.000222 0.397856 0.884910 0.007691
C46   C     C_R   0.209476 0.371466 0.574902 0.036726
C47   C     C_R   0.718505 0.515506 0.495742 0.035172
C48   C     C_R   0.282422 0.486273 0.504868 0.032495
C49   C     C_R   0.628842 0.535649 0.481428 0.001406
C50   C     C_R   0.372108 0.466160 0.519194 0.000980
C51   C     C_R   0.622424 0.602774 0.436037 0.036834
C52   C     C_R   0.378117 0.398269 0.564331 0.037227
C53   C     C_R   0.545450 0.490729 0.509739 0.018072
C54   C     C_R   0.455765 0.511564 0.491061 0.016873
C55   C     C_R   0.452427 0.576287 0.444723 -0.158076
C56   C     C_R   0.914877 0.528367 0.113579 0.010577
C57   C     C_R   0.548798 0.426051 0.556110 -0.156099
C58   C     C_R   0.534516 0.621692 0.418184 -0.140275
C59   C     C_R   0.466307 0.379946 0.582400 -0.140995
C60   C     C_R   0.982025 0.563813 0.814167 0.383163
C61   C     C_R   0.002034 0.410150 0.188578 0.384571
C62   C     C_R   0.085833 0.544295 0.725930 0.056858
C63   C     C_R   0.890957 0.432266 0.278461 0.058252
C64   C     C_R   0.083395 0.544856 0.674998 -0.147479
C65   C     C_R   0.902375 0.440008 0.329034 -0.143341
C66   C     C_R   0.903956 0.434222 0.667939 -0.010901
C67   C     C_R   0.012950 0.316588 0.921945 0.030316
C68   C     C_R   0.083375 0.541918 0.329673 -0.015237
C69   C     C_R   0.906381 0.436122 0.718615 -0.049299
C70   C     C_R   0.071353 0.533949 0.278676 -0.043459
C71   C     C_R   0.995842 0.490344 0.747549 0.242573
C72   C     C_R   0.976593 0.480321 0.253132 0.239007
C73   C     C_3   0.806523 0.365323 0.640617 -0.289996
C74   C     C_3   0.788728 0.252575 0.658575 -0.436869
C75   C     C_3   0.185817 0.600762 0.357752 -0.266611
C76   C     C_3   0.270410 0.665196 0.325635 -0.461968
C77   C     C_3   0.049364 0.843839 0.518164 -0.257629
C78   C     C_R   0.862873 0.580118 0.074463 0.020001
C79   C     C_3   0.978967 0.865193 0.471634 -0.421325
C80   C     C_3   0.949603 0.155925 0.481580 -0.257784
C81   C     C_3   0.021033 0.134560 0.527608 -0.421750
C82   C     C_3   0.069364 0.254446 0.914076 -0.248353
C83   C     C_3   0.150645 0.246476 0.958253 -0.467408
C84   C     C_3   0.820412 0.652313 0.084770 -0.232091
C85   C     C_3   0.720742 0.594124 0.106788 -0.404437
C86   C     C_3   0.787715 0.369863 0.253183 -0.254646
C87   C     C_3   0.711997 0.419072 0.249315 -0.437352
C88   C     C_3   0.185228 0.600032 0.756289 -0.257490
C89   C     C_R   0.972279 0.557927 0.864071 0.026506
C90   C     C_3   0.251983 0.538316 0.769087 -0.441184
C91   C     C_3   0.931204 0.190146 0.995005 -0.267321
C92   C     C_3   0.821530 0.164739 0.000556 -0.432007
C93   C     C_3   0.762895 0.576153 0.985707 -0.270432
C94   C     C_3   0.696742 0.476394 0.964826 -0.430667
C95   C     C_3   0.637397 0.808923 0.502404 -0.281881
C96   C     C_3   0.695231 0.783435 0.553086 -0.429364
C97   C     C_3   0.362833 0.190404 0.500057 -0.282128
C98   C     C_3   0.306161 0.216950 0.449197 -0.428937
Cu1   Cu    Cu3+1 0.081740 0.475690 0.513040 0.908704
Cu2   Cu    Cu3+1 0.918260 0.524310 0.486960 0.908084
H1    H     H_    0.803195 0.973395 0.489148 0.108712
H2    H     H_    0.742018 0.379933 0.647208 0.131354
H3    H     H_    0.805870 0.379239 0.599674 0.166948
H4    H     H_    0.290668 0.615179 0.308668 0.153561
H5    H     H_    0.247225 0.720020 0.295891 0.158762
H6    H     H_    0.338831 0.709776 0.349612 0.132967
H7    H     H_    0.176938 0.653530 0.378158 0.150209
H8    H     H_    0.210816 0.544929 0.385673 0.155972
H9    H     H_    0.307083 0.770925 0.480278 0.113241
H10   H     H_    0.693790 0.229109 0.521333 0.112350
H11   H     H_    0.974235 0.822596 0.442003 0.170075
H12   H     H_    0.196369 0.026089 0.511968 0.108518
H13   H     H_    0.901987 0.840941 0.481492 0.131619
H14   H     H_    0.007191 0.948427 0.456793 0.137535
H15   H     H_    0.015759 0.763609 0.536861 0.178664
H16   H     H_    0.055013 0.890933 0.546072 0.121846
H17   H     H_    0.097621 0.159076 0.517207 0.131819
H18   H     H_    0.026505 0.176930 0.557484 0.168826
H19   H     H_    0.993193 0.051295 0.542371 0.137081
H20   H     H_    0.942938 0.108841 0.453452 0.122214
H21   H     H_    0.982869 0.236169 0.462842 0.177751
H22   H     H_    0.454983 0.792368 0.507129 0.103564
H23   H     H_    0.700227 0.701829 0.373754 0.092253
H24   H     H_    0.545424 0.207027 0.495809 0.103239
H25   H     H_    0.528872 0.672004 0.383114 0.108262
H26   H     H_    0.471739 0.329321 0.617377 0.108843
H27   H     H_    0.273458 0.540957 0.472757 0.108906
H28   H     H_    0.728280 0.462477 0.528463 0.107825
H29   H     H_    0.146668 0.335537 0.596326 0.125467
H30   H     H_    0.852284 0.662506 0.402987 0.127270
H31   H     H_    0.838519 0.393270 0.736265 0.122465
H32   H     H_    0.134927 0.568975 0.257811 0.128393
H33   H     H_    0.200927 0.323744 0.967718 0.154820
H34   H     H_    0.299277 0.297229 0.625934 0.091819
H35   H     H_    0.116705 0.196811 0.991802 0.144163
H36   H     H_    0.197366 0.212233 0.947933 0.138140
H37   H     H_    0.015453 0.176876 0.906628 0.156154
H38   H     H_    0.112250 0.292404 0.881875 0.195182
H39   H     H_    0.658989 0.555020 0.078350 0.125083
H40   H     H_    0.726992 0.534985 0.139096 0.184751
H41   H     H_    0.699333 0.648771 0.119372 0.138437
H42   H     H_    0.877110 0.707441 0.108828 0.195933
H43   H     H_    0.807928 0.704630 0.050306 0.106400
H44   H     H_    0.837029 0.402176 0.348886 0.124942
H45   H     H_    0.387334 0.594126 0.427888 0.091428
H46   H     H_    0.152236 0.587284 0.658050 0.121255
H47   H     H_    0.696035 0.416833 0.287090 0.146795
H48   H     H_    0.741872 0.499919 0.230743 0.193731
H49   H     H_    0.639872 0.376415 0.226924 0.129700
H50   H     H_    0.790807 0.360332 0.214988 0.160078
H51   H     H_    0.759559 0.291685 0.275158 0.135131
H52   H     H_    0.213396 0.462682 0.791393 0.180091
H53   H     H_    0.269232 0.526479 0.734360 0.153110
H54   H     H_    0.324263 0.580349 0.791567 0.133447
H55   H     H_    0.225221 0.676080 0.734658 0.138838
H56   H     H_    0.614082 0.408535 0.573105 0.087207
H57   H     H_    0.173797 0.614670 0.791722 0.169286
H58   H     H_    0.076137 0.301871 0.153374 0.159804
H59   H     H_    0.957624 0.703904 0.853611 0.159779
H60   H     H_    0.075343 0.299471 0.066817 0.109789
H61   H     H_    0.938088 0.690713 0.939620 0.110472
H62   H     H_    0.817886 0.209208 0.027286 0.162030
H63   H     H_    0.778887 0.181885 0.963621 0.154732
H64   H     H_    0.784767 0.082024 0.015155 0.132769
H65   H     H_    0.928375 0.134716 0.972471 0.142892
H66   H     H_    0.972518 0.172707 0.031938 0.130724
H67   H     H_    0.852641 0.236968 0.652009 0.164150
H68   H     H_    0.736638 0.459567 0.940331 0.165312
H69   H     H_    0.674596 0.411511 0.995987 0.151698
H70   H     H_    0.626981 0.483284 0.941994 0.131155
H71   H     H_    0.711041 0.593032 0.002504 0.142156
H72   H     H_    0.786553 0.639870 0.954591 0.132388
H73   H     H_    0.765761 0.849695 0.562173 0.151028
H74   H     H_    0.647026 0.760693 0.583082 0.162551
H75   H     H_    0.715670 0.718436 0.552155 0.148213
H76   H     H_    0.570090 0.738414 0.495434 0.158771
H77   H     H_    0.682468 0.826197 0.471676 0.136189
H78   H     H_    0.781089 0.231509 0.699101 0.164933
H79   H     H_    0.355319 0.240598 0.419544 0.162733
H80   H     H_    0.235923 0.150908 0.439491 0.151493
H81   H     H_    0.285352 0.281622 0.450279 0.147801
H82   H     H_    0.316954 0.172588 0.530508 0.135991
H83   H     H_    0.430100 0.260603 0.507545 0.158729
H84   H     H_    0.717977 0.204133 0.637356 0.135027
N1    N     N_R   0.994503 0.486628 0.799674 -0.398047
N2    N     N_R   0.968739 0.475100 0.201037 -0.399226
N3    N     N_R   0.795430 0.560780 0.467350 -0.229950
N4    N     N_R   0.204570 0.439220 0.532650 -0.229352
O1    O     O_R   0.977900 0.338120 0.517190 -0.502399
O2    O     O_2   0.904768 0.602992 0.180936 -0.534772
O3    O     O_2   0.041064 0.351940 0.224958 -0.514438
O4    O     O_2   0.977109 0.644965 0.780053 -0.513810
O5    O     O_R   0.022100 0.661880 0.482810 -0.501265
O6    O     O_R   0.839850 0.379180 0.495160 -0.508499
O7    O     O_R   0.160150 0.620820 0.504840 -0.505210
O8    O     O_R   0.069030 0.479490 0.580750 -0.497432
O9    O     O_R   0.930970 0.520510 0.419250 -0.497540
O10   O     O_R   0.930970 0.520550 0.558720 -0.512856
O11   O     O_R   0.069030 0.479450 0.441280 -0.511545
O12   O     O_2   0.999715 0.323851 0.815447 -0.531853

loop_
_geom_bond_atom_site_label_1
_geom_bond_atom_site_label_2
_ccdc_geom_bond_type
C76   H4    S    
C21   C26   A    
C63   C65   A    
C93   H72   S    
C34   C56   A    
C60   N1    A    
C23   C45   A    
C96   H75   S    
Cu1   O7    S    
C27   C29   A    
C25   C80   S    
C12   O5    A    
C91   H66   S    
C95   C96   S    
C24   H12   S    
C75   C76   S    
C46   H29   S    
C80   H20   S    
C97   C98   S    
C97   H82   S    
C47   C49   A    
C3    C64   A    
C68   C75   S    
C75   H7    S    
C50   C54   A    
C22   H1    S    
C96   H74   S    
C41   O2    S    
C14   H58   S    
C18   C91   S    
C24   C26   A    
C48   N4    A    
C82   H37   S    
C86   H50   S    
C94   H69   S    
C4    C65   A    
C11   C14   A    
C43   C52   A    
C39   C97   S    
C66   C69   A    
C74   H84   S    
C20   C25   A    
C44   H30   S    
C81   H17   S    
C56   C78   A    
C73   C74   S    
C32   C39   A    
C69   C71   A    
Cu1   N4    S    
C62   C64   A    
C95   H77   S    
C35   C36   A    
C29   C33   A    
C49   C51   A    
C22   C25   A    
C38   C95   S    
C45   C67   A    
C50   C52   A    
C23   C89   A    
C17   O9    A    
C90   H54   S    
C77   H16   S    
C85   H39   S    
C83   H35   S    
C19   C93   S    
C2    C61   A    
C69   H31   S    
C42   C51   A    
Cu2   O9    S    
C2    C34   A    
C48   C50   A    
C75   H8    S    
C42   C44   A    
C71   N1    S    
C74   H67   S    
C11   H60   S    
C97   H83   S    
C80   H21   S    
C77   C79   S    
C40   C45   A    
C37   C39   A    
C57   H56   S    
C26   C77   S    
C22   C31   A    
C88   H55   S    
C47   H28   S    
Cu2   N3    S    
C84   C85   S    
C27   H10   S    
C90   H52   S    
C87   H48   S    
C94   H68   S    
C91   C92   S    
Cu1   O1    S    
C65   H44   S    
C53   C57   A    
C86   C87   S    
C40   N1    A    
C42   H23   S    
C84   H43   S    
C18   C67   A    
C53   C54   A    
C66   C73   S    
C62   C88   S    
Cu1   O8    S    
C33   C37   A    
C59   H26   S    
C43   H34   S    
C36   H22   S    
C95   H76   S    
C24   C32   A    
C41   C56   A    
C5    C9    A    
C16   O8    A    
C52   C59   A    
C15   C89   A    
C37   H24   S    
Cu1   Cu2   S    
C74   H78   S    
C13   C15   A    
C84   H42   S    
C60   O4    S    
C70   H32   S    
C51   C58   A    
C98   H80   S    
C88   H57   S    
C90   H53   S    
C13   H61   S    
C85   H40   S    
C72   N2    S    
C83   H36   S    
C87   H47   S    
C58   H25   S    
C4    C17   S    
C30   C35   A    
C92   H63   S    
C8    C10   A    
C73   H2    S    
C21   C28   A    
C88   C90   S    
C7    C19   A    
C79   H13   S    
C63   C86   S    
C9    C34   A    
C10   C23   A    
C12   O7    A    
C79   H14   S    
C3    C66   A    
C85   H41   S    
C16   O10   A    
C4    C68   A    
C92   H62   S    
C7    C9    A    
C60   C89   A    
C54   C55   A    
C93   H71   S    
C1    C20   S    
C76   H6    S    
C55   H45   S    
C64   H46   S    
C91   H65   S    
C80   C81   S    
C15   H59   S    
C6    C10   A    
C5    C8    A    
C5    C11   A    
C6    C7    A    
C20   C27   A    
Cu2   O6    S    
C28   H9    S    
C40   O12   S    
C93   C94   S    
C81   H19   S    
C31   C38   A    
C79   H11   S    
C19   C78   A    
Cu2   O5    S    
C98   H81   S    
C36   C38   A    
C1    O6    A    
C29   C31   A    
C86   H51   S    
C82   H38   S    
C48   H27   S    
C30   C32   A    
C92   H64   S    
C49   C53   A    
C12   C21   S    
C28   C30   A    
C61   N2    A    
C33   C35   A    
C62   C71   A    
C17   O11   A    
C81   H18   S    
C2    C14   A    
C43   C46   A    
C8    C18   A    
C83   H33   S    
C57   C59   A    
C44   N3    A    
C78   C84   S    
C73   H3    S    
C63   C72   A    
C67   C82   S    
C68   C70   A    
C82   C83   S    
C87   H49   S    
C55   C58   A    
Cu1   O11   S    
C41   N2    A    
C61   O3    S    
C70   C72   A    
C96   H73   S    
C46   N4    A    
C98   H79   S    
C77   H15   S    
C47   N3    A    
C76   H5    S    
C94   H70   S    
C3    C16   S    
C1    O1    A    
C6    C13   A    
Cu2   O10   S    
