data_mof_unit_62849.cif
_audit_creation_date              2012-12-10T17:00:49-0500
_audit_creation_method            fapswitch 2.2
_symmetry_space_group_name_H-M    P1
_symmetry_Int_Tables_number       1
_space_group_crystal_system       triclinic
_cell_length_a                    13.127348
_cell_length_b                    13.13523
_cell_length_c                    19.480471
_cell_angle_alpha                 100.368039
_cell_angle_beta                  80.2998
_cell_angle_gamma                 90.987577
_cell_volume                      3256.64865085

loop_
_atom_site_label
_atom_site_type_symbol
_atom_type_description
_atom_site_fract_x
_atom_site_fract_y
_atom_site_fract_z
_atom_type_partial_charge
C1    C     C_R   0.223014 0.536126 0.526955 0.511896
C2    C     C_2   0.459454 0.534319 0.989117 -0.082329
C3    C     C_2   0.508772 0.463624 0.013659 -0.099853
C4    C     C_R   0.776090 0.463450 0.472989 0.507715
C5    C     C_R   0.511315 0.485875 0.234413 0.059049
C6    C     C_2   0.887529 0.450848 0.462056 -0.082852
C7    C     C_2   0.940504 0.495688 0.511763 -0.152025
C8    C     C_2   0.110191 0.546995 0.540596 -0.107398
C9    C     C_2   0.053473 0.488659 0.498096 -0.152907
C10   C     C_2   0.550026 0.887592 0.532449 0.045384
C11   C     C_2   0.501059 0.942966 0.495781 -0.143817
C12   C     C_R   0.461593 0.528214 0.912659 0.071845
C13   C     C_2   0.455018 0.110761 0.470207 -0.110467
C14   C     C_2   0.509364 0.055919 0.503505 -0.161507
C15   C     C_R   0.466710 0.223329 0.479228 0.510912
C16   C     C_R   0.533677 0.776261 0.521164 0.525637
C17   C     C_R   0.509556 0.487990 0.309846 0.499790
C18   C     C_R   0.488142 0.512618 0.690291 0.498408
C19   C     C_R   0.476894 0.514494 0.766309 0.007751
C20   C     C_R   0.444238 0.426636 0.796696 0.004523
C21   C     C_R   0.436305 0.434434 0.871168 0.252225
C22   C     C_3   0.410347 0.329394 0.750997 -0.265665
C23   C     C_R   0.490250 0.615735 0.881491 -0.017496
C24   C     C_3   0.496848 0.247610 0.728457 -0.428399
C25   C     C_3   0.617528 0.937357 0.585453 -0.283587
C26   C     C_3   0.664895 0.860921 0.622355 -0.430295
C27   C     C_3   0.530458 0.684350 0.248001 -0.268352
C28   C     C_3   0.428348 0.720580 0.295905 -0.422260
C29   C     C_3   0.517078 0.718086 0.923924 -0.281845
C30   C     C_3   0.421409 0.787723 0.949587 -0.435341
C31   C     C_R   0.496989 0.607627 0.808642 -0.140933
C32   C     C_R   0.522607 0.568654 0.131817 -0.100382
C33   C     C_R   0.522199 0.577186 0.204545 0.014427
C34   C     C_R   0.501289 0.389722 0.191330 -0.136655
C35   C     C_R   0.502652 0.382799 0.119160 -0.115861
C36   C     C_R   0.511394 0.472218 0.089408 0.014236
H1    H     H_    0.494754 0.307842 0.086721 0.120394
H2    H     H_    0.545992 0.396688 0.977635 0.155329
H3    H     H_    0.531747 0.637483 0.108069 0.094208
H4    H     H_    0.519990 0.674377 0.784279 0.120092
H5    H     H_    0.421567 0.600656 0.025250 0.111181
H6    H     H_    0.565258 0.277933 0.697016 0.189031
H7    H     H_    0.521111 0.223495 0.775047 0.133911
H8    H     H_    0.469243 0.178399 0.695199 0.133311
H9    H     H_    0.340230 0.296665 0.779077 0.141607
H10   H     H_    0.385460 0.347264 0.702730 0.151949
H11   H     H_    0.603249 0.821045 0.653605 0.158728
H12   H     H_    0.090830 0.435127 0.451777 0.162054
H13   H     H_    0.714287 0.802722 0.582850 0.155072
H14   H     H_    0.713687 0.903482 0.659092 0.131298
H15   H     H_    0.681932 0.978295 0.557479 0.143751
H16   H     H_    0.570424 0.994962 0.626950 0.137585
H17   H     H_    0.365790 0.719333 0.263821 0.151217
H18   H     H_    0.406474 0.670901 0.336296 0.156336
H19   H     H_    0.436256 0.801077 0.323855 0.128327
H20   H     H_    0.593452 0.686510 0.279624 0.181608
H21   H     H_    0.551714 0.741907 0.212729 0.124973
H22   H     H_    0.388818 0.804606 0.903712 0.160772
H23   H     H_    0.900473 0.539864 0.561369 0.129521
H24   H     H_    0.361554 0.750056 0.983694 0.151946
H25   H     H_    0.442760 0.861920 0.980799 0.136514
H26   H     H_    0.552730 0.706485 0.969792 0.137094
H27   H     H_    0.575821 0.758657 0.890802 0.139915
H28   H     H_    0.405498 0.288172 0.873330 0.322755
H29   H     H_    0.073218 0.601888 0.586226 0.106816
H30   H     H_    0.927018 0.411708 0.410761 0.093402
H31   H     H_    0.560882 0.095685 0.537258 0.157033
H32   H     H_    0.452462 0.903469 0.459444 0.110838
H33   H     H_    0.402584 0.072802 0.436315 0.104693
H34   H     H_    0.493313 0.319551 0.213621 0.120583
O1    O     O_3   0.500000 0.500000 0.500000 -0.435727
O2    O     O_R   0.441420 0.437150 0.344000 -0.544722
O3    O     O_R   0.438960 0.578560 0.667440 -0.544641
O4    O     O_R   0.575450 0.541060 0.341470 -0.550606
O5    O     O_R   0.544160 0.443230 0.647100 -0.547939
O6    O     O_3   0.399526 0.354985 0.906280 -0.718200
O7    O     O_R   0.530110 0.266880 0.518530 -0.547096
O8    O     O_R   0.465470 0.738830 0.563940 -0.541774
O9    O     O_R   0.266890 0.467300 0.476120 -0.540304
O10   O     O_R   0.737530 0.526990 0.441410 -0.535267
O11   O     O_R   0.276880 0.592620 0.567490 -0.538118
O12   O     O_R   0.718700 0.413090 0.514970 -0.533788
O13   O     O_R   0.414920 0.276880 0.447500 -0.538125
O14   O     O_R   0.589510 0.717410 0.470040 -0.543418
Zn1   Zn    Zn3+2 0.571990 0.407410 0.544380 0.919033
Zn2   Zn    Zn3+2 0.407420 0.421690 0.442900 0.930805
Zn3   Zn    Zn3+2 0.598910 0.570150 0.439280 0.924438
Zn4   Zn    Zn3+2 0.421690 0.600750 0.573440 0.928030

loop_
_geom_bond_atom_site_label_1
_geom_bond_atom_site_label_2
_ccdc_geom_bond_type
C29   H27   S    
C18   O5    A    
C1    C8    S    
C24   H6    S    
C35   C36   A    
O14   Zn3   S    
C19   C31   A    
C27   C33   S    
C12   C23   A    
C23   C29   S    
C35   H1    S    
C4    O10   A    
O10   Zn3   S    
C26   H14   S    
C11   C14   S    
C5    C17   S    
C2    H5    S    
C1    O11   A    
C16   O14   A    
C31   H4    S    
C34   C35   A    
C32   H3    S    
O1    Zn1   S    
O5    Zn1   S    
C19   C20   A    
C3    H2    S    
C8    C9    D    
C30   H24   S    
C14   H31   S    
O4    Zn3   S    
C34   H34   S    
O7    Zn1   S    
C8    H29   S    
C13   C14   D    
C7    H23   S    
C28   H19   S    
C4    C6    S    
C27   H21   S    
C26   H13   S    
C28   H18   S    
C27   H20   S    
C18   C19   S    
C15   O13   A    
C25   C26   S    
C12   C21   A    
C5    C33   A    
C23   C31   A    
C25   H15   S    
O3    Zn4   S    
C29   C30   S    
O1    Zn2   S    
C21   O6    S    
C5    C34   A    
O13   Zn2   S    
H28   O6    S    
C26   H11   S    
C17   O2    A    
O1    Zn3   S    
C10   C25   S    
C22   H10   S    
C20   C22   S    
C18   O3    A    
C13   C15   S    
C17   O4    A    
C1    O9    A    
C22   C24   S    
C32   C36   A    
C11   H32   S    
C2    C12   S    
O8    Zn4   S    
C7    C9    S    
C29   H26   S    
O2    Zn2   S    
C28   H17   S    
C6    C7    D    
O12   Zn1   S    
C32   C33   A    
C2    C3    D    
C25   H16   S    
C10   C16   S    
C15   O7    A    
C13   H33   S    
C3    C36   S    
C24   H8    S    
C30   H22   S    
C16   O8    A    
O11   Zn4   S    
C10   C11   D    
O1    Zn4   S    
C6    H30   S    
C22   H9    S    
C4    O12   A    
C20   C21   A    
C9    H12   S    
C30   H25   S    
C27   C28   S    
C24   H7    S    
O9    Zn2   S    
