data_mof_unit_39959.cif
_audit_creation_date              2012-12-11T14:07:17-0500
_audit_creation_method            fapswitch 2.2
_symmetry_space_group_name_H-M    P1
_symmetry_Int_Tables_number       1
_space_group_crystal_system       triclinic
_cell_length_a                    19.870023
_cell_length_b                    17.14655
_cell_length_c                    15.388779
_cell_angle_alpha                 89.543584
_cell_angle_beta                  53.485816
_cell_angle_gamma                 90.14144
_cell_volume                      4213.54057339

loop_
_atom_site_label
_atom_site_type_symbol
_atom_type_description
_atom_site_fract_x
_atom_site_fract_y
_atom_site_fract_z
_atom_type_partial_charge
C1    C     C_R   0.381709 0.198723 0.988261 0.389763
C2    C     C_R   0.347727 0.817251 0.034785 0.454702
C3    C     C_R   0.878445 0.697381 0.992062 0.417185
C4    C     C_R   0.879113 0.302103 0.991529 0.421923
C5    C     C_R   0.657997 0.907488 0.070792 -0.017293
C6    C     C_R   0.659447 0.090952 0.068293 -0.065918
C7    C     C_R   0.166868 0.415369 0.054660 -0.002422
C8    C     C_R   0.132473 0.605944 0.105829 -0.073723
C9    C     C_R   0.695899 0.158593 0.007048 0.096599
C10   C     C_R   0.692044 0.838854 0.013455 0.099898
C11   C     C_R   0.148727 0.684377 0.073420 0.109561
C12   C     C_R   0.205790 0.350022 0.989195 0.069032
C13   C     C_R   0.674653 0.851314 0.675457 0.130716
C14   C     C_R   0.668109 0.157878 0.675671 0.117539
C15   C     C_R   0.116549 0.321761 0.691675 0.142768
C16   C     C_R   0.185094 0.644308 0.675953 0.113346
C17   C     C_3   0.180086 0.148724 0.503615 -0.505697
C18   C     C_3   0.262838 0.793513 0.449600 -0.558234
C19   C     C_3   0.743279 0.692315 0.473321 -0.532302
C20   C     C_3   0.757759 0.300332 0.442000 -0.572398
C21   C     C_3   0.129808 0.192224 0.611885 0.323200
C22   C     C_3   0.201416 0.751169 0.557624 0.328058
C23   C     C_3   0.686804 0.735289 0.579137 0.315775
C24   C     C_3   0.691513 0.261780 0.550972 0.335148
C25   C     C_3   0.309260 0.221274 0.462392 -0.381348
C26   C     C_3   0.377349 0.772150 0.471780 -0.351550
C27   C     C_3   0.870261 0.740317 0.463086 -0.381141
C28   C     C_3   0.866004 0.277910 0.476013 -0.357785
C29   C     C_3   0.819749 0.816022 0.370774 0.369231
C30   C     C_3   0.845771 0.177729 0.372925 0.406926
C31   C     C_3   0.230575 0.272887 0.391987 0.348992
C32   C     C_3   0.354343 0.674273 0.368878 0.381283
C33   C     C_3   0.260095 0.196641 0.417165 0.087882
C34   C     C_3   0.353258 0.762612 0.392941 0.041005
C35   C     C_3   0.831019 0.732249 0.400985 0.086375
C36   C     C_3   0.846222 0.266469 0.393235 0.035509
C37   C     C_3   0.732296 0.810650 0.575234 -0.039390
C38   C     C_3   0.733114 0.196336 0.573855 -0.028811
C39   C     C_3   0.165167 0.276624 0.592600 -0.049900
C40   C     C_3   0.247718 0.685382 0.573020 -0.064595
C41   C     C_3   0.812295 0.788272 0.565822 0.315315
C42   C     C_3   0.801041 0.233937 0.581787 0.291862
C43   C     C_3   0.255875 0.273478 0.560071 0.319165
C44   C     C_3   0.317485 0.723834 0.576185 0.304572
C45   C     C_R   0.406503 0.799609 0.204372 -0.196560
C46   C     C_R   0.353027 0.173569 0.216504 -0.096348
C47   C     C_R   0.903917 0.299961 0.204435 -0.194807
C48   C     C_R   0.894797 0.697337 0.208957 -0.163879
C49   C     C_3   0.758649 0.861012 0.474282 -0.416376
C50   C     C_3   0.777190 0.136874 0.479018 -0.413085
C51   C     C_3   0.167040 0.314638 0.498452 -0.400104
C52   C     C_3   0.290254 0.629408 0.474508 -0.367102
C53   C     C_2   0.188791 0.742793 0.095995 -0.083433
C54   C     C_2   0.274123 0.308488 0.976147 -0.103215
C55   C     C_2   0.761426 0.201388 0.996650 -0.114104
C56   C     C_2   0.756678 0.795235 0.003826 -0.105893
C57   C     C_2   0.803076 0.256280 0.919761 -0.026300
C58   C     C_2   0.798079 0.741973 0.926153 -0.086337
C59   C     C_2   0.225026 0.804107 0.027963 -0.094143
C60   C     C_2   0.309681 0.247713 0.909175 -0.092285
C61   C     C_R   0.332898 0.910382 0.946164 -0.144231
C62   C     C_R   0.366018 0.112027 0.896444 -0.166557
C63   C     C_R   0.864092 0.389944 0.898672 -0.183938
C64   C     C_R   0.862433 0.609823 0.900668 -0.150394
C65   C     C_R   0.361677 0.084998 0.316404 0.469259
C66   C     C_R   0.423743 0.887543 0.292317 0.536806
C67   C     C_R   0.900137 0.605632 0.307426 0.469129
C68   C     C_R   0.923773 0.386823 0.291741 0.504881
C69   C     C_R   0.350654 0.188627 0.930021 0.044549
C70   C     C_R   0.294907 0.844977 0.011506 0.011705
C71   C     C_R   0.845115 0.685284 0.937245 0.043435
C72   C     C_R   0.847479 0.313869 0.934436 0.032856
C73   C     C_R   0.407404 0.809710 0.292134 -0.003022
C74   C     C_R   0.316271 0.148531 0.320850 -0.087424
C75   C     C_R   0.904821 0.309738 0.291934 0.023547
C76   C     C_R   0.880599 0.682636 0.306488 -0.047680
C77   C     C_R   0.650615 0.186473 0.972410 -0.058659
C78   C     C_R   0.647157 0.811929 0.978107 -0.088555
C79   C     C_R   0.121153 0.699847 0.012287 -0.086430
C80   C     C_R   0.157347 0.320183 0.959674 -0.056409
C81   C     C_R   0.640728 0.821105 0.777843 -0.072140
C82   C     C_R   0.634769 0.184848 0.778273 -0.038096
C83   C     C_R   0.105603 0.303661 0.787259 -0.074623
C84   C     C_R   0.145888 0.675951 0.778606 -0.056164
C85   C     C_R   0.624141 0.092767 0.683758 -0.047155
C86   C     C_R   0.629473 0.914529 0.683671 -0.018971
C87   C     C_R   0.138097 0.581009 0.684261 0.014944
C88   C     C_R   0.093298 0.397124 0.695807 -0.051569
H1    H     H_    0.141593 0.139792 0.473744 0.235860
H2    H     H_    0.243677 0.786036 0.395289 0.240175
H3    H     H_    0.715286 0.690931 0.428530 0.232406
H4    H     H_    0.741860 0.291761 0.384507 0.237768
H5    H     H_    0.326560 0.170468 0.489532 0.200704
H6    H     H_    0.370981 0.834134 0.495831 0.203011
H7    H     H_    0.878955 0.683620 0.489053 0.208840
H8    H     H_    0.862196 0.340714 0.495704 0.193394
H9    H     H_    0.791450 0.812576 0.326549 0.086910
H10   H     H_    0.830237 0.167963 0.315474 0.086518
H11   H     H_    0.199490 0.257394 0.353532 0.087845
H12   H     H_    0.335270 0.666116 0.314722 0.106144
H13   H     H_    0.369411 0.250458 0.398380 0.255895
H14   H     H_    0.443725 0.755724 0.431654 0.272247
H15   H     H_    0.933770 0.767056 0.409798 0.254149
H16   H     H_    0.930699 0.258742 0.441488 0.270890
H17   H     H_    0.199285 0.729876 0.156104 0.180445
H18   H     H_    0.283678 0.320207 0.037057 0.189240
H19   H     H_    0.766938 0.194026 0.062211 0.169500
H20   H     H_    0.763424 0.801725 0.068354 0.172096
H21   H     H_    0.794825 0.265095 0.856651 0.145193
H22   H     H_    0.789085 0.734280 0.863677 0.134040
H23   H     H_    0.212846 0.818830 0.969951 0.132558
H24   H     H_    0.297675 0.234917 0.850575 0.136310
H25   H     H_    0.312630 0.944322 0.906176 0.139404
H26   H     H_    0.359482 0.086194 0.837898 0.143917
H27   H     H_    0.856629 0.416965 0.841146 0.141711
H28   H     H_    0.853453 0.583103 0.844764 0.139928
H29   H     H_    0.194251 0.089780 0.517967 0.238743
H30   H     H_    0.260358 0.857191 0.464909 0.214274
H31   H     H_    0.746534 0.630725 0.492948 0.226337
H32   H     H_    0.757157 0.364371 0.453889 0.197368
N1    N     N_R   0.408680 0.130160 0.995800 -0.091190
N2    N     N_R   0.408680 0.869840 0.995800 -0.083223
N3    N     N_R   0.908680 0.630160 0.995800 -0.085428
N4    N     N_R   0.908680 0.369840 0.995800 -0.084544
N5    N     N_R   0.421680 0.867580 0.153120 -0.081736
N6    N     N_R   0.421680 0.132420 0.153120 -0.067596
N7    N     N_R   0.921680 0.367580 0.153120 -0.072908
N8    N     N_R   0.921680 0.632420 0.153120 -0.074452
N9    N     N_R   0.403730 0.921770 0.935950 -0.067524
N10   N     N_R   0.403730 0.078230 0.935950 -0.073004
N11   N     N_R   0.903730 0.421770 0.935950 -0.069191
N12   N     N_R   0.903730 0.578230 0.935950 -0.069515
N13   N     N_R   0.426630 0.075970 0.212960 -0.085782
N14   N     N_R   0.426630 0.924030 0.212960 -0.096567
N15   N     N_R   0.926630 0.575970 0.212960 -0.089077
N16   N     N_R   0.926630 0.424030 0.212960 -0.091323
N17   N     N_R   0.591320 0.134600 0.004200 -0.048193
N18   N     N_R   0.591320 0.865400 0.004200 -0.055566
N19   N     N_R   0.091320 0.634600 0.004200 -0.053562
N20   N     N_R   0.091320 0.365400 0.004200 -0.049310
N21   N     N_R   0.578320 0.867660 0.846880 -0.040443
N22   N     N_R   0.578320 0.132340 0.846880 -0.042927
N23   N     N_R   0.078320 0.367660 0.846880 -0.044859
N24   N     N_R   0.078320 0.632340 0.846880 -0.040648
N25   N     N_R   0.573370 0.074390 0.787040 -0.061418
N26   N     N_R   0.573370 0.925610 0.787040 -0.054930
N27   N     N_R   0.073370 0.574390 0.787040 -0.060634
N28   N     N_R   0.073370 0.425610 0.787040 -0.059209
N29   N     N_R   0.596270 0.927870 0.064040 -0.053505
N30   N     N_R   0.596270 0.072130 0.064040 -0.054550
N31   N     N_R   0.096270 0.427870 0.064040 -0.048341
N32   N     N_R   0.096270 0.572130 0.064040 -0.059487
Ni1   Ni    Ni4+2 0.500000 0.131190 0.000000 0.300611
Ni2   Ni    Ni4+2 0.500000 0.868810 0.000000 0.278657
Ni3   Ni    Ni4+2 1.000000 0.631190 0.000000 0.282103
Ni4   Ni    Ni4+2 1.000000 0.368810 0.000000 0.282728
Ni5   Ni    Ni4+2 0.488650 1.000000 0.862740 0.250373
Ni6   Ni    Ni4+2 0.988650 0.500000 0.862740 0.239947
Ni7   Ni    Ni4+2 0.511350 1.000000 0.137260 0.303719
Ni8   Ni    Ni4+2 0.011350 0.500000 0.137260 0.303538
Cl1   Cl    Cl    0.428163 0.285896 0.990417 -0.619992
Cl2   Cl    Cl    0.361948 0.718460 0.051582 -0.658319
Cl3   Cl    Cl    0.923102 0.786861 0.990402 -0.651190
Cl4   Cl    Cl    0.922591 0.213068 0.993150 -0.658242
Cl5   Cl    Cl    0.586848 0.753114 0.605524 -0.557737
Cl6   Cl    Cl    0.604783 0.228383 0.552556 -0.607807
Cl7   Cl    Cl    0.019904 0.189796 0.671288 -0.527755
Cl8   Cl    Cl    0.112378 0.717141 0.564842 -0.601891
H33   H     H_    0.137418 0.161149 0.669284 0.101258
H34   H     H_    0.176730 0.794126 0.623853 0.112625
H35   H     H_    0.674188 0.696416 0.645763 0.099067
H36   H     H_    0.665876 0.306511 0.615302 0.107253
H37   H     H_    0.794588 0.751658 0.636703 0.060343
H38   H     H_    0.771703 0.277268 0.647947 0.053453
H39   H     H_    0.254823 0.247756 0.627609 0.064747
H40   H     H_    0.288865 0.764385 0.645455 0.066426
Cl9   Cl    Cl    0.917045 0.869086 0.285105 -0.551610
Cl10  Cl    Cl    0.945879 0.133724 0.314381 -0.519100
Cl11  Cl    Cl    0.314581 0.340984 0.302091 -0.535969
Cl12  Cl    Cl    0.456914 0.633282 0.300726 -0.534632
H41   H     H_    0.703274 0.874543 0.475776 0.179604
H42   H     H_    0.731856 0.111202 0.467124 0.168244
H43   H     H_    0.103830 0.311414 0.516815 0.196968
H44   H     H_    0.242997 0.603668 0.466243 0.177756
H45   H     H_    0.785984 0.917808 0.473979 0.241553
H46   H     H_    0.802941 0.087329 0.497612 0.254354
H47   H     H_    0.184019 0.377471 0.488270 0.232223
H48   H     H_    0.319902 0.579741 0.486515 0.269991
H49   H     H_    0.411021 0.743903 0.170078 0.215489
H50   H     H_    0.332771 0.219346 0.189230 0.193241
H51   H     H_    0.897901 0.245687 0.175346 0.203094
H52   H     H_    0.891562 0.752259 0.177760 0.213564
Cl13  Cl    Cl    0.866541 0.872009 0.566536 -0.506640
Cl14  Cl    Cl    0.850987 0.163789 0.613218 -0.513048
Cl15  Cl    Cl    0.303756 0.368428 0.534163 -0.540808
Cl16  Cl    Cl    0.374178 0.653638 0.596165 -0.493526
Cl17  Cl    Cl    0.341788 0.030560 0.426818 -0.691148
Cl18  Cl    Cl    0.490719 0.917578 0.325782 -0.631136
Cl19  Cl    Cl    0.886194 0.551521 0.414262 -0.674822
Cl20  Cl    Cl    0.997999 0.408881 0.315991 -0.629426
H53   H     H_    0.655930 0.242470 0.936236 0.107159
H54   H     H_    0.650140 0.755585 0.945227 0.110895
H55   H     H_    0.111119 0.755904 0.989296 0.134887
H56   H     H_    0.166417 0.267851 0.915411 0.104347
H57   H     H_    0.656048 0.766895 0.797982 0.083159
H58   H     H_    0.647449 0.239516 0.800145 0.100044
H59   H     H_    0.112176 0.247266 0.813239 0.127596
H60   H     H_    0.163013 0.727963 0.800618 0.102965
H61   H     H_    0.623730 0.066045 0.621185 0.120503
H62   H     H_    0.630829 0.944143 0.621032 0.093447
H63   H     H_    0.147319 0.545643 0.620512 0.114738
H64   H     H_    0.082972 0.427204 0.642812 0.098136
H65   H     H_    0.673569 0.935401 0.119327 0.136292
H66   H     H_    0.674666 0.062523 0.117254 0.127229
H67   H     H_    0.186976 0.448030 0.095381 0.140280
H68   H     H_    0.137434 0.579091 0.165615 0.151064

loop_
_geom_bond_atom_site_label_1
_geom_bond_atom_site_label_2
_ccdc_geom_bond_type
C61   C70   A    
N5    N14   A    
C79   N19   A    
C66   Cl18  S    
N32   Ni8   S    
C25   H5    S    
C64   H28   S    
N3    N12   A    
C62   N10   A    
C39   C51   S    
C46   C74   A    
N1    N10   A    
C82   N22   A    
C84   H60   S    
C2    Cl2   S    
C6    C9    A    
N9    Ni5   S    
C53   C59   D    
C26   C44   S    
N26   Ni5   S    
C54   C60   D    
C68   C75   A    
C20   H4    S    
N1    Ni1   S    
N10   Ni5   S    
C43   Cl15  S    
C8    N32   A    
C85   N25   A    
C38   C42   S    
C67   Cl19  S    
C58   C71   S    
C78   N18   A    
C14   C38   S    
C84   N24   A    
C24   C38   S    
C13   C81   A    
N19   N32   A    
C16   C84   A    
C5    N29   A    
C4    N4    A    
C45   C73   A    
C64   C71   A    
C28   C42   S    
C42   Cl14  S    
C27   C41   S    
C56   H20   S    
C41   Cl13  S    
N8    Ni3   S    
C68   Cl20  S    
C66   N14   A    
C43   H39   S    
C26   C34   S    
C32   C52   S    
C20   C24   S    
N6    N13   A    
C45   N5    A    
C20   H32   S    
C6    H66   S    
C13   C86   A    
C16   C87   A    
C83   H59   S    
C4    Cl4   S    
C9    C55   S    
C63   N11   A    
C18   C22   S    
C10   C56   S    
C29   H9    S    
C18   H30   S    
N2    N9    A    
C13   C37   S    
C11   C53   S    
C3    Cl3   S    
C63   H27   S    
N18   Ni2   S    
C51   H47   S    
C81   N21   A    
N14   Ni7   S    
C30   C50   S    
C19   H31   S    
N22   Ni1   S    
C29   Cl9   S    
C37   C41   S    
N2    Ni2   S    
N22   N25   A    
C25   C43   S    
C50   H42   S    
C11   C79   A    
C17   C33   S    
C46   H50   S    
N24   N27   A    
C86   N26   A    
C3    N3    A    
C77   N17   A    
C2    N2    A    
N18   N29   A    
C30   Cl10  S    
C7    C12   A    
C57   H21   S    
C35   C76   S    
C44   Cl16  S    
N30   Ni7   S    
C54   H18   S    
C18   H2    S    
C64   N12   A    
C68   N16   A    
C17   H1    S    
N7    N16   A    
C42   H38   S    
N8    N15   A    
C62   H26   S    
C19   C23   S    
C20   C36   S    
C15   C83   A    
C34   C73   S    
C78   H54   S    
C40   C52   S    
C66   C73   A    
N12   Ni6   S    
C65   C74   A    
C32   H12   S    
C62   C69   A    
C31   Cl11  S    
C52   H44   S    
N13   Ni7   S    
C32   C34   S    
N11   Ni6   S    
C24   Cl6   S    
C17   C21   S    
C67   N15   A    
C60   H24   S    
C36   C75   S    
C23   C37   S    
C48   N8    A    
N25   Ni5   S    
C28   H16   S    
C59   H23   S    
C21   C39   S    
N19   Ni3   S    
C22   C40   S    
C4    C72   A    
C31   C33   S    
C88   N28   A    
N17   Ni1   S    
N28   Ni6   S    
C29   C49   S    
C6    N30   A    
N29   Ni7   S    
N20   N31   A    
C15   C39   S    
C37   C49   S    
C22   H34   S    
C87   N27   A    
N21   N26   A    
C16   C40   S    
C49   H41   S    
C45   H49   S    
N20   Ni4   S    
C31   H11   S    
C26   H6    S    
C55   C57   D    
C61   H25   S    
N4    N11   A    
C7    N31   A    
N17   N30   A    
C12   C54   S    
C50   H46   S    
C82   H58   S    
N5    Ni2   S    
C81   H57   S    
C30   H10   S    
C41   H37   S    
C7    H67   S    
N15   Ni8   S    
C1    N1    A    
C58   H22   S    
C87   H63   S    
C22   Cl8   S    
C46   N6    A    
C44   H40   S    
C14   C85   A    
C31   C51   S    
C8    H68   S    
C77   H53   S    
N7    Ni4   S    
C39   C43   S    
C47   N7    A    
C3    C71   A    
C38   C50   S    
C61   N9    A    
C86   H62   S    
C29   C35   S    
C79   H55   S    
C21   Cl7   S    
C30   C36   S    
C28   H8    S    
C27   C35   S    
N31   Ni8   S    
N24   Ni3   S    
N4    Ni4   S    
C9    C77   A    
C47   C75   A    
C5    C10   A    
C80   N20   A    
C26   H14   S    
C83   N23   A    
C25   H13   S    
N23   Ni4   S    
C80   H56   S    
C2    C70   A    
C60   C69   S    
C18   C34   S    
C8    C11   A    
C21   H33   S    
C5    H65   S    
C12   C80   A    
C27   H15   S    
C63   C72   A    
C56   C58   D    
C10   C78   A    
C57   C72   S    
C47   H51   S    
C24   H36   S    
C1    C69   A    
N23   N28   A    
C48   H52   S    
C19   H3    S    
C59   C70   S    
C1    Cl1   S    
C48   C76   A    
N16   Ni8   S    
N6    Ni1   S    
C53   H17   S    
C33   C74   S    
C40   C44   S    
C49   H45   S    
C85   H61   S    
C28   C36   S    
C88   H64   S    
C55   H19   S    
C23   Cl5   S    
C14   C82   A    
C32   Cl12  S    
C19   C35   S    
C67   C76   A    
C52   H48   S    
C27   H7    S    
N21   Ni2   S    
C65   Cl17  S    
N27   Ni6   S    
C65   N13   A    
N3    Ni3   S    
C17   H29   S    
C25   C33   S    
C15   C88   A    
C23   H35   S    
C51   H43   S    
