data_mof_unit_21454.cif
_audit_creation_date              2012-12-10T18:18:27-0500
_audit_creation_method            fapswitch 2.2
_symmetry_space_group_name_H-M    P1
_symmetry_Int_Tables_number       1
_space_group_crystal_system       triclinic
_cell_length_a                    14.147201
_cell_length_b                    15.018196
_cell_length_c                    15.584339
_cell_angle_alpha                 87.948711
_cell_angle_beta                  67.699363
_cell_angle_gamma                 90.154636
_cell_volume                      3061.04102142

loop_
_atom_site_label
_atom_site_type_symbol
_atom_type_description
_atom_site_fract_x
_atom_site_fract_y
_atom_site_fract_z
_atom_type_partial_charge
C1    C     C_R   0.500281 0.673293 0.499646 0.890236
C2    C     C_R   0.500643 0.769220 0.499797 -0.062936
C3    C     C_R   0.416542 0.185267 0.493196 -0.237278
C4    C     C_R   0.584200 0.814791 0.505290 -0.237338
C5    C     C_R   0.415868 0.092646 0.490507 0.034110
C6    C     C_R   0.585244 0.907452 0.507308 0.034377
C7    C     C_R   0.500121 0.046448 0.498085 0.075861
C8    C     C_R   0.501019 0.953655 0.499667 0.075995
C9    C     C_R   0.583608 0.093235 0.504444 0.076246
C10   C     C_R   0.417438 0.906869 0.493472 0.076984
C11   C     C_R   0.333104 0.044823 0.482518 -0.077367
C12   C     C_R   0.499797 0.326714 0.500182 0.889496
C13   C     C_R   0.668239 0.955300 0.514867 -0.077607
C14   C     C_R   0.334921 0.951902 0.485339 -0.146794
C15   C     C_R   0.666319 0.048221 0.512197 -0.145273
C16   C     C_R   0.436021 0.500456 0.675713 0.906355
C17   C     C_R   0.564004 0.499041 0.324289 0.907489
C18   C     C_R   0.176700 0.441371 0.557658 0.061133
C19   C     C_R   0.823217 0.558374 0.441785 0.058386
C20   C     C_R   0.224994 0.559178 0.442593 0.068731
C21   C     C_R   0.775742 0.439854 0.556195 0.071427
C22   C     C_R   0.121212 0.568237 0.451322 -0.090142
C23   C     C_R   0.392518 0.428611 0.096819 -0.176205
C24   C     C_R   0.879861 0.430705 0.546385 -0.091647
C25   C     C_R   0.050619 0.499865 0.499388 -0.048524
C26   C     C_R   0.950072 0.499534 0.498910 -0.050832
C27   C     C_R   0.080729 0.431735 0.547888 -0.087585
C28   C     C_R   0.919820 0.567634 0.450485 -0.085922
C29   C     C_R   0.084920 0.643841 0.416238 0.366752
C30   C     C_R   0.917054 0.354322 0.579324 0.374578
C31   C     C_R   0.985315 0.643445 0.415704 0.366264
C32   C     C_R   0.016153 0.355177 0.580919 0.362901
C33   C     C_R   0.396686 0.493739 0.776818 -0.146668
C34   C     C_R   0.624521 0.503192 0.894866 -0.167158
C35   C     C_R   0.603930 0.494070 0.223422 -0.147505
C36   C     C_R   0.270196 0.441059 0.924059 0.414332
C37   C     C_R   0.740624 0.508000 0.071998 0.411446
C38   C     C_R   0.298048 0.462047 0.829643 -0.204350
C39   C     C_R   0.707625 0.506386 0.168592 -0.200832
C40   C     C_R   0.465310 0.509339 0.819167 -0.209711
C41   C     C_R   0.534485 0.477682 0.182034 -0.216650
C42   C     C_R   0.444001 0.480801 0.910819 0.058936
C43   C     C_R   0.564804 0.476771 0.086004 0.050043
C44   C     C_R   0.343707 0.448119 0.964880 0.036122
C45   C     C_R   0.320058 0.421494 0.057448 -0.123056
C46   C     C_R   0.668746 0.496467 0.030056 0.035340
C47   C     C_R   0.520341 0.483408 0.949314 0.091771
C48   C     C_R   0.492160 0.462864 0.045041 0.099512
C49   C     C_2   0.193173 0.397589 0.637198 0.508819
C50   C     C_2   0.806097 0.601616 0.362310 0.514202
C51   C     C_2   0.307345 0.605224 0.364209 0.523409
C52   C     C_2   0.694081 0.391657 0.633726 0.504045
C53   C     C_2   0.245588 0.088920 0.468359 0.532584
C54   C     C_2   0.756141 0.911266 0.528415 0.531902
C55   C     C_R   0.697432 0.506850 0.934196 -0.121757
C56   C     C_R   0.583167 0.185148 0.504236 -0.207423
C57   C     C_R   0.417536 0.814934 0.494336 -0.208459
C58   C     C_R   0.499815 0.230827 0.499248 -0.063049
Cl1   Cl    Cl    0.155383 0.746049 0.387741 -0.484664
Cl2   Cl    Cl    0.849146 0.250893 0.602302 -0.478633
Cl3   Cl    Cl    0.938705 0.744905 0.386291 -0.477460
Cl4   Cl    Cl    0.063754 0.253553 0.608764 -0.475635
Cl5   Cl    Cl    0.144100 0.402044 0.986785 -0.473395
Cl6   Cl    Cl    0.871884 0.527686 0.006885 -0.472381
H1    H     H_    0.245440 0.394357 0.100468 0.208585
H2    H     H_    0.353109 0.779067 0.489616 0.174856
H3    H     H_    0.352322 0.223027 0.491954 0.155067
H4    H     H_    0.648263 0.776969 0.506778 0.154087
H5    H     H_    0.272481 0.914059 0.479220 0.218669
H6    H     H_    0.728801 0.086077 0.518222 0.220399
H7    H     H_    0.266287 0.371551 0.630519 0.097864
H8    H     H_    0.733567 0.629529 0.369806 0.099362
H9    H     H_    0.368939 0.640166 0.373791 0.100667
H10   H     H_    0.628852 0.362370 0.625475 0.111358
H11   H     H_    0.251250 0.157120 0.441793 0.060505
H12   H     H_    0.775861 0.521402 0.888798 0.212670
H13   H     H_    0.750825 0.843034 0.554797 0.060691
H14   H     H_    0.455023 0.470672 0.226216 0.191060
H15   H     H_    0.536526 0.542360 0.777784 0.166439
H16   H     H_    0.762395 0.517349 0.200462 0.221130
H17   H     H_    0.243736 0.451271 0.797334 0.220177
H18   H     H_    0.369116 0.403109 0.167529 0.153937
H19   H     H_    0.653563 0.514060 0.820741 0.183655
H20   H     H_    0.647466 0.221012 0.509208 0.176505
N1    N     N_R   0.249980 0.499930 0.499960 -0.192525
N2    N     N_R   0.750020 0.500070 0.500040 -0.192924
O1    O     O_R   0.419720 0.632140 0.499980 -0.645949
O2    O     O_2   0.874397 0.604751 0.285301 -0.508337
O3    O     O_2   0.306925 0.603965 0.286029 -0.548269
O4    O     O_2   0.699142 0.384408 0.710125 -0.562792
O5    O     O_2   0.165313 0.048285 0.484761 -0.454748
O6    O     O_2   0.836428 0.952004 0.511651 -0.454769
O7    O     O_R   0.580280 0.367860 0.500020 -0.647550
O8    O     O_R   0.580270 0.632160 0.499970 -0.652128
O9    O     O_R   0.419730 0.367840 0.500030 -0.651542
O10   O     O_R   0.373870 0.499980 0.632250 -0.631996
O11   O     O_R   0.626130 0.500020 0.367750 -0.632831
O12   O     O_R   0.534420 0.500000 0.632240 -0.642979
O13   O     O_R   0.465580 0.500000 0.367760 -0.642947
O14   O     O_2   0.123580 0.391892 0.713404 -0.504468
Zn1   Zn    Zn3+2 0.392800 0.499980 0.500010 0.932603
Zn2   Zn    Zn3+2 0.607200 0.500020 0.499990 0.930918

loop_
_geom_bond_atom_site_label_1
_geom_bond_atom_site_label_2
_ccdc_geom_bond_type
C1    O1    A    
C23   C45   A    
C23   H18   S    
C31   Cl3   S    
C52   O4    D    
C57   H2    S    
C19   N2    A    
C2    C57   A    
C7    C8    A    
C22   C29   A    
C24   C26   A    
C5    C11   A    
C20   C51   S    
C52   H10   S    
C11   C14   A    
C1    C2    S    
C50   H8    S    
O1    Zn1   S    
C29   Cl1   S    
C1    O8    A    
C22   C25   A    
C30   Cl2   S    
C46   C55   A    
C53   O5    D    
C12   O9    A    
C36   Cl5   S    
C43   C48   A    
O11   Zn2   S    
C11   C53   S    
C50   O2    D    
C54   H13   S    
C12   C58   S    
C40   C42   A    
C34   C55   A    
O10   Zn1   S    
C41   C43   A    
C53   H11   S    
C42   C44   A    
C56   H20   S    
C16   O10   A    
C18   N1    A    
C33   C40   A    
C10   C57   A    
C4    C6    A    
C10   C14   A    
C41   H14   S    
C5    C7    A    
C6    C8    A    
C25   C26   A    
O12   Zn2   S    
C35   C39   A    
C54   O6    D    
C16   C33   S    
C47   C48   A    
C20   N1    A    
C40   H15   S    
C9    C56   A    
C19   C28   A    
C17   O13   A    
C55   H12   S    
C8    C10   A    
O13   Zn1   S    
C20   C22   A    
C13   C15   A    
C38   H17   S    
C45   H1    S    
C14   H5    S    
C12   O7    A    
C36   C44   A    
C34   H19   S    
N2    Zn2   S    
C37   Cl6   S    
N1    Zn1   S    
C44   C45   A    
C4    H4    S    
C13   C54   S    
C7    C9    A    
C15   H6    S    
C21   N2    A    
C23   C48   A    
C27   C32   A    
C28   C31   A    
C3    H3    S    
C18   C27   A    
C51   H9    S    
C3    C5    A    
O7    Zn2   S    
C25   C27   A    
C26   C28   A    
C33   C38   A    
C39   H16   S    
C36   C38   A    
C9    C15   A    
C32   Cl4   S    
C29   C31   A    
C51   O3    D    
C6    C13   A    
C30   C32   A    
C19   C50   S    
C16   O12   A    
C2    C4    A    
C56   C58   A    
C42   C47   A    
C35   C41   A    
C43   C46   A    
C24   C30   A    
C3    C58   A    
O8    Zn2   S    
C37   C39   A    
C49   H7    S    
C21   C24   A    
C34   C47   A    
C17   C35   S    
C37   C46   A    
C17   O11   A    
C21   C52   S    
O9    Zn1   S    
C18   C49   S    
C49   O14   D    
