data_mof_unit_51924.cif
_audit_creation_date              2012-12-10T16:50:14-0500
_audit_creation_method            fapswitch 2.2
_symmetry_space_group_name_H-M    P1
_symmetry_Int_Tables_number       1
_space_group_crystal_system       triclinic
_cell_length_a                    23.56145
_cell_length_b                    8.677947
_cell_length_c                    7.439919
_cell_angle_alpha                 103.129587
_cell_angle_beta                  95.43948
_cell_angle_gamma                 92.386161
_cell_volume                      1471.63221037

loop_
_atom_site_label
_atom_site_type_symbol
_atom_type_description
_atom_site_fract_x
_atom_site_fract_y
_atom_site_fract_z
_atom_type_partial_charge
C1    C     C_R   0.498263 0.199503 0.453001 0.890445
C2    C     C_R   0.501736 0.800497 0.546999 0.890548
C3    C     C_R   0.246278 0.541569 0.673760 -0.145890
C4    C     C_R   0.753663 0.458683 0.325747 -0.145901
C5    C     C_R   0.304846 0.540423 0.666613 -0.271874
C6    C     C_R   0.695108 0.459776 0.333125 -0.271768
C7    C     C_R   0.327590 0.488928 0.497158 -0.086267
C8    C     C_R   0.672415 0.510895 0.502737 -0.086294
C9    C     C_R   0.289713 0.435301 0.330403 0.134039
C10   C     C_R   0.710342 0.564094 0.669463 0.134051
C11   C     C_R   0.230131 0.448983 0.337456 0.211998
C12   C     C_R   0.769926 0.550593 0.662100 0.212051
C13   C     C_R   0.208775 0.496496 0.511475 0.324046
C14   C     C_R   0.791216 0.503493 0.487923 0.324171
C15   C     C_2   0.497424 0.031532 0.426541 -0.365894
C16   C     C_2   0.502575 0.968468 0.573458 -0.365891
C17   C     C_R   0.390687 0.494796 0.499126 0.814988
C18   C     C_R   0.609316 0.505134 0.500861 0.815037
C19   C     C_R   0.883678 0.645663 0.526943 0.542226
C20   C     C_R   0.116290 0.354401 0.472202 0.542263
C21   C     C_R   0.876195 0.363726 0.422176 0.539333
C22   C     C_R   0.123780 0.636349 0.576788 0.539297
C23   C     C_R   0.935599 0.360429 0.426347 -0.046686
C24   C     C_R   0.064374 0.639666 0.572537 -0.046665
C25   C     C_R   0.969916 0.502506 0.492766 -0.053532
C26   C     C_R   0.030055 0.497591 0.506135 -0.053516
C27   C     C_R   0.944119 0.648874 0.545904 -0.029012
C28   C     C_R   0.055850 0.351218 0.453050 -0.028990
C29   C     C_R   0.960899 0.217080 0.368077 -0.172249
C30   C     C_R   0.039073 0.783026 0.630736 -0.172271
C31   C     C_R   0.020266 0.209648 0.379538 0.139109
C32   C     C_R   0.979706 0.790457 0.619308 0.139094
Cu1   Cu    Cu3+1 0.506340 0.517380 0.684380 0.947302
Cu2   Cu    Cu3+1 0.493660 0.482620 0.315620 0.947314
N1    N     N_R   0.851703 0.504323 0.475001 -0.461367
N2    N     N_R   0.148273 0.495728 0.524134 -0.461330
N3    N     N_2   0.484110 0.456420 0.038520 -0.218350
N4    N     N_2   0.515890 0.543580 0.961480 -0.218359
O1    O     O_R   0.504120 0.286130 0.619770 -0.580878
O2    O     O_R   0.495880 0.713870 0.380230 -0.580858
O3    O     O_R   0.493410 0.256770 0.308360 -0.586568
O4    O     O_R   0.506590 0.743230 0.691640 -0.586532
O5    O     O_R   0.423230 0.514630 0.655730 -0.590960
O6    O     O_R   0.576770 0.485370 0.344270 -0.590963
O7    O     O_R   0.412530 0.485280 0.344320 -0.579783
O8    O     O_R   0.587470 0.514720 0.655680 -0.579847
O9    O     O_2   0.856409 0.781039 0.561578 -0.528832
O10   O     O_2   0.143549 0.218998 0.437818 -0.528903
O11   O     O_2   0.843058 0.227095 0.369235 -0.530695
O12   O     O_2   0.156919 0.772979 0.629671 -0.530721
H1    H     H_    0.934050 0.109159 0.312009 0.187319
H2    H     H_    0.065923 0.890952 0.686757 0.187340
C33   C     C_3   0.043087 0.049790 0.306091 -0.739787
H3    H     H_    0.008360 0.955974 0.248816 0.203325
H4    H     H_    0.069562 0.056158 0.191888 0.252958
H5    H     H_    0.068535 0.011531 0.419347 0.268818
C34   C     C_3   0.956888 0.950341 0.692644 -0.739719
H6    H     H_    0.991617 0.044196 0.749701 0.203322
H7    H     H_    0.931396 0.988470 0.579374 0.268798
H8    H     H_    0.930457 0.944087 0.806985 0.253034
H9    H     H_    0.229809 0.580213 0.806338 0.157751
H10   H     H_    0.770085 0.420299 0.193059 0.157628
H11   H     H_    0.332504 0.580463 0.795250 0.176348
H12   H     H_    0.667418 0.419997 0.204520 0.176343
C35   C     C_3   0.312153 0.360466 0.147889 -0.801979
H13   H     H_    0.342464 0.269954 0.168978 0.234490
H14   H     H_    0.278599 0.296010 0.039619 0.237186
H15   H     H_    0.333389 0.453198 0.091664 0.237759
C36   C     C_3   0.687944 0.638217 0.852289 -0.802117
H16   H     H_    0.657726 0.729132 0.831901 0.234669
H17   H     H_    0.666612 0.545157 0.907751 0.237739
H18   H     H_    0.721519 0.701998 0.960911 0.237080
C37   C     C_3   0.189601 0.418847 0.160421 -0.811724
H19   H     H_    0.147204 0.466139 0.182757 0.224415
H20   H     H_    0.207170 0.480223 0.060507 0.220720
H21   H     H_    0.183271 0.289591 0.098010 0.253876
C38   C     C_3   0.810530 0.580466 0.838948 -0.811701
H22   H     H_    0.793108 0.518414 0.938488 0.220651
H23   H     H_    0.852985 0.533705 0.816256 0.224432
H24   H     H_    0.816722 0.709644 0.901954 0.253746
H25   H     H_    0.492575 0.959471 0.285137 0.178988
H26   H     H_    0.507423 0.040529 0.714863 0.178987
H27   H     H_    0.454714 0.378476 0.947580 0.224814
H28   H     H_    0.545287 0.621523 0.052420 0.224825

loop_
_geom_bond_atom_site_label_1
_geom_bond_atom_site_label_2
_ccdc_geom_bond_type
Cu2   N3    S    
C37   H19   S    
C21   O11   S    
C15   H25   S    
C33   H3    S    
Cu1   O1    S    
Cu2   O2    S    
Cu1   O4    S    
C23   C29   A    
C24   C26   A    
C19   O9    S    
C34   H7    S    
C3    H9    S    
C15   C16   D    
C4    H10   S    
C5    H11   S    
C6    H12   S    
C36   H17   S    
C7    C17   S    
C1    C15   S    
C2    C16   S    
C3    C13   A    
C22   O12   S    
C33   H5    S    
C38   H23   S    
Cu1   O8    S    
C37   H20   S    
Cu2   O3    S    
C32   C34   S    
C18   O8    A    
C24   C30   A    
C33   H4    S    
Cu1   O5    S    
Cu2   O6    S    
C13   N2    S    
C4    C6    A    
C11   C37   S    
C14   N1    S    
C5    C7    A    
C34   H8    S    
C6    C8    A    
C20   C28   A    
C35   H14   S    
C25   C26   A    
C38   H22   S    
C8    C18   S    
C36   H18   S    
C17   O5    A    
N3    N4    D    
C18   O6    A    
C35   H15   S    
C12   C38   S    
C16   H26   S    
Cu1   Cu2   S    
Cu2   O7    S    
C31   C33   S    
C9    C11   A    
C20   O10   S    
C10   C12   A    
C1    O3    A    
C12   C14   A    
C21   C23   A    
C37   H21   S    
C22   C24   A    
C19   C27   A    
C29   H1    S    
C38   H24   S    
C7    C9    A    
C30   H2    S    
N4    H28   S    
C27   C32   A    
C28   C31   A    
C17   O7    A    
C3    C5    A    
C21   N1    A    
C25   C27   A    
C22   N2    A    
C26   C28   A    
Cu1   N4    S    
C29   C31   A    
C19   N1    A    
C30   C32   A    
C11   C13   A    
C34   H6    S    
C2    O4    A    
C23   C25   A    
C4    C14   A    
C36   H16   S    
C9    C35   S    
C1    O1    A    
C20   N2    A    
C10   C36   S    
C2    O2    A    
C8    C10   A    
C35   H13   S    
N3    H27   S    
