data_mof_unit_7034.cif
_audit_creation_date              2013-03-05T16:30:58-0500
_audit_creation_method            fapswitch 2.2
_symmetry_space_group_name_H-M    P1
_symmetry_Int_Tables_number       1
_space_group_crystal_system       triclinic
_cell_length_a                    13.005543
_cell_length_b                    10.813806
_cell_length_c                    9.535367
_cell_angle_alpha                 89.939626
_cell_angle_beta                  96.043001
_cell_angle_gamma                 90.216663
_cell_volume                      1333.58666523

loop_
_atom_site_label
_atom_site_type_symbol
_atom_site_description
_atom_site_fract_x
_atom_site_fract_y
_atom_site_fract_z
_atom_type_partial_charge
O1    O     O_R   0.500000 0.319640 0.618810 -0.584560
O2    O     O_R   0.500010 0.319680 0.381230 -0.542726
C1    C     C_R   0.506062 0.262435 0.500706 0.841477
O3    O     O_R   0.348990 0.499960 0.599490 -0.591169
O4    O     O_R   0.349000 0.500000 0.361910 -0.594432
C2    C     C_R   0.300517 0.499484 0.473792 0.797795
Cu1   Cu    Cu3+1 0.499990 0.499980 0.640670 0.949491
Cu2   Cu    Cu3+1 0.500010 0.500020 0.359330 0.981240
O5    O     O_R   0.499990 0.680320 0.618770 -0.581588
O6    O     O_R   0.500000 0.680360 0.381190 -0.588687
O7    O     O_R   0.651000 0.500000 0.638090 -0.590542
O8    O     O_R   0.651010 0.500040 0.400510 -0.567618
C3    C     C_R   0.502179 0.737712 0.500302 0.824575
C4    C     C_R   0.699535 0.499126 0.526231 0.820506
C5    C     C_R   0.812369 0.497473 0.541420 -0.051211
C6    C     C_R   0.187778 0.497864 0.458718 -0.050533
C7    C     C_R   0.024404 0.490642 0.311647 -0.201076
C8    C     C_R   0.131872 0.492831 0.324635 -0.193179
C9    C     C_R   0.135468 0.500612 0.579842 -0.264002
C10   C     C_R   0.028100 0.498732 0.567711 0.170707
C11   C     C_R   0.972150 0.493755 0.432592 0.168880
C12   C     C_R   0.864776 0.492448 0.420504 -0.229938
C13   C     C_R   0.868371 0.501127 0.675483 -0.186860
C14   C     C_R   0.975827 0.501803 0.688590 -0.206383
H1    H     H_    0.822372 0.487547 0.316686 0.156581
H2    H     H_    0.829410 0.503607 0.770168 0.152521
H3    H     H_    0.982275 0.486825 0.207417 0.138212
H4    H     H_    0.017919 0.505117 0.792863 0.134852
H5    H     H_    0.171056 0.490384 0.229922 0.156218
H6    H     H_    0.178046 0.504423 0.683850 0.153468
C15   C     C_R   0.508700 0.063477 0.625964 0.110935
C16   C     C_R   0.522437 0.129494 0.503246 -0.229051
C17   C     C_R   0.551901 0.063325 0.385130 0.328389
C18   C     C_R   0.545027 0.933883 0.385002 -0.277742
H7    H     H_    0.562139 0.883293 0.292464 0.188193
C19   C     C_R   0.514757 0.870609 0.502673 -0.165844
C20   C     C_R   0.505869 0.936561 0.626039 0.124804
C21   C     C_3   0.424283 0.931903 0.725017 -0.441058
C22   C     C_3   0.427412 0.072373 0.725239 -0.444085
H8    H     H_    0.349916 0.892956 0.675406 0.192799
H9    H     H_    0.453337 0.890586 0.828452 0.209840
H10   H     H_    0.354765 0.115315 0.676096 0.186164
H11   H     H_    0.458363 0.111522 0.828991 0.228801
C23   C     C_R   0.537539 0.599493 0.078803 0.249977
N1    N     N_R   0.500660 0.500930 0.148010 -0.186984
C24   C     C_R   0.452636 0.408330 0.067761 -0.016995
H12   H     H_    0.415830 0.333000 0.118245 0.152386
C25   C     C_R   0.452467 0.408465 0.918811 -0.063784
H13   H     H_    0.415119 0.333644 0.857829 0.137234
N2    N     N_R   0.500660 0.500890 0.852110 -0.188860
C26   C     C_R   0.537322 0.599534 0.931406 0.248845
C27   C     C_3   0.643929 0.651578 0.939817 -0.485557
C28   C     C_3   0.644667 0.650848 0.099090 -0.485998
H14   H     H_    0.700316 0.586154 0.901728 0.210792
H15   H     H_    0.645138 0.746208 0.894321 0.204170
H16   H     H_    0.701277 0.584697 0.151610 0.213785
H17   H     H_    0.647460 0.745099 0.145386 0.200615
N3    N     N_R   0.587892 0.124538 0.265609 0.131732
O9    O     O_R   0.661401 0.206733 0.284627 -0.352906
O10   O     O_R   0.561248 0.082969 0.138874 -0.402614

loop_
_geom_bond_atom_site_label_1
_geom_bond_atom_site_label_2
_geom_bond_distance
_ccdc_geom_bond_type
O4    Cu2   1.966707 S    
C21   H8    1.112481 S    
C13   C14   1.389934 A    
O6    C3    1.292292 A    
Cu1   O5    1.961092 S    
C20   C21   1.493151 S    
C1    C16   1.453882 S    
O5    C3    1.291211 A    
C15   C16   1.397192 A    
C27   H15   1.111756 S    
Cu2   O8    1.961754 S    
C16   C17   1.421960 A    
C25   N2    1.368994 A    
C7    C8    1.390219 A    
Cu1   Cu2   2.682707 S    
C8    H5    1.083092 S    
O1    Cu1   1.961491 S    
N1    C24   1.369164 A    
C27   C28   1.517764 S    
Cu1   O7    1.966710 S    
C17   N3    1.436839 S    
C21   H9    1.112229 S    
O3    Cu1   1.961754 S    
O4    C2    1.295124 A    
C23   C26   1.405185 A    
C5    C13   1.403574 A    
C25   H13   1.080394 S    
C5    C12   1.400980 A    
O8    C4    1.294688 A    
N2    C26   1.363408 A    
C22   H10   1.112445 S    
C18   C19   1.404084 A    
C6    C9    1.401182 A    
C15   C20   1.372801 A    
C22   H11   1.111644 S    
C21   C22   1.519401 S    
O7    C4    1.295391 A    
C24   C25   1.420069 A    
C13   H2    1.081256 S    
O3    C2    1.294189 A    
Cu2   N1    2.015934 S    
C2    C6    1.458169 S    
C26   C27   1.488720 S    
C7    H3    1.083950 S    
C14   H4    1.083917 S    
C17   C18   1.402272 A    
C10   C11   1.412392 A    
C3    C19   1.445719 S    
Cu2   O6    1.961489 S    
C18   H7    1.081995 S    
C24   H12   1.081277 S    
C28   H16   1.109135 S    
C15   C22   1.494891 S    
C28   H17   1.110076 S    
C4    C5    1.459517 S    
C19   C20   1.391688 A    
O2    C1    1.291236 A    
N3    O9    1.301662 A    
C11   C12   1.389082 A    
C9    H6    1.084523 S    
N3    O10   1.301668 A    
C23   C28   1.491516 S    
C10   C14   1.398945 A    
C6    C8    1.403703 A    
O2    Cu2   1.961092 S    
C23   N1    1.364862 A    
C9    C10   1.389059 A    
Cu1   N2    2.015294 S    
C27   H14   1.109397 S    
O1    C1    1.295247 A    
C12   H1    1.082526 S    
C7    C11   1.399375 A    
