data_mof_unit_33859.cif
_audit_creation_date              2012-12-10T17:36:50-0500
_audit_creation_method            fapswitch 2.2
_symmetry_space_group_name_H-M    P1
_symmetry_Int_Tables_number       1
_space_group_crystal_system       triclinic
_cell_length_a                    10.617393
_cell_length_b                    12.327953
_cell_length_c                    13.199607
_cell_angle_alpha                 116.57114
_cell_angle_beta                  77.470031
_cell_angle_gamma                 101.396882
_cell_volume                      1498.38310833

loop_
_atom_site_label
_atom_site_type_symbol
_atom_type_description
_atom_site_fract_x
_atom_site_fract_y
_atom_site_fract_z
_atom_type_partial_charge
C1    C     C_R   0.511353 0.854892 0.286688 0.761932
C2    C     C_3   0.013196 0.909147 0.523057 0.741096
C3    C     C_3   0.954980 0.891759 0.418976 -0.317892
C4    C     C_3   0.877127 0.999402 0.499223 -0.163395
C5    C     C_R   0.390733 0.267738 0.035211 -0.020447
C6    C     C_R   0.464775 0.228150 0.835583 -0.096760
C7    C     C_R   0.596323 0.815697 0.085599 -0.160466
C8    C     C_R   0.629306 0.735561 0.972495 -0.136724
C9    C     C_R   0.589764 0.611287 0.936572 -0.178950
C10   C     C_R   0.507901 0.564761 0.012170 0.088677
C11   C     C_R   0.467695 0.647946 0.125378 0.029974
C12   C     C_R   0.740389 0.999571 0.499502 0.835046
C13   C     C_R   0.468834 0.437994 0.980208 0.076264
C14   C     C_R   0.401051 0.394999 0.063546 -0.029593
C15   C     C_R   0.342102 0.480545 0.168883 -0.072465
C16   C     C_R   0.373931 0.605017 0.196458 -0.159143
C17   C     C_R   0.493474 0.352966 0.866610 -0.236742
C18   C     C_R   0.419214 0.185478 0.920194 -0.158369
C19   C     C_R   0.520106 0.772641 0.163982 -0.091461
C20   C     C_R   0.705848 0.346462 0.327528 -0.269333
C21   C     C_R   0.323904 0.758916 0.644949 0.150174
C22   C     C_R   0.285114 0.661817 0.675870 -0.199957
C23   C     C_R   0.482235 0.145164 0.713549 0.795576
C24   C     C_R   0.350919 0.558432 0.620891 -0.161010
C25   C     C_R   0.457143 0.550819 0.533674 0.007637
C26   C     C_R   0.493293 0.652827 0.504804 0.302307
C27   C     C_R   0.528904 0.446527 0.474333 -0.038575
C28   C     C_R   0.633821 0.446354 0.387104 0.156287
C29   C     C_R   0.667081 0.546123 0.360105 -0.252238
C30   C     C_R   0.599065 0.647090 0.417987 -0.163116
C31   C     C_R   0.502155 0.341769 0.497545 0.034946
C32   C     C_R   0.674693 0.246796 0.354598 0.128983
C33   C     C_R   0.259664 0.000035 0.499944 0.834180
C34   C     C_3   0.986929 0.089761 0.475600 0.739753
C35   C     C_3   0.066792 0.983474 0.395033 -0.299893
C36   C     C_3   0.122977 0.999582 0.499506 -0.166739
C37   C     C_3   0.045071 0.107152 0.579703 -0.312393
C38   C     C_3   0.933347 0.015425 0.603637 -0.308774
Cu1   Cu    Cu3+1 0.529830 0.098270 0.475420 0.971204
Cu2   Cu    Cu3+1 0.470170 0.901730 0.524580 0.961946
H1    H     H_    0.123947 0.971996 0.310482 0.188132
H2    H     H_    0.529659 0.382538 0.799349 0.157527
H3    H     H_    0.635990 0.910752 0.112832 0.157448
H4    H     H_    0.628462 0.554503 0.849997 0.137307
H5    H     H_    0.691340 0.769208 0.913408 0.154386
H6    H     H_    0.320639 0.668540 0.272709 0.209322
H7    H     H_    0.729926 0.169422 0.308903 0.141278
H8    H     H_    0.747580 0.546699 0.293727 0.155280
H9    H     H_    0.786072 0.345670 0.260611 0.146499
H10   H     H_    0.424278 0.334038 0.562363 0.123704
H11   H     H_    0.272200 0.838707 0.688115 0.142838
H12   H     H_    0.316593 0.486045 0.648239 0.135978
H13   H     H_    0.203680 0.666698 0.742726 0.153220
H14   H     H_    0.633643 0.718949 0.391641 0.199929
H15   H     H_    0.084693 0.195508 0.644177 0.167469
H16   H     H_    0.876243 0.026907 0.688201 0.171052
H17   H     H_    0.915240 0.803377 0.354592 0.164499
H18   H     H_    0.406676 0.088165 0.896560 0.188578
N1    N     N_R   0.575030 0.246270 0.438190 -0.188373
N2    N     N_R   0.425760 0.754330 0.561190 -0.213546
O1    O     O_R   0.537510 0.972500 0.318130 -0.582523
O2    O     O_R   0.487140 0.806530 0.359650 -0.606214
O3    O     O_R   0.708330 0.082950 0.479220 -0.538743
O4    O     O_R   0.657960 0.916980 0.520740 -0.605032
O5    O     O_R   0.512860 0.193470 0.640350 -0.590569
O6    O     O_R   0.462490 0.027500 0.681870 -0.599653
O7    O     O_R   0.342040 0.083020 0.479260 -0.582557
O8    O     O_R   0.291670 0.917050 0.520780 -0.544366
F1    F     F_    0.971136 0.183632 0.450856 -0.645466
F2    F     F_    0.029092 0.815211 0.547664 -0.638799
C39   C     C_2   0.234418 0.443901 0.244461 0.347978
H19   H     H_    0.176280 0.356096 0.210425 0.088160
O9    O     O_2   0.208156 0.512294 0.345486 -0.493070
C40   C     C_2   0.366155 0.220014 0.123969 0.326464
H20   H     H_    0.381394 0.280619 0.211356 0.091375
O10   O     O_2   0.331460 0.111898 0.100059 -0.541058

loop_
_geom_bond_atom_site_label_1
_geom_bond_atom_site_label_2
_ccdc_geom_bond_type
C24   H12   S    
Cu2   N2    S    
C34   C37   S    
C35   C36   S    
C1    O2    A    
C7    C8    A    
C30   H14   S    
C11   C19   A    
C29   C30   A    
C40   O10   D    
C23   O6    A    
C36   C37   S    
C37   C38   S    
C12   O4    A    
C15   C16   A    
C33   C36   S    
Cu2   O2    S    
C34   C35   S    
C31   N1    A    
C5    C40   S    
C17   H2    S    
C8    H5    S    
C18   H18   S    
C8    C9    A    
C7    H3    S    
C4    C12   S    
C9    C10   A    
Cu2   O6    S    
C21   C22   A    
Cu1   O5    S    
Cu1   O1    S    
C22   H13   S    
C6    C18   A    
C4    C34   S    
C1    C19   S    
C40   H20   S    
C29   H8    S    
C27   C31   A    
C24   C25   A    
C21   N2    A    
C16   H6    S    
Cu1   Cu2   S    
C39   O9    D    
C12   O3    A    
C5    C18   A    
C20   C28   A    
C25   C26   A    
C20   H9    S    
C11   C16   A    
C2    C38   S    
C3    C35   S    
Cu1   N1    S    
C34   F1    S    
C5    C14   A    
C3    H17   S    
C4    C38   S    
C26   C30   A    
C7    C19   A    
C32   H7    S    
C22   C24   A    
C31   H10   S    
C3    C4    S    
C21   H11   S    
Cu1   O3    S    
C33   O7    A    
C20   C32   A    
C2    C36   S    
C6    C17   A    
C28   C29   A    
C9    H4    S    
Cu1   O7    S    
C10   C13   A    
C1    O1    A    
C25   C27   A    
C15   C39   S    
Cu2   O4    S    
C13   C17   A    
C23   O5    A    
C2    C3    S    
C39   H19   S    
C2    F2    S    
C6    C23   S    
C35   H1    S    
C10   C11   A    
C37   H15   S    
C38   H16   S    
Cu2   O8    S    
C27   C28   A    
C14   C15   A    
C32   N1    A    
C13   C14   A    
C26   N2    A    
C33   O8    A    
