data_mof_unit_13375.cif
_audit_creation_date              2012-12-11T14:17:47-0500
_audit_creation_method            fapswitch 2.2
_symmetry_space_group_name_H-M    P1
_symmetry_Int_Tables_number       1
_space_group_crystal_system       triclinic
_cell_length_a                    6.945382
_cell_length_b                    13.633336
_cell_length_c                    20.4445
_cell_angle_alpha                 102.223921
_cell_angle_beta                  89.904585
_cell_angle_gamma                 90.779255
_cell_volume                      1891.79651373

loop_
_atom_site_label
_atom_site_type_symbol
_atom_type_description
_atom_site_fract_x
_atom_site_fract_y
_atom_site_fract_z
_atom_type_partial_charge
O1    O     O_R   0.506860 0.599390 0.449240 -0.537823
O2    O     O_R   0.180220 0.594600 0.586780 -0.536526
O3    O     O_R   0.004500 0.400610 0.550760 -0.526799
C1    C     C_R   0.349070 0.615961 0.613492 0.761386
O4    O     O_R   0.177490 0.611290 0.451970 -0.546076
O5    O     O_R   0.001750 0.417420 0.414990 -0.544534
C2    C     C_R   0.347267 0.637774 0.435098 0.697203
O6    O     O_R   0.509610 0.582580 0.585010 -0.541487
O7    O     O_3   0.337420 0.436370 0.488020 -0.377162
V1    V     V_3+5 0.064680 0.511800 0.502220 1.471422
O8    O     O_R   0.671710 0.405400 0.413220 -0.544723
C3    C     C_R   0.839634 0.384036 0.386575 0.772835
O9    O     O_R   0.674440 0.388710 0.548030 -0.549084
C4    C     C_R   0.842268 0.361882 0.564525 0.780994
V2    V     V_3+5 0.564010 0.488200 0.497780 1.458428
O10   O     O_3   0.841140 0.563630 0.511980 -0.377927
C5    C     C_R   0.807461 0.111920 0.612214 -0.120927
H1    H     H_    0.816048 0.985540 0.693453 0.146096
C6    C     C_R   0.846017 0.284960 0.604473 -0.124934
C7    C     C_R   0.862552 0.313893 0.928035 -0.183144
C8    C     C_R   0.846950 0.389766 0.892799 -0.136378
C9    C     C_R   0.838617 0.366949 0.823237 -0.059755
C10   C     C_R   0.851900 0.266697 0.786479 0.027040
C11   C     C_R   0.855817 0.188197 0.823087 -0.055381
C12   C     C_R   0.851068 0.241505 0.714795 -0.042971
C13   C     C_R   0.828685 0.139029 0.681976 -0.014607
C14   C     C_R   0.828632 0.063794 0.718655 -0.228456
C15   C     C_R   0.847475 0.087020 0.787730 0.552522
C16   C     C_R   0.872920 0.313247 0.673851 0.551741
C17   C     C_R   0.810286 0.184887 0.573978 -0.271701
C18   C     C_R   0.863906 0.213565 0.894208 -0.081355
H2    H     H_    0.868104 0.333333 0.982234 0.114093
H3    H     H_    0.812227 0.429406 0.800207 0.191157
C19   C     C_2   0.005294 0.288840 0.285512 -0.191280
C20   C     C_2   0.841792 0.315386 0.319965 -0.387460
H4    H     H_    0.141903 0.318056 0.307748 0.179111
C21   C     C_2   0.016191 0.220065 0.218282 0.642640
C22   C     C_2   0.860774 0.183764 0.180481 -0.399596
H5    H     H_    0.716811 0.203857 0.198313 0.126796
C23   C     C_2   0.204449 0.789786 0.782628 -0.125368
C24   C     C_2   0.363754 0.815899 0.819873 -0.288264
H6    H     H_    0.066399 0.818819 0.802327 0.181191
H7    H     H_    0.502645 0.787174 0.801477 0.144781
C25   C     C_2   0.202924 0.721504 0.715060 -0.104958
C26   C     C_2   0.361088 0.684051 0.680296 -0.297024
H8    H     H_    0.504214 0.702849 0.700332 0.131908
C27   C     C_R   0.440392 0.883566 0.385474 -0.158484
H9    H     H_    0.441781 0.833473 0.478083 0.105370
H10   H     H_    0.469086 0.007575 0.302391 0.129855
H11   H     H_    0.479128 0.959885 0.409723 0.113182
C28   C     C_R   0.361484 0.714372 0.394875 -0.068529
C29   C     C_R   0.322896 0.685687 0.070742 -0.286173
C30   C     C_R   0.317910 0.608648 0.105450 -0.155683
C31   C     C_R   0.338451 0.628780 0.174865 0.611840
C32   C     C_R   0.358305 0.729410 0.212130 -0.053160
C33   C     C_R   0.373936 0.807497 0.175346 -0.007801
C34   C     C_R   0.369405 0.755832 0.283857 0.090427
C35   C     C_R   0.415780 0.856682 0.315770 0.131313
C36   C     C_R   0.436171 0.930456 0.278223 -0.190947
C37   C     C_R   0.411513 0.906883 0.209423 -0.148536
C38   C     C_R   0.332958 0.686994 0.325625 -0.161213
C39   C     C_R   0.417621 0.812210 0.424573 -0.168822
C40   C     C_R   0.354161 0.784566 0.104734 -0.069413
H12   H     H_    0.307478 0.667796 0.016757 0.134843
H13   H     H_    0.425658 0.967502 0.182963 0.143226
O11   O     O_R   0.203230 0.917310 0.915020 -0.531003
O12   O     O_R   0.535500 0.888690 0.048040 -0.550743
O13   O     O_R   0.711080 0.082610 0.085000 -0.548808
C41   C     C_R   0.365950 0.862479 0.065146 0.693600
O14   O     O_R   0.532630 0.905370 0.913230 -0.530490
O15   O     O_R   0.708190 0.099410 0.949230 -0.530748
C42   C     C_R   0.364358 0.884227 0.886522 0.759575
O16   O     O_R   0.206120 0.900510 0.050790 -0.544890
O17   O     O_3   0.375360 0.063570 0.011990 -0.367899
V3    V     V_3+5 0.648170 0.988200 0.997780 1.509037
O18   O     O_R   0.038240 0.111390 0.951940 -0.542247
C43   C     C_R   0.870326 0.137460 0.934915 0.813364
O19   O     O_R   0.041120 0.094710 0.086750 -0.502483
C44   C     C_R   0.872909 0.115708 0.113614 0.772581
V4    V     V_3+5 0.148810 0.011930 0.002180 1.544255
O20   O     O_3   0.871750 0.936430 0.988010 -0.376690
H14   H     H_    0.788286 0.163143 0.520369 0.125654
H15   H     H_    0.703354 0.286560 0.299754 0.153979
F1    F     F_    0.196269 0.194740 0.194921 -0.679745
H16   H     H_    0.061655 0.702077 0.693036 0.149891
H17   H     H_    0.279524 0.612045 0.306697 0.193103
F2    F     F_    0.352489 0.547598 0.202829 -0.705116
H18   H     H_    0.301669 0.531823 0.077997 0.157470
H19   H     H_    0.786143 0.034075 0.587259 0.124648
F3    F     F_    0.930229 0.409388 0.698858 -0.724994
H20   H     H_    0.838021 0.467056 0.919680 0.125249
F4    F     F_    0.851696 0.008804 0.819173 -0.713492

loop_
_geom_bond_atom_site_label_1
_geom_bond_atom_site_label_2
_ccdc_geom_bond_type
C32   C33   A    
C19   C21   S    
C28   C38   A    
C1    O6    A    
C27   C39   A    
C30   C31   A    
C29   C30   A    
O13   V3    S    
C13   C14   A    
C5    C13   A    
C7    H2    S    
C22   H5    S    
O19   V4    S    
C22   C44   S    
V2    O10   S    
C19   C20   D    
O8    V2    S    
O11   C42   A    
C40   C41   S    
C10   C11   A    
C21   F1    S    
C41   O16   A    
O1    V2    S    
O7    V1    S    
O13   C44   A    
C23   H6    S    
C36   C37   A    
O17   V4    S    
C8    C9    A    
C5    C17   A    
C24   H7    S    
C28   C39   A    
O5    C3    A    
C16   F3    S    
C18   C43   S    
C27   H11   S    
C1    C26   S    
C12   C16   A    
O17   V3    S    
C11   C15   A    
C5    H19   S    
O18   C43   A    
C29   H12   S    
O4    C2    A    
C20   H15   S    
O19   C44   A    
V3    O20   S    
C12   C13   A    
C26   H8    S    
C33   C37   A    
O12   C41   A    
C17   H14   S    
O2    C1    A    
C21   C22   D    
H9    C39   S    
C33   C40   A    
C15   F4    S    
C3    C20   S    
O3    C4    A    
C24   C42   S    
C23   C24   D    
C37   H13   S    
O6    V2    S    
C32   C34   A    
O12   V3    S    
C25   H16   S    
O2    V1    S    
O15   C43   A    
C25   C26   D    
C8    H20   S    
C9    H3    S    
C31   C32   A    
O1    C2    A    
C4    C6    S    
H1    C14   S    
O18   V4    S    
V4    O20   S    
C29   C40   A    
O5    V1    S    
O8    C3    A    
C34   C38   A    
O11   V4    S    
H10   C36   S    
O9    V2    S    
C35   C36   A    
C11   C18   A    
C2    C28   S    
O4    V1    S    
O3    V1    S    
V1    O10   S    
C27   C35   A    
O15   V3    S    
C34   C35   A    
C31   F2    S    
O16   V4    S    
C30   H18   S    
C19   H4    S    
C10   C12   A    
O7    V2    S    
C38   H17   S    
C23   C25   S    
C7    C8    A    
O14   V3    S    
C9    C10   A    
O14   C42   A    
O9    C4    A    
C6    C17   A    
C14   C15   A    
C7    C18   A    
C6    C16   A    
