data_mof_unit_63608.cif
_audit_creation_date              2012-12-11T15:00:39-0500
_audit_creation_method            fapswitch 2.2
_symmetry_space_group_name_H-M    P1
_symmetry_Int_Tables_number       1
_space_group_crystal_system       triclinic
_cell_length_a                    13.228127
_cell_length_b                    13.235561
_cell_length_c                    26.777427
_cell_angle_alpha                 97.042655
_cell_angle_beta                  97.344829
_cell_angle_gamma                 62.256482
_cell_volume                      4104.58713593

loop_
_atom_site_label
_atom_site_type_symbol
_atom_type_description
_atom_site_fract_x
_atom_site_fract_y
_atom_site_fract_z
_atom_type_partial_charge
C1    C     C_R   0.378466 0.725463 0.436228 0.560990
C2    C     C_1   0.332667 0.341777 0.267786 0.163221
C3    C     C_1   0.345391 0.348171 0.320689 0.105090
C4    C     C_1   0.363089 0.356428 0.365687 0.098037
C5    C     C_3   0.774004 0.238844 0.264701 0.499903
C6    C     C_3   0.949282 0.275103 0.285417 0.563056
C7    C     C_3   0.962314 0.272072 0.228388 -0.189541
C8    C     C_1   0.893539 0.288424 0.101794 0.080108
C9    C     C_3   0.819924 0.322297 0.293619 -0.016415
C10   C     C_3   0.804561 0.215819 0.208604 -0.205620
C11   C     C_3   0.846877 0.301152 0.196511 -0.142274
C12   C     C_R   0.394884 0.373163 0.417691 0.567651
C13   C     C_3   0.758828 0.425453 0.211889 0.600925
C14   C     C_3   0.751223 0.439568 0.269875 0.291652
C15   C     C_1   0.866640 0.292469 0.143306 0.049151
C16   C     C_1   0.800096 0.340376 0.347391 0.149205
C17   C     C_1   0.772990 0.364096 0.389958 0.114706
C18   C     C_3   0.438039 0.736687 0.272215 0.323783
C19   C     C_3   0.355064 0.954180 0.293648 0.599882
C20   C     C_3   0.352234 0.969160 0.235666 0.548440
C21   C     C_1   0.298910 0.904310 0.104256 0.097309
C22   C     C_3   0.341030 0.844226 0.299380 -0.070589
C23   C     C_R   0.724192 0.399502 0.437279 0.573190
C24   C     C_3   0.426565 0.754230 0.214405 0.157004
C25   C     C_3   0.327878 0.874656 0.202695 -0.100656
C26   C     C_3   0.213520 0.883395 0.217148 0.169745
C27   C     C_3   0.223614 0.858696 0.272884 0.224474
C28   C     C_1   0.315808 0.888286 0.148318 0.124551
C29   C     C_1   0.347213 0.821360 0.352222 0.161804
C30   C     C_1   0.358056 0.785391 0.392530 0.114420
C31   C     C_3   0.408490 0.382804 0.729878 -0.275213
C32   C     C_3   0.365439 0.216802 0.707168 0.296386
C33   C     C_3   0.345656 0.212102 0.762410 0.094357
C34   C     C_R   0.381688 0.725675 0.575336 0.539139
C35   C     C_1   0.295668 0.307119 0.887351 0.098918
C36   C     C_3   0.327753 0.342264 0.696067 -0.061105
C37   C     C_3   0.400092 0.377151 0.786656 0.534562
C38   C     C_3   0.312228 0.331655 0.792233 0.002842
C39   C     C_3   0.193244 0.417547 0.767615 0.076430
C40   C     C_3   0.202378 0.422017 0.710089 0.169828
C41   C     C_1   0.304055 0.323689 0.845483 0.133466
C42   C     C_1   0.341602 0.348752 0.643440 0.044572
C43   C     C_1   0.361585 0.357987 0.602355 0.050088
C44   C     C_1   0.876465 0.298221 0.866423 0.054950
C45   C     C_R   0.395849 0.375772 0.557483 0.538374
C46   C     C_1   0.835971 0.316773 0.823562 0.056343
C47   C     C_1   0.796928 0.340382 0.772680 0.094612
C48   C     C_1   0.768265 0.361373 0.729051 0.066983
C49   C     C_1   0.737443 0.386277 0.677871 0.006554
C50   C     C_1   0.710569 0.407219 0.634155 0.027014
C51   C     C_1   0.258030 0.954323 0.856449 0.037066
C52   C     C_1   0.278277 0.927314 0.812761 0.021195
C53   C     C_1   0.302018 0.895861 0.761576 0.067312
C54   C     C_1   0.321902 0.866391 0.717975 0.068474
C55   C     C_1   0.344335 0.826308 0.667190 0.017505
C56   C     C_R   0.674609 0.431239 0.582194 0.540811
C57   C     C_1   0.362290 0.785147 0.624505 0.028371
C58   C     C_R   0.941909 0.276997 0.055799 0.557265
C59   C     C_R   0.288359 0.271172 0.073058 0.553498
C60   C     C_R   0.269274 0.940073 0.054271 0.564953
C61   C     C_R   0.935597 0.278997 0.915824 0.549698
C62   C     C_R   0.281490 0.273525 0.933192 0.538411
C63   C     C_R   0.234289 0.990018 0.908340 0.547860
C64   C     C_1   0.306851 0.303727 0.124756 0.064372
C65   C     C_1   0.316933 0.322149 0.169624 0.070056
C66   C     C_1   0.325228 0.335138 0.222516 0.150508
Cr1   Cr    Cr6+3 0.585490 0.589720 0.509170 1.112976
Cr2   Cr    Cr6+3 0.329280 0.580760 0.494920 1.101400
Cr3   Cr    Cr6+3 0.585250 0.329540 0.495950 1.113578
Cr4   Cr    Cr6+3 0.077160 0.074530 0.981700 1.087167
Cr5   Cr    Cr6+3 0.079310 0.333830 0.996170 1.102014
Cr6   Cr    Cr6+3 0.334250 0.081620 0.994710 1.116067
H1    H     H_    0.873093 0.126784 0.201755 0.175068
H2    H     H_    0.729068 0.222953 0.182784 0.215562
H3    H     H_    0.215444 0.779331 0.274430 0.240906
H4    H     H_    0.403306 0.689952 0.192483 0.225480
H5    H     H_    0.142799 0.970642 0.211088 0.218952
H6    H     H_    0.498301 0.329385 0.719618 0.139685
H7    H     H_    0.457992 0.164738 0.701000 0.181527
H8    H     H_    0.273531 0.190758 0.761806 0.227828
H9    H     H_    0.181672 0.511448 0.703788 0.120544
H10   H     H_    0.170055 0.504587 0.786185 0.188099
H11   H     H_    0.385577 0.472135 0.722282 0.153882
H12   H     H_    0.026024 0.185020 0.215506 0.187105
H13   H     H_    0.995165 0.332423 0.221577 0.217301
H14   H     H_    0.660582 0.476435 0.278357 0.234826
O1    O     O_R   0.700490 0.499650 0.456540 -0.467707
O2    O     O_R   0.339040 0.474950 0.540330 -0.494058
O3    O     O_R   0.494500 0.302900 0.543920 -0.503028
O4    O     O_R   0.682200 0.343540 0.552130 -0.479042
O5    O     O_3   0.500010 0.500010 0.500010 -0.313939
O6    O     O_R   0.170650 0.959160 0.034150 -0.487738
O7    O     O_R   0.983870 0.178140 0.033160 -0.501150
O8    O     O_R   0.966160 0.354510 0.046020 -0.470245
O9    O     O_R   0.187830 0.326650 0.051390 -0.487795
O10   O     O_R   0.362200 0.173970 0.055450 -0.478947
O11   O     O_R   0.326660 0.983110 0.039170 -0.474043
O12   O     O_R   0.479270 0.682700 0.457880 -0.479855
O13   O     O_R   0.165170 0.960730 0.925500 -0.480108
O14   O     O_R   0.978790 0.179600 0.932440 -0.507323
O15   O     O_R   0.960680 0.356080 0.937360 -0.480154
O16   O     O_R   0.182750 0.328100 0.950670 -0.493575
O17   O     O_R   0.356720 0.175530 0.946790 -0.485163
O18   O     O_R   0.321590 0.984560 0.938450 -0.469118
O19   O     O_3   0.163570 0.163330 0.990860 -0.309400
O20   O     O_R   0.304400 0.696100 0.445190 -0.478783
O21   O     O_R   0.337880 0.472540 0.439600 -0.482968
O22   O     O_R   0.493250 0.300300 0.435260 -0.466498
O23   O     O_R   0.681040 0.341130 0.451400 -0.477484
O24   O     O_R   0.701750 0.502250 0.565200 -0.465433
O25   O     O_R   0.480430 0.685110 0.558610 -0.508757
O26   O     O_R   0.305650 0.698700 0.553850 -0.493202
F1    F     F_    0.655711 0.289280 0.265431 -0.590084
F2    F     F_    0.793077 0.501903 0.198030 -0.473429
Cl1   Cl    Cl    0.558073 0.728077 0.189659 -0.246801
Cl2   Cl    Cl    0.576061 0.711531 0.302906 -0.248819
Cl3   Cl    Cl    0.251977 0.077585 0.327418 -0.298067
F3    F     F_    0.458822 0.942985 0.317321 -0.476354
F4    F     F_    0.457770 0.957432 0.226012 -0.458694
Cl4   Cl    Cl    0.252420 0.109783 0.217086 -0.586781
Cl5   Cl    Cl    0.828365 0.105781 0.293528 -0.290778
F5    F     F_    0.132710 0.944271 0.297432 -0.505270
F6    F     F_    0.184301 0.806889 0.186493 -0.604979
Cl6   Cl    Cl    0.427036 0.608059 0.278880 -0.587445
Cl7   Cl    Cl    0.539920 0.292899 0.816557 -0.470735
F7    F     F_    0.306341 0.169454 0.674315 -0.559531
Cl8   Cl    Cl    0.465624 0.094263 0.791286 -0.531499
Cl9   Cl    Cl    0.015023 0.355734 0.321792 -0.352957
Cl10  Cl    Cl    0.099905 0.392502 0.668180 -0.390157
F8    F     F_    0.362269 0.486603 0.810134 -0.607353
Cl11  Cl    Cl    0.078465 0.388572 0.779901 -0.551743
F9    F     F_    0.008699 0.165420 0.300938 -0.487139
F10   F     F_    0.791629 0.515797 0.291598 -0.483574
Cl12  Cl    Cl    0.620642 0.457865 0.179309 -0.461924

loop_
_geom_bond_atom_site_label_1
_geom_bond_atom_site_label_2
_ccdc_geom_bond_type
C40   Cl10  S    
C22   C29   S    
C34   O26   A    
C13   Cl12  S    
C36   C42   S    
C19   C20   S    
C6    C9    S    
Cr5   O8    S    
C53   C54   T    
C52   C53   S    
C25   C28   S    
C7    C11   S    
C59   C64   S    
C29   C30   T    
C59   O9    A    
C18   C24   S    
C32   C36   S    
C58   O7    A    
C38   C39   S    
C10   H1    S    
C27   H3    S    
C11   C13   S    
Cr5   O9    S    
C20   C25   S    
C5    Cl5   S    
C33   Cl8   S    
Cr2   O5    S    
C31   H11   S    
C37   F8    S    
Cr2   O26   S    
C32   F7    S    
C63   O13   A    
Cr1   O12   S    
C8    C58   S    
C54   C55   S    
Cr3   O23   S    
Cr3   O22   S    
C19   F3    S    
C44   C46   T    
C16   C17   T    
C34   C57   S    
Cr2   O21   S    
C4    C12   S    
C45   O3    A    
C42   C43   T    
C13   F2    S    
C1    O20   A    
C56   O4    A    
C7    H12   S    
Cr5   O15   S    
C23   O1    A    
C13   C14   S    
C34   O25   A    
Cr2   O20   S    
Cr3   O3    S    
C56   O24   A    
C27   F5    S    
Cr4   O14   S    
C37   Cl7   S    
Cr6   O11   S    
C60   O6    A    
C23   O23   A    
C26   H5    S    
C51   C52   T    
C36   C40   S    
Cr4   O7    S    
C51   C63   S    
C24   C25   S    
C14   H14   S    
C38   C41   S    
C6    F9    S    
C60   O11   A    
C18   Cl2   S    
C39   C40   S    
C12   O22   A    
C24   H4    S    
Cr6   O18   S    
C25   C26   S    
C50   C56   S    
C31   C37   S    
C61   O15   A    
C9    C14   S    
C5    C9    S    
C37   C38   S    
Cr1   O24   S    
C47   C48   T    
C19   C22   S    
Cr1   O5    S    
C26   C27   S    
C17   C23   S    
C43   C45   S    
C21   C60   S    
C45   O2    A    
Cr1   O25   S    
C48   C49   S    
Cr6   O17   S    
Cr5   O16   S    
C49   C50   T    
C8    C15   T    
C11   C15   S    
C22   C27   S    
Cr5   O19   S    
Cr2   O2    S    
C61   O14   A    
C26   F6    S    
C3    C4    T    
C20   Cl4   S    
Cr4   O13   S    
C31   H6    S    
C62   O17   A    
C46   C47   S    
C5    F1    S    
C18   C22   S    
C40   H9    S    
C9    C16   S    
Cr4   O6    S    
C39   H10   S    
C63   O18   A    
C2    C66   T    
Cr4   O19   S    
C1    O12   A    
C12   O21   A    
C33   H8    S    
C6    C7    S    
C14   F10   S    
C44   C61   S    
Cr1   O1    S    
C33   C38   S    
C32   C33   S    
C55   C57   T    
C2    C3    S    
C58   O8    A    
C6    Cl9   S    
C5    C10   S    
C64   C65   T    
C32   H7    S    
C10   H2    S    
C7    H13   S    
C39   Cl11  S    
C1    C30   S    
C35   C62   S    
C35   C41   T    
C10   C11   S    
C21   C28   T    
Cr6   O10   S    
Cr6   O19   S    
C19   Cl3   S    
C24   Cl1   S    
C65   C66   S    
C59   O10   A    
C31   C36   S    
Cr3   O5    S    
C20   F4    S    
Cr3   O4    S    
C18   Cl6   S    
C62   O16   A    
