data_mof_unit_66467.cif
_audit_creation_date              2012-12-10T18:20:36-0500
_audit_creation_method            fapswitch 2.2
_symmetry_space_group_name_H-M    P1
_symmetry_Int_Tables_number       1
_space_group_crystal_system       triclinic
_cell_length_a                    21.553528
_cell_length_b                    21.508174
_cell_length_c                    21.902063
_cell_angle_alpha                 118.598194
_cell_angle_beta                  118.726144
_cell_angle_gamma                 91.346379
_cell_volume                      7381.36923212

loop_
_atom_site_label
_atom_site_type_symbol
_atom_type_description
_atom_site_fract_x
_atom_site_fract_y
_atom_site_fract_z
_atom_type_partial_charge
C1    C     C_R   0.499737 0.120107 0.497640 0.833220
C2    C     C_3   0.216727 0.793079 0.950544 -0.464172
C3    C     C_3   0.746345 0.160017 0.951962 -0.156982
C4    C     C_3   0.264548 0.842402 0.048167 -0.151593
C5    C     C_1   0.836417 0.336518 0.173983 -0.055619
C6    C     C_1   0.163586 0.663319 0.826003 -0.058127
C7    C     C_1   0.662520 0.162000 0.825972 -0.049728
C8    C     C_1   0.337586 0.837481 0.174022 -0.059451
C9    C     C_1   0.625364 0.124955 0.750911 -0.101116
C10   C     C_1   0.374668 0.874646 0.249087 -0.147782
C11   C     C_3   0.421654 0.178226 0.429964 -0.435953
C12   C     C_R   0.498113 0.877788 0.498133 0.763798
C13   C     C_3   0.563905 0.828641 0.581551 -0.377979
C14   C     C_3   0.418749 0.252690 0.437325 -0.408242
C15   C     C_3   0.563458 0.759428 0.585453 -0.335582
C16   C     C_R   0.580975 0.080855 0.661956 0.945065
C17   C     C_R   0.419025 0.918988 0.338039 0.865439
C18   C     C_3   0.519304 0.255187 0.584458 -0.169365
C19   C     C_3   0.506518 0.750207 0.426526 -0.157317
C20   C     C_3   0.558932 0.207808 0.477277 -0.040551
C21   C     C_3   0.420402 0.772164 0.483005 -0.019882
C22   C     C_3   0.502015 0.188836 0.498144 -0.058106
C23   C     C_3   0.707655 0.206891 0.917580 0.231176
C24   C     C_3   0.495071 0.808166 0.495814 -0.053008
C25   C     C_3   0.499025 0.310480 0.499808 0.127407
C26   C     C_3   0.500949 0.688785 0.498710 0.030600
C27   C     C_3   0.530657 0.328477 0.589231 -0.462294
C28   C     C_3   0.511819 0.680455 0.430447 -0.373717
C29   C     C_3   0.549420 0.276345 0.470542 -0.451598
C30   C     C_3   0.423162 0.696890 0.476348 -0.320925
C31   C     C_3   0.714252 0.564979 0.498913 -0.188666
C32   C     C_3   0.261914 0.417071 0.457094 -0.190046
C33   C     C_3   0.825575 0.500477 0.581953 -0.031236
C34   C     C_3   0.292588 0.792554 0.082407 0.235420
C35   C     C_3   0.193971 0.539394 0.452047 -0.041322
C36   C     C_3   0.753294 0.504371 0.581576 -0.503608
C37   C     C_3   0.264373 0.531880 0.449207 -0.504308
C38   C     C_3   0.689958 0.497866 0.501354 0.111042
C39   C     C_3   0.309682 0.498419 0.498563 0.061313
C40   C     C_3   0.743088 0.428579 0.417052 -0.261740
C41   C     C_3   0.258241 0.541225 0.589864 -0.273357
C42   C     C_3   0.675529 0.423128 0.423638 -0.485277
C43   C     C_3   0.329623 0.548536 0.589865 -0.360197
C44   C     C_R   0.878911 0.499412 0.500234 0.928963
C45   C     C_3   0.706513 0.287333 0.048187 -0.170299
C46   C     C_R   0.119639 0.499301 0.497100 0.860783
C47   C     C_R   0.919157 0.419009 0.337982 0.960599
C48   C     C_R   0.080684 0.580974 0.662014 0.929136
C49   C     C_R   0.378353 0.498668 0.499889 0.838166
C50   C     C_R   0.621437 0.496977 0.500182 0.847433
C51   C     C_R   0.497750 0.378497 0.500114 0.842872
C52   C     C_R   0.502838 0.621488 0.499895 0.841092
C53   C     C_3   0.811501 0.498377 0.502292 -0.008009
C54   C     C_3   0.188010 0.501103 0.497113 -0.005386
C55   C     C_3   0.789326 0.568824 0.506718 -0.376622
C56   C     C_3   0.290166 0.701708 0.951744 -0.162706
C57   C     C_3   0.187195 0.418289 0.449468 -0.372711
C58   C     C_3   0.658149 0.237368 0.950562 -0.462345
C59   C     C_3   0.338746 0.751656 0.049375 -0.467600
C60   C     C_3   0.769766 0.274961 0.951223 -0.400168
C61   C     C_3   0.222999 0.732197 0.048659 -0.402492
C62   C     C_3   0.818807 0.323255 0.048380 -0.396015
C63   C     C_3   0.173989 0.684116 0.951503 -0.393846
C64   C     C_1   0.874424 0.374464 0.249039 -0.078047
C65   C     C_1   0.125488 0.625484 0.750951 -0.102292
C66   C     C_2   0.691091 0.088861 0.918027 0.418988
C67   C     C_3   0.789660 0.289870 0.082384 0.229124
C68   C     C_2   0.327873 0.906968 0.082253 0.421159
C69   C     C_2   0.673852 0.260784 0.082513 0.451258
C70   C     C_2   0.329002 0.719873 0.917443 0.426849
C71   C     C_2   0.640693 0.228557 0.545636 0.444010
C72   C     C_2   0.349213 0.756186 0.403902 0.379240
C73   C     C_2   0.541895 0.141953 0.393694 0.528867
C74   C     C_2   0.414146 0.825115 0.556067 0.448788
C75   C     C_2   0.582767 0.261954 0.662015 0.372617
C76   C     C_2   0.450149 0.732299 0.339485 0.349653
C77   C     C_2   0.717578 0.639694 0.563110 0.423004
C78   C     C_3   0.210475 0.709714 0.917599 0.229776
C79   C     C_2   0.248833 0.357931 0.373669 0.448523
C80   C     C_2   0.840846 0.430616 0.579345 0.332961
C81   C     C_2   0.204265 0.622987 0.500816 0.391010
C82   C     C_2   0.891251 0.568176 0.666095 0.497769
C83   C     C_2   0.125997 0.502882 0.361739 0.533246
C84   C     C_2   0.756482 0.353886 0.384481 0.475753
C85   C     C_2   0.258719 0.614210 0.654173 0.445392
C86   C     C_3   0.794095 0.209297 0.049580 -0.463903
H1    H     H_    0.671208 0.553184 0.436178 0.107309
H2    H     H_    0.159717 0.798250 0.926702 0.197889
H3    H     H_    0.378544 0.159804 0.437467 0.204296
H4    H     H_    0.617007 0.849318 0.589795 0.187846
H5    H     H_    0.405286 0.134041 0.365727 0.177706
H6    H     H_    0.564393 0.874958 0.635111 0.213705
H7    H     H_    0.392826 0.242159 0.373925 0.201421
H8    H     H_    0.554175 0.768588 0.634489 0.239919
H9    H     H_    0.382590 0.274880 0.459837 0.152622
H10   H     H_    0.619206 0.751829 0.604389 0.173747
H11   H     H_    0.468280 0.245562 0.584650 0.202949
H12   H     H_    0.293469 0.399643 0.500630 0.081625
H13   H     H_    0.561789 0.776038 0.442076 0.144715
H14   H     H_    0.501346 0.362227 0.616038 0.182538
H15   H     H_    0.567726 0.674761 0.445765 0.129186
H16   H     H_    0.604456 0.320251 0.507776 0.130925
H17   H     H_    0.380211 0.647852 0.411472 0.196728
H18   H     H_    0.591158 0.362684 0.631743 0.173373
H19   H     H_    0.470139 0.627861 0.368824 0.239773
H20   H     H_    0.624949 0.410772 0.364394 0.214277
H21   H     H_    0.369137 0.531537 0.630223 0.184835
H22   H     H_    0.782937 0.571302 0.454402 0.158928
H23   H     H_    0.785108 0.143493 0.931587 0.178709
H24   H     H_    0.179625 0.388388 0.476431 0.167714
H25   H     H_    0.732232 0.459460 0.585503 0.134552
H26   H     H_    0.301642 0.587072 0.475375 0.142450
H27   H     H_    0.664685 0.375918 0.429412 0.168961
H28   H     H_    0.358837 0.607456 0.616968 0.227101
H29   H     H_    0.834476 0.621552 0.565088 0.255333
H30   H     H_    0.138617 0.385699 0.382946 0.239028
H31   H     H_    0.705187 0.345463 0.068401 0.176654
H32   H     H_    0.283565 0.642159 0.931458 0.178835
H33   H     H_    0.744149 0.309947 0.928226 0.197140
H34   H     H_    0.227604 0.866682 0.068544 0.176573
H35   H     H_    0.240913 0.695274 0.071521 0.198147
H36   H     H_    0.817878 0.381758 0.071968 0.182452
H37   H     H_    0.167155 0.623965 0.927788 0.185249
H38   H     H_    0.877999 0.325596 0.071236 0.198269
H39   H     H_    0.117070 0.689429 0.928696 0.192233
H40   H     H_    0.650524 0.091535 0.934273 0.069297
H41   H     H_    0.368459 0.896485 0.065938 0.070009
H42   H     H_    0.665542 0.203774 0.066507 0.067830
H43   H     H_    0.345139 0.776385 0.933446 0.075196
H44   H     H_    0.727605 0.440022 0.367824 0.196109
H45   H     H_    0.776146 0.184397 0.075199 0.166305
H46   H     H_    0.257476 0.503567 0.611165 0.153086
H47   H     H_    0.671097 0.285397 0.601187 0.024585
H48   H     H_    0.350507 0.779546 0.370155 0.091015
H49   H     H_    0.500160 0.088275 0.359350 0.050049
H50   H     H_    0.385045 0.865149 0.553001 0.096842
H51   H     H_    0.523445 0.259786 0.404681 0.207466
H52   H     H_    0.409271 0.691984 0.517038 0.178943
H53   H     H_    0.640386 0.278329 0.681996 0.069637
H54   H     H_    0.450759 0.776262 0.328351 0.064551
H55   H     H_    0.674214 0.663365 0.542623 0.023566
H56   H     H_    0.240256 0.812765 0.925023 0.164514
H57   H     H_    0.277890 0.317095 0.370588 0.042333
H58   H     H_    0.794658 0.380656 0.545825 0.072063
H59   H     H_    0.257122 0.662028 0.559852 0.125352
H60   H     H_    0.899285 0.579461 0.723793 0.065843
H61   H     H_    0.128514 0.519345 0.322985 0.087571
H62   H     H_    0.761535 0.323460 0.413249 0.078922
H63   H     H_    0.211513 0.614982 0.659938 0.059046
H64   H     H_    0.764926 0.557304 0.638329 0.227157
H65   H     H_    0.248720 0.496337 0.383503 0.228174
H66   H     H_    0.631641 0.271460 0.926567 0.202426
H67   H     H_    0.611175 0.190101 0.925215 0.160759
H68   H     H_    0.357652 0.715608 0.073298 0.195015
H69   H     H_    0.805684 0.255355 0.927497 0.180988
H70   H     H_    0.189137 0.759372 0.072434 0.181258
H71   H     H_    0.390676 0.793127 0.074751 0.162510
H72   H     H_    0.853434 0.211697 0.073432 0.195008
O1    O     O_R   0.447710 0.092600 0.500010 -0.608722
O2    O     O_R   0.447720 0.907400 0.500040 -0.663841
O3    O     O_R   0.509140 0.061430 0.622880 -0.595518
O4    O     O_R   0.490860 0.938570 0.377120 -0.615635
O5    O     O_R   0.613710 0.061430 0.622840 -0.608590
O6    O     O_R   0.386290 0.938570 0.377160 -0.617569
O7    O     O_R   0.907580 0.552300 0.500030 -0.623246
O8    O     O_R   0.092420 0.447700 0.499970 -0.645680
O9    O     O_R   0.907560 0.447760 0.500050 -0.586964
O10   O     O_R   0.092440 0.552240 0.499950 -0.588341
O11   O     O_R   0.938770 0.490850 0.377130 -0.606783
O12   O     O_R   0.552290 0.907400 0.499990 -0.620630
O13   O     O_R   0.061230 0.509150 0.622870 -0.601155
O14   O     O_R   0.938740 0.386300 0.377150 -0.604533
O15   O     O_R   0.061260 0.613700 0.622850 -0.604752
O16   O     O_R   0.372700 0.465280 0.430600 -0.603513
O17   O     O_R   0.627300 0.534720 0.569400 -0.612856
O18   O     O_2   0.691953 0.027658 0.872463 -0.548813
O19   O     O_2   0.333645 0.971588 0.128035 -0.558199
O20   O     O_2   0.656020 0.303134 0.128145 -0.532452
O21   O     O_2   0.343047 0.671184 0.871830 -0.539131
O22   O     O_2   0.674259 0.183216 0.538877 -0.523237
O23   O     O_R   0.441990 0.534630 0.569310 -0.628224
O24   O     O_2   0.288357 0.719798 0.379394 -0.552835
O25   O     O_2   0.576170 0.148203 0.364729 -0.541701
O26   O     O_2   0.442331 0.824960 0.619512 -0.574099
O27   O     O_2   0.569610 0.250307 0.704657 -0.575051
O28   O     O_2   0.403992 0.670024 0.281424 -0.555404
O29   O     O_2   0.767245 0.673180 0.637740 -0.554589
O30   O     O_2   0.207351 0.356068 0.310011 -0.552957
O31   O     O_2   0.904671 0.429304 0.615287 -0.536970
O32   O     O_2   0.154902 0.648093 0.474235 -0.535534
O33   O     O_2   0.936265 0.609122 0.671223 -0.594655
O34   O     O_R   0.558010 0.465370 0.430690 -0.632111
O35   O     O_2   0.068341 0.456933 0.331855 -0.610185
O36   O     O_2   0.760121 0.325886 0.323375 -0.542600
O37   O     O_2   0.312173 0.671901 0.702184 -0.534656
O38   O     O_R   0.465370 0.372730 0.430660 -0.630214
O39   O     O_R   0.534630 0.627270 0.569340 -0.611487
O40   O     O_R   0.534650 0.442080 0.569370 -0.630809
O41   O     O_R   0.465350 0.557920 0.430630 -0.623194
O42   O     O_R   0.552280 0.092600 0.499960 -0.595325
Zn1   Zn    Zn3+2 0.430180 0.000000 0.500030 0.984665
Zn2   Zn    Zn3+2 0.569820 0.000000 0.499970 1.030121
Zn3   Zn    Zn3+2 0.000200 0.569810 0.499990 1.062015
Zn4   Zn    Zn3+2 0.999800 0.430190 0.500010 1.048039
Zn5   Zn    Zn3+2 0.453740 0.453690 0.407380 0.992834
Zn6   Zn    Zn3+2 0.546260 0.546310 0.592620 0.985725

loop_
_geom_bond_atom_site_label_1
_geom_bond_atom_site_label_2
_ccdc_geom_bond_type
C23   C58   S    
O5    Zn2   S    
C18   C75   S    
C30   H52   S    
C82   O33   D    
O40   Zn6   S    
C80   O31   D    
C40   C84   S    
C3    C23   S    
C20   C73   S    
C5    C67   S    
C15   H8    S    
C62   H38   S    
C47   O14   A    
C35   C81   S    
C46   O10   A    
C62   C67   S    
O4    Zn2   S    
O3    Zn1   S    
C19   C76   S    
C58   H67   S    
C9    C16   S    
C38   C42   S    
C51   O38   A    
C43   H28   S    
C73   O25   D    
C11   C14   S    
C70   O21   D    
O1    Zn1   S    
C74   O26   D    
C10   C17   S    
C27   H18   S    
O41   Zn5   S    
C33   C36   S    
C56   C78   S    
C60   H33   S    
C60   C62   S    
O34   Zn5   S    
C32   C39   S    
O38   Zn5   S    
O14   Zn4   S    
C68   O19   D    
C37   H26   S    
C47   O11   A    
C8    C34   S    
C44   C53   S    
C6    C65   T    
C79   H57   S    
C73   H49   S    
C69   H42   S    
C84   O36   D    
C80   H58   S    
C74   H50   S    
C30   H17   S    
C45   C67   S    
O16   Zn5   S    
C20   C71   S    
C2    H2    S    
C18   H11   S    
C48   C65   S    
C50   O34   A    
C33   C82   S    
O8    Zn4   S    
C14   H7    S    
C51   O40   A    
C40   C42   S    
C1    C22   S    
C35   C54   S    
C25   C29   S    
C41   C43   S    
C66   O18   D    
O39   Zn6   S    
C75   O27   D    
C32   C57   S    
C37   H65   S    
C29   H51   S    
C28   H15   S    
C49   O16   A    
C82   H60   S    
C59   H68   S    
C58   H66   S    
C31   C77   S    
C57   H30   S    
C77   H55   S    
C20   C29   S    
C53   C55   S    
C16   O5    A    
C33   C53   S    
C23   C60   S    
C45   C58   S    
C4    C34   S    
C27   H14   S    
C31   H1    S    
C79   O30   D    
C21   C72   S    
C45   C69   S    
C1    O1    A    
C17   O4    A    
O2    Zn1   S    
C4    C68   S    
C19   H13   S    
C85   O37   D    
C15   C26   S    
C12   O12   A    
C21   C74   S    
C70   H43   S    
C66   H40   S    
C13   C24   S    
C50   O17   A    
C44   O9    A    
C71   O22   D    
C83   O35   D    
C84   H62   S    
C2    C4    S    
C25   C51   S    
C2    C78   S    
C17   O6    A    
C26   C52   S    
C69   O20   D    
O11   Zn3   S    
C48   O13   A    
C86   H72   S    
C11   H3    S    
C42   H27   S    
C72   H48   S    
C57   H24   S    
C28   H19   S    
C46   C54   S    
C36   H25   S    
C61   C63   S    
C52   O41   A    
C43   H21   S    
O9    Zn4   S    
C12   O2    A    
C19   C28   S    
C42   H20   S    
C68   H41   S    
C63   H39   S    
C49   O23   A    
C8    C10   T    
C39   C49   S    
C20   C22   S    
C26   C30   S    
C81   H59   S    
C13   C15   S    
C13   H6    S    
C34   C59   S    
C2    H56   S    
C15   H10   S    
C83   H61   S    
C13   H4    S    
C63   H37   S    
C76   H54   S    
C3    C66   S    
C61   H70   S    
C14   H9    S    
C62   H36   S    
C76   O28   D    
C48   O15   A    
C45   H31   S    
C7    C9    T    
C40   H44   S    
C67   C86   S    
C35   C83   S    
C46   O8    A    
C35   C37   S    
C18   C22   S    
C56   H32   S    
C18   C27   S    
C61   H35   S    
C71   H47   S    
C41   H46   S    
C39   C43   S    
C47   C64   S    
C33   C80   S    
C38   C50   S    
C16   O3    A    
C25   C27   S    
C41   C85   S    
C21   C30   S    
C12   C24   S    
C11   C22   S    
C26   C28   S    
C56   C59   S    
C55   H22   S    
O15   Zn3   S    
C81   O32   D    
C31   C38   S    
C36   C38   S    
O23   Zn6   S    
O7    Zn3   S    
C60   H69   S    
C72   O24   D    
C37   C39   S    
C75   H53   S    
C32   C79   S    
C59   H71   S    
C36   H64   S    
C55   H29   S    
C3    H23   S    
C7    C23   S    
C56   C70   S    
C32   H12   S    
C29   H16   S    
C19   C24   S    
C44   O7    A    
C34   C61   S    
C14   C25   S    
C86   H45   S    
C85   H63   S    
C41   C54   S    
O12   Zn2   S    
C77   O29   D    
C6    C78   S    
O6    Zn1   S    
O13   Zn4   S    
C1    O42   A    
O10   Zn3   S    
C11   H5    S    
C5    C64   T    
O42   Zn2   S    
C40   C53   S    
C21   C24   S    
C4    H34   S    
C52   O39   A    
O17   Zn6   S    
C31   C55   S    
C54   C57   S    
C3    C86   S    
C63   C78   S    
