data_mof_unit_49586.cif
_audit_creation_date              2012-12-11T17:41:42-0500
_audit_creation_method            fapswitch 2.2
_symmetry_space_group_name_H-M    P1
_symmetry_Int_Tables_number       1
_space_group_crystal_system       triclinic
_cell_length_a                    15.53434
_cell_length_b                    15.107445
_cell_length_c                    15.09805
_cell_angle_alpha                 109.867262
_cell_angle_beta                  121.703113
_cell_angle_gamma                 58.877926
_cell_volume                      2569.31839606

loop_
_atom_site_label
_atom_site_type_symbol
_atom_type_description
_atom_site_fract_x
_atom_site_fract_y
_atom_site_fract_z
_atom_type_partial_charge
C1    C     C_R   0.801805 0.940630 0.775298 -0.091654
C2    C     C_R   0.318073 0.392695 0.209749 -0.110797
C3    C     C_R   0.625743 0.787950 0.886020 -0.118907
C4    C     C_R   0.392739 0.299456 0.180348 -0.140887
C5    C     C_R   0.668601 0.854323 0.968504 0.116550
C6    C     C_R   0.355288 0.247213 0.080471 0.117621
C7    C     C_R   0.784859 0.819104 0.028056 -0.186206
C8    C     C_R   0.241708 0.290949 0.010104 -0.163412
C9    C     C_R   0.856817 0.719634 0.004170 -0.093734
C10   C     C_R   0.167259 0.384441 0.039712 -0.106937
C11   C     C_R   0.813321 0.654179 0.921758 -0.088955
C12   C     C_R   0.240537 0.010538 0.208886 -0.063768
C13   C     C_R   0.205367 0.435182 0.139480 -0.096463
C14   C     C_R   0.594466 0.977051 0.091174 -0.231660
C15   C     C_R   0.434105 0.130747 0.953742 -0.243753
C16   C     C_R   0.226491 0.287709 0.476269 -0.126665
C17   C     C_R   0.798414 0.724220 0.555810 -0.094924
C18   C     C_R   0.513815 0.066708 0.116472 0.062034
C19   C     C_R   0.509967 0.037011 0.926180 0.068865
C20   C     C_R   0.434903 0.147112 0.050217 0.022262
C21   C     C_R   0.591968 0.959274 0.995436 0.013949
C22   C     C_2   0.123630 0.394297 0.588839 -0.217472
C23   C     C_R   0.188925 0.297047 0.545642 0.150962
C24   C     C_2   0.974077 0.649254 0.531687 -0.205573
C25   C     C_2   0.121761 0.483112 0.587007 -0.120146
C26   C     C_2   0.033506 0.580055 0.601397 -0.074119
C27   C     C_2   0.981557 0.960056 0.852430 -0.309564
C28   C     C_2   0.143287 0.891491 0.097783 -0.306473
C29   C     C_R   0.241011 0.846373 0.700320 -0.105855
C30   C     C_R   0.769318 0.210238 0.429566 -0.106806
C31   C     C_R   0.332784 0.760993 0.687740 -0.195873
C32   C     C_R   0.683408 0.294139 0.452590 -0.190190
C33   C     C_R   0.319279 0.698759 0.592334 0.069084
C34   C     C_R   0.860285 0.724187 0.514984 0.143882
C35   C     C_R   0.703126 0.336507 0.556314 0.064366
C36   C     C_R   0.210577 0.722537 0.508479 0.332717
C37   C     C_R   0.812568 0.295662 0.637686 0.325765
C38   C     C_R   0.118970 0.808032 0.522944 -0.157248
C39   C     C_R   0.898200 0.211654 0.612928 -0.173760
C40   C     C_R   0.596140 0.227396 0.554699 -0.109503
C41   C     C_R   0.407815 0.783153 0.511389 -0.122150
C42   C     C_R   0.134223 0.869728 0.618129 -0.153767
C43   C     C_R   0.876486 0.168914 0.509635 -0.167661
C44   C     C_R   0.424782 0.508617 0.576141 -0.234424
C45   C     C_R   0.506875 0.322030 0.534205 0.051829
C46   C     C_R   0.605024 0.520896 0.592338 -0.249311
C47   C     C_R   0.515138 0.419161 0.565149 0.057711
C48   C     C_R   0.508503 0.611056 0.588336 0.040136
C49   C     C_R   0.608354 0.425063 0.576738 0.042659
C50   C     C_R   0.418840 0.605961 0.585317 0.043888
C51   C     C_2   0.051288 0.877182 0.908646 0.391238
C52   C     C_2   0.146291 0.885406 0.008221 0.391037
C53   C     C_R   0.408899 0.035755 0.732453 -0.141161
C54   C     C_R   0.595394 0.011207 0.288168 -0.139184
C55   C     C_R   0.411000 0.305964 0.467088 -0.145156
C56   C     C_R   0.501095 0.701982 0.567860 0.062201
C57   C     C_R   0.592649 0.713742 0.590328 -0.133572
C58   C     C_R   0.595266 0.971699 0.805582 -0.118393
C59   C     C_R   0.409992 0.083389 0.208632 -0.086102
C60   C     C_R   0.226677 0.198417 0.568340 -0.142834
C61   C     C_R   0.799979 0.814081 0.465519 -0.136514
C62   C     C_R   0.804491 0.029517 0.686261 -0.193964
C63   C     C_R   0.239887 0.918159 0.297937 -0.185991
C64   C     C_R   0.866175 0.978209 0.775628 0.217618
C65   C     C_R   0.208023 0.935930 0.197833 0.214531
C66   C     C_3   0.188825 0.661296 0.402694 -1.123206
C67   C     C_R   0.503909 0.021958 0.825637 0.052686
C68   C     C_3   0.840809 0.336564 0.750932 -1.091755
C69   C     C_R   0.505160 0.061001 0.203283 0.046657
C70   C     C_R   0.697873 0.688175 0.863089 -0.129244
H1    H     H_    0.828455 0.887207 0.826571 0.151009
H2    H     H_    0.479805 0.267693 0.235361 0.105253
H3    H     H_    0.819547 0.868966 0.092370 0.111895
H4    H     H_    0.210406 0.252064 0.932968 0.107709
H5    H     H_    0.946262 0.693134 0.049831 0.106467
H6    H     H_    0.079882 0.417371 0.985378 0.105230
H7    H     H_    0.653084 0.914371 0.141743 0.135881
H8    H     H_    0.374877 0.190574 0.899956 0.132976
H9    H     H_    0.004385 0.584557 0.654895 0.136519
H10   H     H_    0.172121 0.484258 0.558076 0.129988
H11   H     H_    0.004213 0.643311 0.478223 0.131445
H12   H     H_    0.224593 0.046366 0.147825 0.139485
H13   H     H_    0.072600 0.393860 0.617469 0.133221
H14   H     H_    0.063049 0.935560 0.628250 0.118324
H15   H     H_    0.943010 0.103782 0.491656 0.121051
H16   H     H_    0.201146 0.348044 0.433753 0.088642
H17   H     H_    0.824116 0.671780 0.607692 0.087641
H18   H     H_    0.252578 0.893720 0.774362 0.117384
H19   H     H_    0.752759 0.177332 0.349488 0.116519
H20   H     H_    0.414370 0.741407 0.753312 0.124086
H21   H     H_    0.600885 0.326136 0.389795 0.122474
H22   H     H_    0.035433 0.827340 0.459926 0.118232
H23   H     H_    0.082668 0.873827 0.095734 0.105293
H24   H     H_    0.981985 0.178649 0.674068 0.123083
H25   H     H_    0.356004 0.502731 0.571982 0.138600
H26   H     H_    0.674615 0.522662 0.593989 0.138912
H27   H     H_    0.682435 0.209967 0.606563 0.118926
H28   H     H_    0.321410 0.803949 0.487367 0.111297
H29   H     H_    0.325085 0.062888 0.721876 0.095584
H30   H     H_    0.682236 0.991430 0.313805 0.092177
H31   H     H_    0.327720 0.364032 0.429021 0.097605
H32   H     H_    0.678357 0.673868 0.644927 0.094975
H33   H     H_    0.682032 0.946603 0.860751 0.104407
H34   H     H_    0.005527 0.022651 0.871450 0.106007
H35   H     H_    0.324480 0.129284 0.158240 0.100880
H36   H     H_    0.203402 0.178854 0.612467 0.091991
H37   H     H_    0.830120 0.843796 0.436851 0.090727
H38   H     H_    0.836876 0.054718 0.655766 0.110383
H39   H     H_    0.225542 0.865798 0.317263 0.112155
H40   H     H_    0.266495 0.602576 0.394994 0.265763
H41   H     H_    0.138992 0.621182 0.388343 0.255206
H42   H     H_    0.141088 0.714770 0.341111 0.255443
H43   H     H_    0.767402 0.399810 0.763555 0.266740
H44   H     H_    0.876048 0.272597 0.797286 0.257031
H45   H     H_    0.868994 0.577018 0.903603 0.101684
H46   H     H_    0.904013 0.366808 0.780989 0.250954
H47   H     H_    0.214922 0.892560 0.936255 0.306330
H48   H     H_    0.088770 0.740871 0.932049 0.309381
H49   H     H_    0.147594 0.507409 0.162307 0.109805
H50   H     H_    0.664369 0.637061 0.800106 0.122295
H51   H     H_    0.347714 0.431955 0.287007 0.113689
H52   H     H_    0.536649 0.814117 0.839763 0.107282
N1    N     N_R   0.705410 0.966550 0.689210 -0.057725
N2    N     N_R   0.556610 0.796750 0.548620 -0.039110
N3    N     N_R   0.556610 0.951620 0.703500 -0.042778
N4    N     N_R   0.443390 0.048380 0.296500 -0.043686
N5    N     N_R   0.294590 0.131500 0.522480 -0.041807
N6    N     N_R   0.705410 0.868500 0.477520 -0.041653
N7    N     N_R   0.705410 0.023370 0.632390 -0.043585
N8    N     N_R   0.294590 0.976630 0.367610 -0.046055
N9    N     N_R   0.294590 0.033450 0.310790 -0.064069
N10   N     N_R   0.294590 0.188320 0.465660 -0.045014
N11   N     N_R   0.705410 0.811680 0.534340 -0.046684
N12   N     N_R   0.556610 0.157790 0.497330 -0.042817
N13   N     N_R   0.443390 0.842210 0.502670 -0.040185
N14   N     N_R   0.443390 0.997080 0.657540 -0.037591
N15   N     N_R   0.556610 0.002920 0.342460 -0.036333
N16   N     N_R   0.443390 0.203250 0.451380 -0.038638
Ni1   Ni    Ni4+2 0.629830 0.882720 0.617850 0.223711
Ni2   Ni    Ni4+2 0.370170 0.117280 0.382150 0.215159
Ni3   Ni    Ni4+2 0.629830 0.013030 0.487540 0.216668
Ni4   Ni    Ni4+2 0.370170 0.986970 0.512460 0.216040
O1    O     O_3   0.227677 0.900225 0.009560 -0.762407
O2    O     O_3   0.027304 0.792628 0.880878 -0.772037

loop_
_geom_bond_atom_site_label_1
_geom_bond_atom_site_label_2
_ccdc_geom_bond_type
C63   C65   A    
N4    N15   A    
C12   N9    A    
C38   H22   S    
C29   C42   A    
C25   H10   S    
C14   C18   A    
N2    Ni1   S    
C41   N13   A    
C11   C70   A    
C47   C49   A    
C51   O2    S    
C53   H29   S    
C59   N4    A    
C15   C19   A    
C57   H32   S    
C46   C49   A    
N4    Ni2   S    
C1    H1    S    
C55   N16   A    
C14   C21   A    
C35   C37   A    
C24   C26   D    
C38   C42   A    
C41   C56   A    
H48   O2    S    
C8    C10   A    
C36   C66   S    
C14   H7    S    
C54   N15   A    
C62   H38   S    
C37   C68   S    
N1    Ni1   S    
C27   H34   S    
C33   C36   A    
C56   C57   A    
C48   C56   S    
C63   N8    A    
C2    C13   A    
N5    N10   A    
C29   H18   S    
N14   Ni4   S    
N9    Ni2   S    
C10   H6    S    
N13   Ni4   S    
C70   H50   S    
C22   C25   D    
C35   C49   S    
C62   C64   A    
C31   C33   A    
C19   C67   S    
C66   H41   S    
C11   H45   S    
N6    Ni3   S    
C44   C47   A    
C68   H43   S    
C18   C69   S    
C48   C50   A    
N1    N7    A    
C16   H16   S    
C62   N7    A    
C54   H30   S    
C40   C45   A    
C53   N14   A    
C30   H19   S    
C53   C67   A    
C13   H49   S    
C27   C51   D    
C45   C47   S    
C23   C60   A    
C46   C48   A    
C52   O1    S    
C51   C52   S    
C43   H15   S    
C32   C35   A    
C3    C70   A    
C42   H14   S    
C7    H3    S    
C40   H27   S    
C5    C7    A    
N7    Ni3   S    
C39   C43   A    
C25   C26   S    
C40   N12   A    
C41   H28   S    
C34   C61   A    
N3    Ni1   S    
C28   H23   S    
N5    Ni4   S    
C63   H39   S    
C16   N10   A    
C2    C4    A    
C24   H11   S    
C1    N1    A    
C39   H24   S    
C15   C20   A    
C31   H20   S    
C8    H4    S    
C12   H12   S    
C59   H35   S    
C66   H40   S    
C15   H8    S    
C9    C11   A    
N16   Ni2   S    
C59   C69   A    
N3    N14   A    
C4    C6    A    
C68   H46   S    
N11   Ni1   S    
C16   C23   A    
C17   N11   A    
C30   C43   A    
C17   C34   A    
C1    C64   A    
C4    H2    S    
C60   H36   S    
C2    H51   S    
C44   C50   A    
C7    C9    A    
N15   Ni3   S    
N2    N13   A    
H47   O1    S    
C17   H17   S    
N8    Ni4   S    
C60   N5    A    
C3    C5    A    
C10   C13   A    
N12   N16   A    
C6    C8    A    
C3    H52   S    
N10   Ni2   S    
C6    C20   S    
C12   C65   A    
C55   H31   S    
C26   H9    S    
C22   H13   S    
C36   C38   A    
N8    N9    A    
C33   C50   S    
C29   C31   A    
C44   H25   S    
N6    N11   A    
N12   Ni3   S    
C30   C32   A    
C28   C52   D    
C54   C69   A    
C57   N2    A    
C28   C65   S    
C61   N6    A    
C18   C20   A    
C61   H37   S    
C24   C34   S    
C27   C64   S    
C32   H21   S    
C58   C67   A    
C46   H26   S    
C45   C55   A    
C58   N3    A    
C37   C39   A    
C5    C21   S    
C22   C23   S    
C58   H33   S    
C9    H5    S    
C66   H42   S    
C68   H44   S    
C19   C21   A    
