data_mof_unit_32387.cif
_audit_creation_date              2012-12-10T20:39:14-0500
_audit_creation_method            fapswitch 2.2
_symmetry_space_group_name_H-M    P1
_symmetry_Int_Tables_number       1
_space_group_crystal_system       triclinic
_cell_length_a                    18.793206
_cell_length_b                    10.592116
_cell_length_c                    9.942965
_cell_angle_alpha                 89.806445
_cell_angle_beta                  89.512725
_cell_angle_gamma                 90.820339
_cell_volume                      1978.95824645

loop_
_atom_site_label
_atom_site_type_symbol
_atom_type_description
_atom_site_fract_x
_atom_site_fract_y
_atom_site_fract_z
_atom_type_partial_charge
C1    C     C_R   0.499671 0.260790 0.500494 0.885644
C2    C     C_R   0.289497 0.467086 0.501603 -0.104185
C3    C     C_R   0.929283 0.363549 0.499345 0.302519
C4    C     C_R   0.072583 0.354615 0.508621 0.367757
C5    C     C_R   0.827782 0.472412 0.599452 -0.179022
C6    C     C_R   0.757277 0.511382 0.601639 0.179036
C7    C     C_R   0.711462 0.471279 0.497913 -0.054574
C8    C     C_R   0.737425 0.393984 0.394583 -0.215182
C9    C     C_R   0.807904 0.354025 0.393156 0.194377
C10   C     C_R   0.853562 0.394146 0.497058 0.028447
C11   C     C_R   0.546965 0.064928 0.575245 0.126868
C12   C     C_R   0.365105 0.497713 0.500527 0.814548
C13   C     C_R   0.495899 0.129112 0.504066 -0.116483
C14   C     C_R   0.436488 0.066398 0.451883 -0.068975
C15   C     C_R   0.434806 0.934739 0.450014 -0.031377
C16   C     C_R   0.494182 0.871332 0.502433 -0.212632
C17   C     C_R   0.546717 0.936446 0.572687 0.079151
C18   C     C_3   0.626422 0.931739 0.563397 -0.210763
C19   C     C_3   0.626235 0.075469 0.566698 -0.574546
C20   C     C_R   0.443846 0.450820 0.071606 0.099645
C21   C     C_R   0.551739 0.563192 0.069394 -0.007135
C22   C     C_R   0.551546 0.561404 0.925762 -0.070278
C23   C     C_R   0.498780 0.739285 0.499985 0.855135
C24   C     C_R   0.442930 0.453058 0.930756 0.007321
C25   C     C_3   0.404969 0.326926 0.924255 -0.187055
C26   C     C_3   0.408822 0.322953 0.079482 -0.288686
C27   C     C_R   0.635172 0.497520 0.499538 0.900100
C28   C     C_R   0.241295 0.526733 0.588974 -0.058355
C29   C     C_R   0.171227 0.481002 0.595163 -0.117929
C30   C     C_R   0.148834 0.379531 0.514671 0.026942
C31   C     C_R   0.197582 0.318868 0.428676 -0.011213
C32   C     C_R   0.267409 0.364511 0.422756 -0.234862
H1    H     H_    0.650446 0.888942 0.654344 0.186324
H2    H     H_    0.649272 0.115101 0.660381 0.216650
H3    H     H_    0.645029 0.122998 0.472573 0.191363
H4    H     H_    0.592367 0.611482 0.869031 0.173996
H5    H     H_    0.356327 0.326611 0.131700 0.181463
H6    H     H_    0.132709 0.528651 0.658156 0.193084
H7    H     H_    0.305848 0.316499 0.359886 0.137730
H8    H     H_    0.863264 0.504579 0.678048 0.169355
H9    H     H_    0.701787 0.361104 0.316553 0.161546
H10   H     H_    0.393098 0.120070 0.410386 0.182111
N1    N     N_R   0.039010 0.362661 0.388901 -0.120152
N2    N     N_R   0.968500 0.367018 0.384391 -0.143183
N3    N     N_R   0.962972 0.352377 0.618861 -0.162026
N4    N     N_R   0.033473 0.348451 0.623530 -0.146749
N5    N     N_R   0.499530 0.499140 0.142800 -0.157302
N6    N     N_R   0.499530 0.499180 0.857150 -0.132311
O1    O     O_R   0.500010 0.316790 0.614690 -0.615861
O2    O     O_R   0.500000 0.316760 0.385350 -0.641278
O3    O     O_R   0.398140 0.500000 0.614710 -0.633455
O4    O     O_R   0.398130 0.499970 0.385370 -0.599456
O5    O     O_R   0.500000 0.683240 0.614650 -0.591473
O6    O     O_R   0.499990 0.683210 0.385310 -0.647722
O7    O     O_R   0.601870 0.500030 0.614630 -0.622150
O8    O     O_R   0.601860 0.500000 0.385290 -0.639458
Zn1   Zn    Zn3+2 0.500000 0.500020 0.653130 0.946252
Zn2   Zn    Zn3+2 0.500000 0.499980 0.346870 0.931959
C33   C     C_2   0.262362 0.639406 0.668908 0.430058
H11   H     H_    0.313818 0.685005 0.653228 0.067264
O9    O     O_2   0.222151 0.683490 0.753083 -0.517848
C34   C     C_2   0.372477 0.866313 0.392919 0.490562
H12   H     H_    0.369250 0.764133 0.395720 0.043167
O10   O     O_2   0.323381 0.923647 0.342662 -0.522497
C35   C     C_2   0.653599 0.879753 0.432221 0.436114
H13   H     H_    0.632161 0.912687 0.337488 0.079663
O11   O     O_2   0.699914 0.800219 0.431477 -0.565874
C36   C     C_2   0.608122 0.637817 0.136275 0.434671
H14   H     H_    0.600075 0.675729 0.235393 0.142291
O12   O     O_2   0.664566 0.661029 0.078957 -0.582989
C37   C     C_2   0.329701 0.340188 0.874668 0.530160
H15   H     H_    0.314031 0.424608 0.821418 0.062882
O13   O     O_2   0.285749 0.255921 0.894008 -0.496528
C38   C     C_2   0.446262 0.224772 0.853072 0.581772
H16   H     H_    0.503874 0.223069 0.860504 0.022201
O14   O     O_2   0.415707 0.141247 0.790711 -0.526024
C39   C     C_2   0.455958 0.220877 0.133279 0.452379
H17   H     H_    0.512626 0.237667 0.145839 0.069717
O15   O     O_2   0.431364 0.115253 0.153440 -0.536600
C40   C     C_2   0.179330 0.205965 0.346980 0.478330
H18   H     H_    0.215410 0.176027 0.267758 0.110065
O16   O     O_2   0.125760 0.142583 0.369460 -0.517235
C41   C     C_3   0.732950 0.594544 0.715269 -0.776199
H19   H     H_    0.778617 0.635954 0.770921 0.245421
H20   H     H_    0.701162 0.673873 0.676201 0.248404
H21   H     H_    0.700775 0.537326 0.787534 0.243419
C42   C     C_3   0.831889 0.265583 0.283735 -0.817429
H22   H     H_    0.869895 0.314970 0.214918 0.264053
H23   H     H_    0.857544 0.181846 0.328813 0.254642
H24   H     H_    0.786500 0.231161 0.222369 0.228487

loop_
_geom_bond_atom_site_label_1
_geom_bond_atom_site_label_2
_ccdc_geom_bond_type
C8    C9    A    
C22   N6    A    
C42   H22   S    
C2    C12   S    
O1    Zn1   S    
N6    Zn1   S    
C4    N4    A    
C39   H17   S    
C18   C35   S    
C11   C19   S    
C29   C30   A    
C38   O14   D    
C28   C29   A    
C25   C38   S    
O6    Zn2   S    
C30   C31   A    
C27   O7    A    
C15   C16   A    
C7    C27   S    
C2    C32   A    
C18   C19   S    
C32   H7    S    
C34   O10   D    
C31   C32   A    
C16   C17   A    
C35   O11   D    
C29   H6    S    
C25   C37   S    
C1    O2    A    
C14   H10   S    
C33   H11   S    
C13   C14   A    
C12   O4    A    
C23   O5    A    
C39   O15   D    
C3    N2    A    
C33   O9    D    
C26   C39   S    
C38   H16   S    
O2    Zn2   S    
C20   C24   A    
C7    C8    A    
C8    H9    S    
C40   O16   D    
C37   O13   D    
O5    Zn1   S    
C27   O8    A    
C36   H14   S    
C25   C26   S    
N3    N4    A    
C3    N3    A    
C24   N6    A    
N1    N2    A    
C34   H12   S    
C41   H19   S    
C17   C18   S    
C24   C25   S    
O4    Zn2   S    
O3    Zn1   S    
C41   H20   S    
C16   C23   S    
O7    Zn1   S    
C21   C36   S    
C42   H24   S    
C1    C13   S    
C12   O3    A    
C23   O6    A    
C9    C10   A    
C28   C33   S    
C11   C17   A    
C6    C41   S    
C40   H18   S    
C19   H2    S    
C26   H5    S    
C6    C7    A    
C4    N1    A    
C22   H4    S    
C31   C40   S    
C42   H23   S    
C37   H15   S    
C3    C10   S    
C19   H3    S    
C9    C42   S    
N5    Zn2   S    
C11   C13   A    
C5    C6    A    
C20   C26   S    
C15   C34   S    
O8    Zn2   S    
C18   H1    S    
C20   N5    A    
C5    C10   A    
C41   H21   S    
C36   O12   D    
C35   H13   S    
C5    H8    S    
C14   C15   A    
C2    C28   A    
C21   C22   A    
C1    O1    A    
C4    C30   S    
C21   N5    A    
