data_mof_unit_41908.cif
_audit_creation_date              2012-10-26T19:43:47-0400
_audit_creation_method            fapswitch 2.2
_symmetry_space_group_name_H-M    P1
_symmetry_Int_Tables_number       1
_space_group_crystal_system       triclinic
_cell_length_a                    12.34115
_cell_length_b                    13.11234
_cell_length_c                    13.870951
_cell_angle_alpha                 105.343733
_cell_angle_beta                  73.846852
_cell_angle_gamma                 116.414542
_cell_volume                      1904.85624845

loop_
_atom_site_label
_atom_site_type_symbol
_atom_type_description
_atom_site_fract_x
_atom_site_fract_y
_atom_site_fract_z
_atom_type_partial_charge
C1    C     C_R   0.144424 0.714554 0.508201 0.524900
C2    C     C_R   0.565137 0.021447 0.467087 0.033286
C3    C     C_R   0.611028 0.940423 0.401893 0.051103
C4    C     C_R   0.983867 0.503687 0.686302 0.546596
C5    C     C_R   0.529284 0.831394 0.365265 -0.136481
C6    C     C_R   0.403155 0.799847 0.396367 -0.118984
C7    C     C_R   0.650131 0.130558 0.501987 -0.131204
C8    C     C_R   0.820823 0.082506 0.402281 -0.127949
C9    C     C_R   0.226063 0.839563 0.510229 -0.022063
C10   C     C_R   0.633193 0.667102 0.667751 -0.137608
C11   C     C_R   0.252988 0.352053 0.362949 0.049300
C12   C     C_1   0.972427 0.502750 0.791042 -0.006015
C13   C     C_R   0.352679 0.320315 0.332022 -0.151920
C14   C     C_R   0.451601 0.376426 0.383209 -0.125435
C15   C     C_R   0.451841 0.465350 0.466789 -0.006091
C16   C     C_R   0.856440 0.285892 0.485523 0.546862
C17   C     C_R   0.347118 0.494659 0.495992 0.179181
C18   C     C_R   0.550893 0.525282 0.523080 -0.012974
C19   C     C_R   0.541072 0.610395 0.608641 0.028807
C20   C     C_R   0.439089 0.638148 0.635334 -0.165823
C21   C     C_R   0.344907 0.582282 0.579951 -0.083212
C22   C     C_R   0.659817 0.504699 0.499016 0.045215
C23   C     C_R   0.738470 0.970915 0.371435 -0.122291
C24   C     C_R   0.735949 0.640774 0.641533 0.071444
C25   C     C_R   0.016455 0.496743 0.313701 0.549452
C26   C     C_1   0.029532 0.499643 0.209092 -0.043959
C27   C     C_2   0.053114 0.508067 0.015019 0.261234
C28   C     C_2   0.954228 0.498084 0.983641 0.018403
C29   C     C_1   0.962895 0.500948 0.879064 0.001752
C30   C     C_1   0.041300 0.503263 0.121093 -0.073390
C31   C     C_1   0.837143 0.483318 0.051340 0.160860
C32   C     C_3   0.260204 0.534008 0.984923 -0.001834
C33   C     C_3   0.374421 0.552218 0.901767 -0.365196
C34   C     C_R   0.776178 0.163349 0.465885 -0.000119
C35   C     C_1   0.050949 0.902129 0.597252 0.222290
C36   C     C_R   0.179999 0.925909 0.560812 -0.018874
C37   C     C_R   0.260464 0.041262 0.576107 -0.140051
C38   C     C_R   0.386233 0.073455 0.546522 -0.137011
C39   C     C_R   0.436139 0.991072 0.495283 0.031120
C40   C     C_R   0.354354 0.875243 0.467923 0.013395
Cu1   Cu    Cu3+1 0.899780 0.525060 0.522890 0.953860
Cu2   Cu    Cu3+1 0.100220 0.474940 0.477110 0.921692
H1    H     H_    0.345208 0.717299 0.359645 0.153093
H2    H     H_    0.918548 0.106603 0.373602 0.125606
H3    H     H_    0.562902 0.770310 0.311664 0.116652
H4    H     H_    0.774191 0.909621 0.321118 0.116964
H5    H     H_    0.620784 0.192832 0.557012 0.120903
H6    H     H_    0.441513 0.164743 0.560965 0.108747
H7    H     H_    0.225702 0.107551 0.613324 0.128909
H8    H     H_    0.237086 0.454256 0.014509 0.139753
H9    H     H_    0.281915 0.610177 0.046707 0.135277
H10   H     H_    0.401221 0.632578 0.872066 0.153248
H11   H     H_    0.451865 0.559886 0.932998 0.101578
H12   H     H_    0.805849 0.682258 0.688327 0.146786
H13   H     H_    0.355889 0.478040 0.838314 0.169064
H14   H     H_    0.431774 0.704086 0.700109 0.115821
H15   H     H_    0.625295 0.730809 0.734362 0.100458
H16   H     H_    0.675579 0.442449 0.434679 0.124673
H17   H     H_    0.176783 0.308026 0.322602 0.125774
H18   H     H_    0.525956 0.347901 0.356338 0.112345
H19   H     H_    0.353246 0.251886 0.268126 0.111959
H20   H     H_    0.271482 0.610454 0.606532 0.185942
N1    N     N_R   0.748810 0.563010 0.557590 -0.234711
N2    N     N_R   0.250540 0.437620 0.443020 -0.235676
N3    N     N_1   0.743648 0.471532 0.105468 -0.308009
N4    N     N_1   0.948035 0.885333 0.626479 -0.315719
O1    O     O_R   0.025040 0.682470 0.528790 -0.478873
O2    O     O_R   0.194310 0.640150 0.490130 -0.531451
O3    O     O_R   0.903380 0.524130 0.659910 -0.502806
O4    O     O_R   0.072660 0.481800 0.621240 -0.503178
O5    O     O_R   0.805690 0.359850 0.509870 -0.510278
O6    O     O_R   0.974960 0.317530 0.471210 -0.501131
O7    O     O_R   0.927340 0.518200 0.378760 -0.487569
O8    O     O_R   0.096620 0.475870 0.340090 -0.512160
O9    O     O_3   0.162279 0.522603 0.943433 -0.554260

loop_
_geom_bond_atom_site_label_1
_geom_bond_atom_site_label_2
_ccdc_geom_bond_type
C33   H13   S    
C15   C18   A    
C12   C29   T    
Cu1   Cu2   S    
C3    C23   A    
C19   C20   A    
C16   O6    A    
C20   H14   S    
C8    C23   A    
C32   O9    S    
C4    O4    A    
Cu1   O1    S    
C33   H10   S    
C36   C37   A    
C18   C19   A    
C17   N2    A    
C38   C39   A    
C27   O9    S    
C24   H12   S    
Cu2   O4    S    
C1    O2    A    
C15   C17   A    
C25   O8    A    
C2    C7    A    
C16   C34   S    
C22   N1    A    
C2    C39   A    
C35   C36   S    
C9    C36   A    
C4    C12   S    
C38   H6    S    
Cu1   O5    S    
C23   H4    S    
C13   C14   A    
C27   C30   S    
Cu2   O2    S    
C16   O5    A    
C11   H17   S    
C4    O3    A    
C33   H11   S    
Cu2   O8    S    
C10   H15   S    
C1    C9    S    
C11   N2    A    
C39   C40   A    
C35   N4    T    
C10   C24   A    
C25   C26   S    
C5    H3    S    
C9    C40   A    
C17   C21   A    
C7    H5    S    
C32   H9    S    
C37   C38   A    
C37   H7    S    
C10   C19   A    
Cu2   O6    S    
C8    C34   A    
C32   H8    S    
C21   H20   S    
C26   C30   T    
C24   N1    A    
C6    H1    S    
C7    C34   A    
C6    C40   A    
Cu1   N1    S    
Cu2   N2    S    
Cu1   O3    S    
C31   N3    T    
C28   C29   S    
C18   C22   A    
C28   C31   S    
C8    H2    S    
C3    C5    A    
C22   H16   S    
C14   H18   S    
C32   C33   S    
C2    C3    A    
C11   C13   A    
C5    C6    A    
C1    O1    A    
C25   O7    A    
Cu1   O7    S    
C13   H19   S    
C20   C21   A    
C27   C28   D    
C14   C15   A    
