data_mof_unit_21800.cif
_audit_creation_date              2013-03-05T16:22:37-0500
_audit_creation_method            fapswitch 2.2
_symmetry_space_group_name_H-M    P1
_symmetry_Int_Tables_number       1
_space_group_crystal_system       triclinic
_cell_length_a                    9.893105
_cell_length_b                    10.510475
_cell_length_c                    17.048936
_cell_angle_alpha                 90.164068
_cell_angle_beta                  88.312592
_cell_angle_gamma                 90.599943
_cell_volume                      1771.89770008

loop_
_atom_site_label
_atom_site_type_symbol
_atom_site_description
_atom_site_fract_x
_atom_site_fract_y
_atom_site_fract_z
_atom_type_partial_charge
O1    O     O_R   0.383390 0.686040 0.500000 -0.581882
O2    O     O_R   0.616610 0.313960 0.500000 -0.574184
O3    O     O_R   0.616650 0.686050 0.499970 -0.574852
O4    O     O_R   0.383350 0.313950 0.500030 -0.577079
C1    C     C_R   0.500413 0.741787 0.501309 0.963958
C2    C     C_R   0.499537 0.258192 0.498504 0.958771
O5    O     O_R   0.369590 0.500020 0.615820 -0.587157
O6    O     O_R   0.630410 0.499980 0.384180 -0.587516
O7    O     O_R   0.602840 0.500020 0.615790 -0.566985
O8    O     O_R   0.397160 0.499980 0.384210 -0.563670
C3    C     C_R   0.484623 0.502118 0.651643 0.956399
C4    C     C_R   0.515405 0.497912 0.348363 0.959022
Zn1   Zn    Zn3+2 0.344250 0.499990 0.500020 1.131891
Zn2   Zn    Zn3+2 0.655750 0.500010 0.499980 1.131800
C5    C     C_R   0.484337 0.496596 0.736248 -0.223078
C6    C     C_R   0.515977 0.503262 0.263761 -0.204301
C7    C     C_R   0.581260 0.566571 0.777407 0.247527
C8    C     C_R   0.419263 0.433335 0.222453 0.246830
C9    C     C_R   0.601746 0.537718 0.856003 0.177598
C10   C     C_R   0.400184 0.461267 0.143592 0.189957
C11   C     C_R   0.517263 0.447026 0.894406 -0.133271
C12   C     C_R   0.485572 0.551285 0.105200 -0.124748
C13   C     C_R   0.422429 0.375115 0.852130 0.441224
C14   C     C_R   0.580265 0.623183 0.147667 0.366172
C15   C     C_R   0.405454 0.402892 0.773442 -0.217473
C16   C     C_R   0.595974 0.596079 0.226525 -0.231043
C17   C     C_2   0.514219 0.445132 0.979933 -0.044933
C18   C     C_2   0.489010 0.552971 0.019684 -0.059123
H1    H     H_    0.668193 0.650088 0.259929 0.250014
H2    H     H_    0.333381 0.348687 0.740069 0.253059
H3    H     H_    0.472300 0.641490 0.989020 0.217092
H4    H     H_    0.530390 0.356520 0.010572 0.230181
C19   C     C_3   0.541079 0.956767 0.431163 0.290780
C20   C     C_3   0.458436 0.043104 0.568354 0.282643
C21   C     C_3   0.626841 0.043093 0.482969 -0.136565
C22   C     C_3   0.372733 0.956750 0.516510 -0.128640
H5    H     H_    0.729697 0.079731 0.467144 0.267161
H6    H     H_    0.269857 0.919885 0.532081 0.260150
C23   C     C_3   0.499044 0.123199 0.497466 -0.200841
C24   C     C_3   0.500605 0.876722 0.502071 -0.189292
C25   C     C_3   0.414474 0.038141 0.443727 -0.136648
C26   C     C_3   0.585088 0.961775 0.555798 -0.164956
H7    H     H_    0.346201 0.068067 0.397115 0.277066
H8    H     H_    0.653302 0.931711 0.602408 0.271722
C27   C     C_3   0.953568 0.612699 0.508540 0.119481
C28   C     C_3   0.046467 0.387336 0.491430 0.112471
C29   C     C_3   0.051246 0.569360 0.443240 0.302272
C30   C     C_3   0.948875 0.430680 0.556780 0.292506
N1    N     N_3   0.136700 0.499970 0.500060 -0.238941
N2    N     N_3   0.863300 0.500030 0.499940 -0.234333
C31   C     C_3   0.045167 0.544278 0.564474 0.101584
C32   C     C_3   0.954895 0.455828 0.435490 0.122493
N3    N     N_R   0.657612 0.666911 0.739286 0.259806
O9    O     O_R   0.788420 0.673788 0.744619 -0.195139
O10   O     O_R   0.595446 0.752896 0.699676 -0.364434
N4    N     N_R   0.342024 0.333619 0.260602 0.259636
O11   O     O_R   0.211282 0.327198 0.254769 -0.200174
O12   O     O_R   0.403393 0.247434 0.300470 -0.366162
N5    N     N_R   0.899641 0.739199 0.523454 0.267888
O13   O     O_R   0.924248 0.831605 0.474442 -0.258154
O14   O     O_R   0.841222 0.763841 0.590890 -0.288475
N6    N     N_R   0.100384 0.260852 0.476472 0.266281
O15   O     O_R   0.075849 0.168433 0.525489 -0.258955
O16   O     O_R   0.158579 0.236220 0.408970 -0.288183
N7    N     N_R   0.099491 0.601635 0.635005 0.284014
O17   O     O_R   0.079635 0.548286 0.703112 -0.240365
O18   O     O_R   0.167419 0.708026 0.630004 -0.305242
N8    N     N_R   0.900709 0.398993 0.364781 0.285982
O19   O     O_R   0.920126 0.453254 0.296912 -0.264664
O20   O     O_R   0.832918 0.292490 0.369412 -0.305953
S1    S     S_3+6 0.322539 0.250925 0.894485 0.149529
O21   O     O_2   0.202600 0.307583 0.937121 -0.158237
O22   O     O_2   0.272781 0.163471 0.831403 -0.168507
O23   O     O_3   0.413349 0.166016 0.957234 -0.496139
H9    H     H_    0.351679 0.096812 0.975706 0.425845
S2    S     S_3+6 0.682648 0.746077 0.105639 0.151965
O24   O     O_2   0.606564 0.818034 0.045384 -0.186643
O25   O     O_2   0.725884 0.837953 0.168040 -0.179430
O26   O     O_3   0.821690 0.682421 0.063292 -0.409020
H10   H     H_    0.865837 0.636347 0.106035 0.381074
N9    N     N_R   0.293756 0.399411 0.102112 0.251444
O27   O     O_R   0.282920 0.275932 0.101365 -0.256009
O28   O     O_R   0.204100 0.467465 0.067527 -0.258363
N10   N     N_R   0.708950 0.598931 0.897183 0.256817
O29   O     O_R   0.798819 0.530254 0.931111 -0.237738
O30   O     O_R   0.720094 0.722373 0.898480 -0.213993
N11   N     N_R   0.587951 0.904726 0.356168 0.225627
O31   O     O_R   0.517629 0.920347 0.293742 -0.283996
O32   O     O_R   0.702477 0.845402 0.351092 -0.304034
N12   N     N_R   0.411227 0.095013 0.643335 0.220961
O33   O     O_R   0.296739 0.154460 0.648268 -0.295686
O34   O     O_R   0.480626 0.078240 0.705999 -0.310694
S3    S     S_3+6 0.113155 0.667593 0.364050 0.155111
O35   O     O_2   0.203548 0.771145 0.394249 -0.263715
O36   O     O_2   0.189076 0.589162 0.304214 -0.246412
O37   O     O_3   0.980542 0.733687 0.320804 -0.441041
H11   H     H_    0.020447 0.784714 0.277025 0.413541
S4    S     S_3+6 0.888267 0.332847 0.636518 0.171892
O38   O     O_2   0.007459 0.275637 0.675555 -0.151786
O39   O     O_2   0.811147 0.411382 0.695782 -0.241796
O40   O     O_3   0.789109 0.214972 0.603604 -0.526168
H12   H     H_    0.753763 0.171173 0.651426 0.397583

loop_
_geom_bond_atom_site_label_1
_geom_bond_atom_site_label_2
_geom_bond_distance
_ccdc_geom_bond_type
N11   O31   1.300264 A    
S3    O35   1.500956 D    
C20   C26   1.533644 S    
S2    O26   1.679007 S    
N9    O27   1.301182 A    
C29   N1    1.500078 S    
N3    O9    1.301193 A    
O5    C3    1.307262 A    
C28   N1    1.484796 S    
O40   H12   0.990416 S    
C28   N6    1.456631 S    
O1    C1    1.292816 A    
C9    C11   1.410870 A    
C14   C16   1.388615 A    
C5    C15   1.392641 A    
C27   C31   1.521902 S    
C28   C32   1.522164 S    
N4    O11   1.301218 A    
C31   N7    1.457864 S    
C27   C29   1.524375 S    
O4    Zn1   1.997234 S    
C21   C26   1.552850 S    
N6    O16   1.298191 A    
C19   C21   1.531870 S    
C3    C5    1.443680 S    
C30   C31   1.527386 S    
C4    C6    1.443476 S    
N8    O19   1.299787 A    
N1    C31   1.479942 S    
N11   O32   1.299510 A    
N2    C32   1.480399 S    
C8    C10   1.395650 A    
C32   N8    1.457630 S    
C8    N4    1.436393 S    
C24   C26   1.536712 S    
C11   C17   1.457757 S    
N5    O13   1.299424 A    
S3    O36   1.499142 D    
C12   C18   1.457498 S    
C10   N9    1.434674 S    
C25   H7    1.106414 S    
C22   C25   1.552611 S    
O2    C2    1.293489 A    
C26   H8    1.106444 S    
N9    O28   1.300968 A    
N3    O10   1.300244 A    
C6    C16   1.392427 A    
C28   C30   1.524456 S    
N5    O14   1.298154 A    
C19   C24   1.516522 S    
O23   H9    0.990546 S    
C20   C23   1.516862 S    
C13   S1    1.771499 S    
C22   C24   1.539866 S    
S2    O24   1.501923 D    
C23   C25   1.537355 S    
S1    O22   1.503301 D    
C14   S2    1.772842 S    
N7    O18   1.300278 A    
C21   C23   1.539861 S    
O7    Zn2   2.027691 S    
C20   N12   1.454692 S    
N6    O15   1.299462 A    
N12   O34   1.300246 A    
O6    C4    1.306970 A    
O37   H11   0.990492 S    
C29   S3    1.791630 S    
N10   O29   1.300849 A    
O7    C3    1.303948 A    
O3    Zn2   1.997233 S    
O8    C4    1.304142 A    
Zn1   N1    2.053292 S    
O4    C2    1.295226 A    
C10   C12   1.411185 A    
N7    O17   1.299716 A    
S3    O37   1.681201 S    
S4    O39   1.499118 D    
C11   C13   1.411680 A    
C12   C14   1.412399 A    
O1    Zn1   1.989459 S    
C9    N10   1.434795 S    
C7    N3    1.436487 S    
C15   H2    1.081786 S    
C5    C7    1.405228 A    
C27   N5    1.456701 S    
O6    Zn2   1.997430 S    
C21   H5    1.110289 S    
C17   H4    1.084752 S    
C18   H3    1.085048 S    
S2    O25   1.503171 D    
O3    C1    1.295592 A    
O8    Zn1   2.027691 S    
S1    O23   1.681330 S    
C29   C32   1.527316 S    
S4    O40   1.677831 S    
C30   S4    1.792225 S    
C19   C25   1.533547 S    
C22   H6    1.110350 S    
C19   N11   1.454433 S    
S1    O21   1.500819 D    
N12   O33   1.299715 A    
Zn2   N2    2.053292 S    
C27   N2    1.485231 S    
C30   N2    1.500798 S    
C7    C9    1.395772 A    
N4    O12   1.300196 A    
C20   C22   1.532107 S    
C13   C15   1.389135 A    
O2    Zn2   1.989462 S    
O26   H10   0.990693 S    
O5    Zn1   1.997429 S    
C16   H1    1.081968 S    
C6    C8    1.404850 A    
S4    O38   1.502776 D    
C1    C24   1.418243 S    
C17   C18   1.340799 D    
N8    O20   1.300282 A    
C2    C23   1.418861 S    
N10   O30   1.301147 A    
