data_mof_unit_46556.cif
_audit_creation_date              2013-03-05T16:03:51-0500
_audit_creation_method            fapswitch 2.2
_symmetry_space_group_name_H-M    P1
_symmetry_Int_Tables_number       1
_space_group_crystal_system       triclinic
_cell_length_a                    6.931766
_cell_length_b                    17.785817
_cell_length_c                    19.418494
_cell_angle_alpha                 109.057622
_cell_angle_beta                  90.071664
_cell_angle_gamma                 90.479312
_cell_volume                      2262.73469112

loop_
_atom_site_label
_atom_site_type_symbol
_atom_site_description
_atom_site_fract_x
_atom_site_fract_y
_atom_site_fract_z
_atom_type_partial_charge
O1    O     O_R   0.505700 0.440210 0.561730 -0.601228
O2    O     O_R   0.169350 0.406300 0.412660 -0.590260
O3    O     O_R   0.005650 0.559790 0.438270 -0.600862
C1    C     C_R   0.338501 0.383075 0.384988 0.941263
O4    O     O_R   0.175560 0.430650 0.559600 -0.600521
O5    O     O_R   0.011900 0.584320 0.586250 -0.583992
C2    C     C_R   0.344367 0.416240 0.581682 0.915894
O6    O     O_R   0.499450 0.415680 0.413750 -0.587626
O7    O     O_3   0.341370 0.550390 0.508570 -0.270047
V1    V     V_3+5 0.063940 0.490650 0.498410 1.156191
O8    O     O_R   0.682570 0.593700 0.587340 -0.590804
C3    C     C_R   0.851435 0.615150 0.615865 0.940394
O9    O     O_R   0.676370 0.569350 0.440400 -0.599126
C4    C     C_R   0.845464 0.584644 0.419007 0.917244
V2    V     V_3+5 0.564750 0.509350 0.501590 1.158547
O10   O     O_3   0.837190 0.449610 0.491430 -0.273788
C5    C     C_R   0.047274 0.706090 0.306084 -0.160519
H1    H     H_    0.187795 0.726060 0.294543 0.103716
C6    C     C_R   0.036111 0.660493 0.352666 -0.163088
H2    H     H_    0.168595 0.645999 0.374932 0.132080
C7    C     C_R   0.856658 0.634270 0.370423 -0.132389
C8    C     C_R   0.688579 0.655167 0.340486 -0.158442
H3    H     H_    0.547966 0.635677 0.352511 0.126968
C9    C     C_R   0.699853 0.700419 0.293545 -0.150156
H4    H     H_    0.567743 0.713702 0.270228 0.105634
C10   C     C_R   0.879435 0.726388 0.275518 0.151407
C11   C     C_R   0.751505 0.829980 0.224668 -0.142329
H5    H     H_    0.633925 0.841879 0.263282 0.116748
C12   C     C_R   0.763128 0.873524 0.176442 -0.154182
H6    H     H_    0.653806 0.917587 0.179443 0.142934
C13   C     C_R   0.915364 0.862012 0.126260 -0.299065
C14   C     C_R   0.054927 0.802976 0.124062 0.529404
C15   C     C_R   0.043471 0.760998 0.173848 -0.206612
H7    H     H_    0.150480 0.716021 0.170856 0.137599
C16   C     C_R   0.892026 0.773415 0.224354 0.013331
H8    H     H_    0.865209 0.637631 0.940911 0.123327
C17   C     C_R   0.953434 0.903039 0.736117 0.345332
C18   C     C_R   0.930924 0.913777 0.668377 -0.173082
C19   C     C_R   0.879162 0.850579 0.607405 -0.171831
C20   C     C_R   0.856832 0.775078 0.612684 -0.145853
C21   C     C_R   0.876161 0.761972 0.680430 0.110380
C22   C     C_R   0.912966 0.827890 0.744747 -0.046711
C23   C     C_R   0.862754 0.684051 0.684055 -0.279363
C24   C     C_R   0.867550 0.671893 0.752479 0.120607
C25   C     C_R   0.886837 0.737999 0.817649 0.121902
C26   C     C_R   0.910170 0.816136 0.814269 -0.310207
C27   C     C_R   0.850172 0.594496 0.757426 -0.175388
C28   C     C_R   0.849750 0.582579 0.824862 -0.110265
C29   C     C_R   0.866207 0.647120 0.888604 -0.084838
C30   C     C_R   0.884367 0.723986 0.885353 -0.151626
H9    H     H_    0.961349 0.971235 0.662544 0.145239
H10   H     H_    0.864023 0.859464 0.555103 0.141013
H11   H     H_    0.823785 0.727158 0.562942 0.104774
H12   H     H_    0.835482 0.542514 0.709345 0.097589
H13   H     H_    0.835754 0.522963 0.827642 0.115136
H14   H     H_    0.896880 0.772099 0.936470 0.070233
H15   H     H_    0.053093 0.447153 0.179287 0.121215
C31   C     C_R   0.516821 0.235572 0.383348 -0.145190
C32   C     C_R   0.613686 0.167569 0.384212 -0.110165
C33   C     C_R   0.647385 0.106323 0.319551 -0.121612
C34   C     C_R   0.584008 0.112504 0.253536 -0.171944
C35   C     C_R   0.486662 0.181068 0.250688 0.120128
C36   C     C_R   0.452860 0.244210 0.317065 0.118842
C37   C     C_R   0.419525 0.186593 0.183475 -0.311727
C38   C     C_R   0.320040 0.255989 0.182945 0.121640
C39   C     C_R   0.286735 0.319260 0.249307 0.116641
C40   C     C_R   0.353410 0.313609 0.316540 -0.320749
C41   C     C_R   0.255806 0.264536 0.116662 -0.145121
C42   C     C_R   0.159541 0.332642 0.115747 -0.116309
C43   C     C_R   0.126869 0.394124 0.180353 -0.112551
C44   C     C_R   0.190412 0.388051 0.246400 -0.174994
H16   H     H_    0.490709 0.280661 0.435357 0.104852
H17   H     H_    0.661663 0.162163 0.435451 0.116384
H18   H     H_    0.721835 0.053404 0.320538 0.118214
H19   H     H_    0.611944 0.062779 0.205012 0.116650
H20   H     H_    0.281292 0.219306 0.064680 0.087447
H21   H     H_    0.111404 0.337972 0.064494 0.112613
H22   H     H_    0.163582 0.438110 0.294853 0.120744
C45   C     C_R   0.534966 0.326996 0.721211 -0.160770
H23   H     H_    0.667098 0.330744 0.751940 0.100201
C46   C     C_R   0.524610 0.369677 0.672253 -0.146554
H24   H     H_    0.649580 0.404002 0.666377 0.122893
C47   C     C_R   0.354655 0.369308 0.632506 -0.125487
C48   C     C_R   0.195111 0.324968 0.642984 -0.165337
H25   H     H_    0.061996 0.323265 0.613220 0.129689
C49   C     C_R   0.206407 0.281137 0.691178 -0.146773
H26   H     H_    0.082193 0.245992 0.696083 0.105175
C50   C     C_R   0.376669 0.281432 0.731112 0.117978
C51   C     C_R   0.227614 0.220832 0.820180 -0.167188
H27   H     H_    0.090097 0.247046 0.815274 0.098474
C52   C     C_R   0.240360 0.174427 0.866090 -0.068428
H28   H     H_    0.112236 0.166095 0.894680 0.146707
C53   C     C_R   0.416162 0.139853 0.875439 -0.119629
C54   C     C_R   0.579948 0.155446 0.839648 -0.140993
H29   H     H_    0.718306 0.131881 0.846874 0.183276
C55   C     C_R   0.567057 0.200703 0.792900 -0.155750
H30   H     H_    0.695812 0.208262 0.764302 0.105095
C56   C     C_R   0.390384 0.233854 0.782006 0.111368
O11   O     O_R   0.273230 0.084330 0.086440 -0.598370
O12   O     O_R   0.596660 0.069390 0.940470 -0.589348
O13   O     O_R   0.760270 0.915710 0.913690 -0.576512
C57   C     C_R   0.427358 0.087054 0.921265 0.986898
O14   O     O_R   0.603330 0.093680 0.087390 -0.601088
O15   O     O_R   0.766990 0.940160 0.061660 -0.593686
C58   C     C_R   0.434235 0.117025 0.115070 0.918594
O16   O     O_R   0.266510 0.059870 0.938470 -0.548180
O17   O     O_3   0.431050 0.949630 0.991510 -0.265474
V3    V     V_3+5 0.708490 0.009340 0.001580 1.208281
O18   O     O_R   0.096270 0.930570 0.059390 -0.591995
C59   C     C_R   0.927053 0.913488 0.079209 0.908718
O19   O     O_R   0.089600 0.906290 0.912460 -0.572897
C60   C     C_R   0.920689 0.884675 0.883585 1.025818
V4    V     V_3+5 0.207670 0.990600 0.998190 1.228264
O20   O     O_3   0.935250 0.050360 0.008480 -0.265445
N1    N     N_R   0.048008 0.965268 0.791501 0.212144
O21   O     O_R   0.948696 0.025198 0.831411 -0.458872
O22   O     O_R   0.234635 0.971620 0.788781 -0.423863
O23   O     O_3   0.201550 0.782709 0.073554 -0.754616
H31   H     H_    0.157964 0.792174 0.028600 0.311989

loop_
_geom_bond_atom_site_label_1
_geom_bond_atom_site_label_2
_geom_bond_distance
_ccdc_geom_bond_type
C28   H13   1.082727 S    
C2    C47   1.488185 S    
C53   C54   1.404098 A    
C26   C60   1.493264 S    
C11   C12   1.398579 A    
C21   C22   1.427391 A    
C42   H21   1.082667 S    
C6    H2    1.082828 S    
C1    O6    1.291910 A    
C46   H24   1.083072 S    
C37   C58   1.494982 S    
C25   C26   1.420435 A    
C34   H19   1.080108 S    
O13   C60   1.297730 A    
C35   C36   1.427358 A    
C5    C10   1.407626 A    
C4    C7    1.489277 S    
C6    C7    1.407182 A    
C17   C18   1.398259 A    
C48   C49   1.402494 A    
C3    C23   1.483139 S    
C42   C43   1.389212 A    
O5    C3    1.294024 A    
C18   C19   1.384600 A    
C49   C50   1.410398 A    
V2    O10   2.152183 S    
C22   C26   1.432110 A    
V3    O20   1.713880 S    
C17   C22   1.425948 A    
O23   H31   0.988838 S    
O17   V4    1.703837 S    
C35   C37   1.418688 A    
C5    C6    1.400028 A    
O8    V2    2.008764 S    
C47   C48   1.406100 A    
C41   C42   1.392993 A    
N1    O22   1.300279 A    
C55   C56   1.408924 A    
O17   V3    2.166527 S    
C57   O16   1.298427 A    
C43   C44   1.392980 A    
O1    V2    1.993529 S    
H15   C43   1.082737 S    
C51   C52   1.401911 A    
O7    V1    2.166585 S    
C32   H17   1.082605 S    
C24   C27   1.415020 A    
O18   V4    1.991398 S    
O13   V3    1.992567 S    
C39   C40   1.418872 A    
C32   C33   1.389081 A    
O9    C4    1.300042 A    
C21   C23   1.412747 A    
C54   H29   1.077014 S    
C45   C50   1.408953 A    
C46   C47   1.406393 A    
C5    H1    1.082544 S    
O11   C58   1.291997 A    
C36   C40   1.421711 A    
O12   V3    1.997247 S    
O16   V4    1.988686 S    
C27   C28   1.393193 A    
C48   H25   1.083121 S    
O19   V4    2.008890 S    
C52   H28   1.082439 S    
C45   C46   1.399000 A    
C49   H26   1.082227 S    
C18   H9    1.083376 S    
C11   C16   1.404772 A    
C31   C32   1.393127 A    
C30   H14   1.081166 S    
C33   C34   1.392761 A    
O2    C1    1.303417 A    
C23   C24   1.414538 A    
O5    V1    1.992736 S    
C12   H6    1.082616 S    
C52   C53   1.407488 A    
C39   C44   1.415855 A    
C38   C41   1.416170 A    
C55   H30   1.082124 S    
O12   C57   1.302536 A    
C15   H7    1.083144 S    
O14   C58   1.303521 A    
C9    H4    1.082526 S    
C54   C55   1.399340 A    
O14   V3    1.986737 S    
O3    C4    1.297464 A    
C27   H12   1.082288 S    
C20   C21   1.415365 A    
C20   H11   1.081864 S    
O6    V2    2.004899 S    
O9    V2    1.991445 S    
C8    C9    1.401068 A    
O2    V1    1.986783 S    
O15   V3    1.996014 S    
C24   C25   1.423740 A    
O4    C2    1.301650 A    
V4    O20   2.152056 S    
C31   C36   1.416226 A    
C28   C29   1.390096 A    
O19   C60   1.297360 A    
O1    C2    1.297493 A    
C13   C14   1.424090 A    
C9    C10   1.408016 A    
C14   O23   1.379353 S    
C53   C57   1.492163 S    
O11   V4    2.010498 S    
C1    C40   1.494617 S    
O8    C3    1.294386 A    
C17   N1    1.421338 S    
C41   H20   1.081570 S    
C51   C56   1.409253 A    
C14   C15   1.403196 A    
O7    V2    1.703993 S    
O4    V1    1.997220 S    
C12   C13   1.407457 A    
O3    V1    1.996053 S    
V1    O10   1.713861 S    
O18   C59   1.299152 A    
C37   C38   1.421831 A    
O15   C59   1.298313 A    
C31   H16   1.081593 S    
C25   C30   1.415930 A    
C33   H18   1.082786 S    
C15   C16   1.406300 A    
C13   C59   1.491586 S    
C19   H10   1.082717 S    
C38   C39   1.427700 A    
C34   C35   1.415351 A    
C45   H23   1.082144 S    
C19   C20   1.387145 A    
C10   C16   1.495327 S    
C29   C30   1.393687 A    
C11   H5    1.082637 S    
C8    H3    1.082811 S    
C51   H27   1.082269 S    
C7    C8    1.407176 A    
C44   H22   1.081079 S    
C50   C56   1.499680 S    
H8    C29   1.082666 S    
N1    O21   1.298000 A    
