data_mof_unit_48800.cif
_audit_creation_date              2012-12-10T18:18:25-0500
_audit_creation_method            fapswitch 2.2
_symmetry_space_group_name_H-M    P1
_symmetry_Int_Tables_number       1
_space_group_crystal_system       triclinic
_cell_length_a                    14.007252
_cell_length_b                    15.028526
_cell_length_c                    15.495668
_cell_angle_alpha                 89.966006
_cell_angle_beta                  68.078763
_cell_angle_gamma                 90.047098
_cell_volume                      3026.11809872

loop_
_atom_site_label
_atom_site_type_symbol
_atom_type_description
_atom_site_fract_x
_atom_site_fract_y
_atom_site_fract_z
_atom_type_partial_charge
C1    C     C_R   0.500114 0.673529 0.499825 0.898319
C2    C     C_R   0.500461 0.769375 0.499571 -0.085178
C3    C     C_R   0.411639 0.185025 0.502990 -0.252558
C4    C     C_R   0.588422 0.814996 0.496862 -0.253250
C5    C     C_R   0.409963 0.092451 0.502873 0.106694
C6    C     C_R   0.590114 0.907572 0.496934 0.106801
C7    C     C_R   0.499396 0.046344 0.500057 0.013508
C8    C     C_R   0.500680 0.953680 0.499753 0.013641
C9    C     C_R   0.587771 0.093063 0.497544 0.081250
C10   C     C_R   0.412297 0.906961 0.502287 0.081204
C11   C     C_R   0.321651 0.044924 0.505429 0.195082
C12   C     C_R   0.499893 0.326475 0.500158 0.897414
C13   C     C_R   0.678438 0.955103 0.494344 0.194554
C14   C     C_R   0.324151 0.952198 0.505071 -0.219836
C15   C     C_R   0.675930 0.047829 0.494726 -0.219774
C16   C     C_R   0.436135 0.497947 0.676172 0.878482
C17   C     C_R   0.563875 0.498516 0.323771 0.875597
C18   C     C_R   0.175673 0.449157 0.563416 -0.071052
C19   C     C_R   0.824322 0.550862 0.436643 -0.071614
C20   C     C_R   0.228033 0.550757 0.436598 -0.066001
C21   C     C_R   0.771909 0.449252 0.563463 -0.062086
C22   C     C_R   0.128065 0.551862 0.434985 0.012216
C23   C     C_R   0.374850 0.435686 0.104226 -0.231433
C24   C     C_R   0.871851 0.448166 0.565156 0.015790
C25   C     C_R   0.050588 0.499962 0.500040 0.086095
C26   C     C_R   0.949349 0.500034 0.500082 0.086056
C27   C     C_R   0.074292 0.448038 0.565079 0.019699
C28   C     C_R   0.925655 0.551987 0.435051 0.017852
C29   C     C_R   0.103822 0.603445 0.370255 -0.211111
C30   C     C_R   0.896043 0.396695 0.630005 -0.212827
C31   C     C_R   0.003481 0.603534 0.370312 -0.209127
C32   C     C_R   0.996411 0.396591 0.629925 -0.208689
C33   C     C_R   0.397543 0.483531 0.776635 -0.061743
C34   C     C_R   0.620171 0.423245 0.898873 -0.227623
C35   C     C_R   0.602131 0.484156 0.223303 -0.063032
C36   C     C_R   0.260560 0.460060 0.926015 -0.202439
C37   C     C_R   0.736533 0.448128 0.075823 -0.201459
C38   C     C_R   0.292367 0.476993 0.830816 -0.200266
C39   C     C_R   0.706258 0.468979 0.170105 -0.198350
C40   C     C_R   0.469981 0.470341 0.817367 -0.263203
C41   C     C_R   0.529279 0.477439 0.182168 -0.258880
C42   C     C_R   0.440298 0.449768 0.911348 0.092600
C43   C     C_R   0.556713 0.451155 0.089972 0.093016
C44   C     C_R   0.333821 0.448319 0.966978 0.177097
C45   C     C_R   0.302288 0.437383 0.062839 -0.237790
C46   C     C_R   0.662521 0.440159 0.035122 0.177084
C47   C     C_R   0.514418 0.437565 0.952220 0.070423
C48   C     C_R   0.481557 0.441243 0.049964 0.067385
C49   C     C_3   0.224637 0.090980 0.508531 -0.932427
C50   C     C_3   0.775474 0.909052 0.491191 -0.931504
C51   C     C_R   0.692733 0.422850 0.940349 -0.236222
C52   C     C_R   0.587141 0.184987 0.497769 -0.239644
C53   C     C_R   0.412903 0.815035 0.502123 -0.240278
C54   C     C_R   0.499574 0.230641 0.500345 -0.082812
H1    H     H_    0.221227 0.433977 0.106404 0.148752
H2    H     H_    0.013089 0.356311 0.680576 0.138402
H3    H     H_    0.450677 0.495092 0.222786 0.156998
H4    H     H_    0.550207 0.479745 0.775254 0.160025
H5    H     H_    0.763713 0.473020 0.201191 0.154802
H6    H     H_    0.235193 0.485707 0.799968 0.153791
H7    H     H_    0.178960 0.457482 0.967790 0.133599
H8    H     H_    0.817508 0.438351 0.034779 0.133569
H9    H     H_    0.345559 0.427919 0.178884 0.152574
H10   H     H_    0.648483 0.409948 0.825107 0.139064
H11   H     H_    0.655154 0.220921 0.495747 0.160645
H12   H     H_    0.773075 0.412263 0.897483 0.145120
H13   H     H_    0.344877 0.779103 0.504179 0.161104
H14   H     H_    0.344782 0.222329 0.505147 0.177990
H15   H     H_    0.655278 0.777693 0.494705 0.178376
H16   H     H_    0.257038 0.914907 0.507000 0.148084
H17   H     H_    0.743042 0.085122 0.492793 0.147770
H18   H     H_    0.193526 0.132840 0.571959 0.239870
H19   H     H_    0.241517 0.133229 0.445743 0.244660
H20   H     H_    0.163828 0.042712 0.510285 0.242668
H21   H     H_    0.806545 0.867184 0.427767 0.239789
H22   H     H_    0.836299 0.957323 0.489391 0.242520
H23   H     H_    0.195609 0.409667 0.612704 0.127496
H24   H     H_    0.758639 0.866814 0.553980 0.245226
H25   H     H_    0.804406 0.590382 0.387366 0.128271
H26   H     H_    0.288551 0.590455 0.387374 0.132940
H27   H     H_    0.711369 0.409565 0.612688 0.128395
H28   H     H_    0.162427 0.643724 0.319618 0.143264
H29   H     H_    0.837386 0.356539 0.680760 0.137078
H30   H     H_    0.986769 0.643902 0.319739 0.141031
N1    N     N_R   0.249980 0.499930 0.499960 -0.099374
N2    N     N_R   0.750020 0.500070 0.500040 -0.099085
O1    O     O_R   0.419720 0.632140 0.499980 -0.622560
O2    O     O_R   0.580280 0.367860 0.500020 -0.624108
O3    O     O_R   0.580270 0.632160 0.499970 -0.622678
O4    O     O_R   0.419730 0.367840 0.500030 -0.624220
O5    O     O_R   0.373870 0.499980 0.632250 -0.618261
O6    O     O_R   0.626130 0.500020 0.367750 -0.618714
O7    O     O_R   0.534420 0.500000 0.632240 -0.621875
O8    O     O_R   0.465580 0.500000 0.367760 -0.622642
Zn1   Zn    Zn3+2 0.392800 0.499980 0.500010 0.941685
Zn2   Zn    Zn3+2 0.607200 0.500020 0.499990 0.942311

loop_
_geom_bond_atom_site_label_1
_geom_bond_atom_site_label_2
_ccdc_geom_bond_type
C1    O1    A    
O2    Zn2   S    
C23   C45   A    
C22   C29   A    
C14   H16   S    
C2    C4    A    
C3    H14   S    
C19   N2    A    
C37   H8    S    
C7    C8    A    
C17   O6    A    
C34   C51   A    
C12   O4    A    
C24   C26   A    
C5    C11   A    
C3    C54   A    
O6    Zn2   S    
C1    C2    S    
C30   H29   S    
C10   C53   A    
C22   C25   A    
O1    Zn1   S    
C43   C48   A    
C40   C42   A    
C41   C43   A    
C9    C52   A    
C42   C44   A    
C53   H13   S    
C50   H24   S    
C4    H15   S    
C52   C54   A    
C37   C39   A    
C18   N1    A    
C40   H4    S    
C20   H26   S    
C33   C40   A    
O4    Zn1   S    
C4    C6    A    
C10   C14   A    
C5    C7    A    
C12   O2    A    
C6    C8    A    
C25   C26   A    
C46   C51   A    
C49   H18   S    
C31   H30   S    
C51   H12   S    
C35   C39   A    
C11   C49   S    
C50   H22   S    
C16   C33   S    
C47   C48   A    
C39   H5    S    
C20   N1    A    
C34   H10   S    
C16   O7    A    
C19   H25   S    
C19   C28   A    
N2    Zn2   S    
C38   H6    S    
C21   H27   S    
O7    Zn2   S    
C13   C15   A    
C49   H19   S    
C36   C44   A    
C36   H7    S    
C44   C45   A    
C7    C9    A    
C21   N2    A    
C1    O3    A    
C23   C48   A    
C27   C32   A    
C28   C31   A    
C18   C27   A    
C20   C22   A    
C3    C5    A    
C2    C53   A    
C17   O8    A    
C25   C27   A    
C15   H17   S    
C26   C28   A    
C33   C38   A    
O3    Zn2   S    
C36   C38   A    
C9    C15   A    
C41   H3    S    
C29   H28   S    
C29   C31   A    
C50   H21   S    
C6    C13   A    
C30   C32   A    
N1    Zn1   S    
C18   H23   S    
C23   H9    S    
C11   C14   A    
C42   C47   A    
O8    Zn1   S    
C35   C41   A    
C43   C46   A    
C24   C30   A    
O5    Zn1   S    
C13   C50   S    
C45   H1    S    
C16   O5    A    
C8    C10   A    
C21   C24   A    
C49   H20   S    
C34   C47   A    
C17   C35   S    
C37   C46   A    
C32   H2    S    
C12   C54   S    
C52   H11   S    
