data_mof_unit_56214.cif
_audit_creation_date              2012-12-11T14:36:09-0500
_audit_creation_method            fapswitch 2.2
_symmetry_space_group_name_H-M    P1
_symmetry_Int_Tables_number       1
_space_group_crystal_system       triclinic
_cell_length_a                    14.650635
_cell_length_b                    15.941098
_cell_length_c                    6.970136
_cell_angle_alpha                 90.031215
_cell_angle_beta                  80.664977
_cell_angle_gamma                 90.005741
_cell_volume                      1606.29746277

loop_
_atom_site_label
_atom_site_type_symbol
_atom_type_description
_atom_site_fract_x
_atom_site_fract_y
_atom_site_fract_z
_atom_type_partial_charge
O1    O     O_R   0.337460 0.413110 0.524760 -0.551245
O2    O     O_R   0.662540 0.913110 0.475240 -0.552202
O3    O     O_R   0.348690 0.587910 0.191230 -0.527891
O4    O     O_R   0.651310 0.087910 0.808770 -0.529353
O5    O     O_R   0.166530 0.586890 0.082470 -0.546375
O6    O     O_R   0.833470 0.086890 0.917530 -0.545609
C1    C     C_R   0.371347 0.616034 0.352988 0.640124
C2    C     C_R   0.628651 0.116045 0.647051 0.637570
O7    O     O_R   0.348700 0.413830 0.191250 -0.534722
O8    O     O_R   0.651300 0.913830 0.808750 -0.535804
O9    O     O_R   0.166530 0.411570 0.082490 -0.538503
O10   O     O_R   0.833470 0.911570 0.917510 -0.535096
C3    C     C_R   0.373614 0.387688 0.352530 0.726848
C4    C     C_R   0.626316 0.887775 0.647454 0.724854
O11   O     O_R   0.337460 0.588430 0.524740 -0.561887
O12   O     O_R   0.662540 0.088430 0.475260 -0.563124
O13   O     O_3   0.192230 0.499460 0.407330 -0.368268
O14   O     O_3   0.807770 0.999460 0.592670 -0.361437
V1    V     V_3+5 0.263080 0.500100 0.108540 1.443675
V2    V     V_3+5 0.736920 0.000100 0.891460 1.456366
O15   O     O_R   0.155290 0.412090 0.756570 -0.515293
O16   O     O_R   0.844710 0.912090 0.243430 -0.513782
C5    C     C_R   0.137184 0.379439 0.931380 0.712049
C6    C     C_R   0.862848 0.879468 0.068415 0.719257
O17   O     O_R   0.155290 0.586170 0.756550 -0.540968
O18   O     O_R   0.844710 0.086170 0.243450 -0.539571
C7    C     C_R   0.132604 0.614764 0.933665 0.723534
C8    C     C_R   0.867285 0.114895 0.066502 0.727482
V3    V     V_3+5 0.240910 0.499900 0.616030 1.440384
V4    V     V_3+5 0.759090 0.999900 0.383970 1.459268
O19   O     O_3   0.311760 0.500540 0.867100 -0.377345
O20   O     O_3   0.688240 0.000540 0.132900 -0.380835
C9    C     C_3   0.106964 0.768683 0.005518 -0.430832
C10   C     C_3   0.892951 0.269028 0.997694 -0.410764
H1    H     H_    0.144073 0.762934 0.131914 0.148513
H2    H     H_    0.855034 0.263329 0.872170 0.172625
H3    H     H_    0.161132 0.783728 0.878794 0.148755
H4    H     H_    0.839799 0.284262 0.126090 0.132370
C11   C     C_3   0.033379 0.840105 0.033577 -0.258249
C12   C     C_3   0.966763 0.340247 0.966317 -0.173797
H5    H     H_    0.048997 0.880625 0.901858 0.122202
H6    H     H_    0.951543 0.383083 0.094082 0.076939
H7    H     H_    0.021961 0.665506 0.286798 0.162693
H8    H     H_    0.975732 0.168197 0.712493 0.189482
C13   C     C_3   0.987908 0.665697 0.155327 -0.361756
C14   C     C_3   0.010872 0.166574 0.842590 -0.330964
C15   C     C_3   0.011462 0.696203 0.790496 -0.381270
C16   C     C_3   0.989434 0.195847 0.208690 -0.379546
C17   C     C_3   0.060655 0.684363 0.970411 0.014689
C18   C     C_3   0.939263 0.184535 0.029927 -0.020324
H9    H     H_    0.992428 0.634120 0.739647 0.183096
H10   H     H_    0.008571 0.133614 0.258116 0.189308
H11   H     H_    0.063221 0.719688 0.667752 0.124834
H12   H     H_    0.938572 0.219391 0.333357 0.155030
C19   C     C_3   0.932133 0.805814 0.033651 -0.099337
C20   C     C_3   0.067910 0.305757 0.965635 -0.116564
C21   C     C_3   0.907832 0.731119 0.180335 0.320742
C22   C     C_3   0.091314 0.231513 0.817176 0.360674
C23   C     C_3   0.930790 0.762529 0.830983 0.289272
C24   C     C_3   0.070167 0.261953 0.167045 0.280586
H13   H     H_    0.946587 0.811599 0.717444 0.164072
H14   H     H_    0.055115 0.310769 0.281301 0.163560
H15   H     H_    0.959312 0.601483 0.144177 0.115212
H16   H     H_    0.039152 0.102044 0.849988 0.114982
H17   H     H_    0.848989 0.695269 0.139241 0.096688
H18   H     H_    0.150451 0.195247 0.855556 0.080671
H19   H     H_    0.565621 0.809273 0.354156 0.193352
H20   H     H_    0.433921 0.308952 0.645855 0.193937
H21   H     H_    0.428616 0.699188 0.645692 0.137644
H22   H     H_    0.571176 0.198953 0.354354 0.137031
C25   C     C_2   0.442692 0.682747 0.340300 0.297081
C26   C     C_2   0.557283 0.182759 0.659768 0.297051
C27   C     C_2   0.462940 0.719640 0.503374 -0.221906
C28   C     C_2   0.536897 0.219495 0.496683 -0.222651
H23   H     H_    0.522277 0.799601 0.800207 0.185935
H24   H     H_    0.477845 0.299617 0.199784 0.185599
C29   C     C_2   0.555410 0.821308 0.658264 -0.375671
C30   C     C_2   0.444506 0.321196 0.341726 -0.375820
C31   C     C_2   0.532211 0.787387 0.495823 -0.121149
C32   C     C_2   0.467528 0.287176 0.504189 -0.121380
O21   O     O_3   0.838482 0.734649 0.821059 -0.565443
C33   C     C_3   0.825793 0.647899 0.789793 -0.257655
H25   H     H_    0.849398 0.607927 0.902092 0.158924
H26   H     H_    0.859463 0.628510 0.642248 0.181603
H27   H     H_    0.750742 0.635896 0.798500 0.133169
O22   O     O_3   0.162657 0.233793 0.174169 -0.566736
C34   C     C_3   0.175367 0.146947 0.203647 -0.245627
H28   H     H_    0.151383 0.107479 0.090897 0.161503
H29   H     H_    0.142117 0.127101 0.351097 0.184323
H30   H     H_    0.250436 0.134833 0.193843 0.131677
O23   O     O_3   0.484723 0.710300 0.158783 -0.552844
C35   C     C_3   0.558983 0.656013 0.091041 -0.273364
H31   H     H_    0.534727 0.590739 0.073248 0.136975
H32   H     H_    0.611956 0.656974 0.188972 0.129448
H33   H     H_    0.592898 0.678064 0.946117 0.163514
O24   O     O_3   0.515387 0.210487 0.841287 -0.553497
C36   C     C_3   0.441309 0.156124 0.909644 -0.271677
H34   H     H_    0.465680 0.090877 0.927118 0.136964
H35   H     H_    0.388077 0.157007 0.812315 0.131053
H36   H     H_    0.407697 0.178178 0.054827 0.163750
C37   C     C_2   0.044029 0.896688 0.204491 0.848032
O25   O     O_2   0.050342 0.972269 0.178413 -0.589508
O26   O     O_R   0.047280 0.865745 0.390647 -0.648515
H37   H     H_    0.045465 0.802610 0.398183 0.272933
C38   C     C_2   0.956216 0.391856 0.788947 0.816585
O27   O     O_2   0.947637 0.467958 0.803649 -0.613633
O28   O     O_R   0.954436 0.352957 0.609995 -0.652525
H38   H     H_    0.945174 0.394457 0.504652 0.266620
O29   O     O_3   0.884384 0.758407 0.375255 -0.555604
C39   C     C_3   0.786939 0.755857 0.432638 -0.120237
H39   H     H_    0.762293 0.690328 0.457172 0.090680
H40   H     H_    0.748679 0.783716 0.322981 0.095266
H41   H     H_    0.768796 0.792136 0.567642 0.203262
O30   O     O_3   0.113329 0.259443 0.622600 -0.537105
C40   C     C_3   0.210639 0.257663 0.562703 -0.110883
H42   H     H_    0.235676 0.192481 0.534488 0.091055
H43   H     H_    0.249585 0.284401 0.672561 0.091502
H44   H     H_    0.227719 0.295408 0.429644 0.201269

loop_
_geom_bond_atom_site_label_1
_geom_bond_atom_site_label_2
_ccdc_geom_bond_type
H20   C32   S    
C34   H28   S    
C37   O25   D    
O11   V3    S    
C19   C23   S    
O13   V3    S    
O4    C2    A    
V1    O19   S    
C36   H34   S    
C5    C20   S    
C15   C17   S    
C6    C19   S    
C16   H12   S    
C38   O28   S    
C13   C21   S    
C9    C11   S    
C10   C12   S    
H21   C27   S    
O21   C33   S    
H24   C30   S    
O3    C1    A    
C1    C25   S    
C30   C32   D    
C9    C17   S    
C40   H42   S    
C24   H14   S    
C4    C29   S    
O7    C3    A    
C39   H39   S    
O13   V1    S    
O5    C7    A    
C8    C18   S    
O7    V1    S    
C11   C19   S    
O8    V2    S    
C12   C20   S    
H22   C28   S    
O28   H38   S    
C16   C24   S    
O14   V4    S    
C10   H2    S    
C15   H11   S    
C12   H6    S    
C2    O12   A    
C28   C32   S    
C14   C22   S    
O1    V3    S    
C36   H35   S    
H8    C14   S    
C11   C37   S    
C29   C31   D    
O15   C5    A    
O17   V3    S    
C21   O29   S    
C2    C26   S    
C23   H13   S    
H19   C31   S    
C11   H5    S    
O8    C4    A    
O23   C35   S    
C25   C27   D    
C24   O22   S    
O22   C34   S    
C15   H9    S    
C1    O11   A    
C40   H43   S    
O15   V3    S    
C13   H15   S    
C35   H33   S    
C9    H3    S    
C20   C24   S    
C14   H16   S    
O4    V2    S    
H23   C29   S    
C13   C17   S    
C40   H44   S    
O9    V1    S    
O24   C36   S    
O10   V2    S    
C35   H32   S    
C27   C31   S    
O3    V1    S    
C16   C18   S    
H7    C13   S    
C39   H41   S    
C26   C28   D    
O18   V4    S    
C33   H26   S    
C19   C21   S    
O16   C6    A    
O1    C3    A    
C36   H36   S    
C22   H18   S    
V2    O20   S    
O10   C6    A    
C3    C30   S    
O16   V4    S    
C10   H4    S    
C23   O21   S    
C21   H17   S    
C10   C18   S    
O30   C40   S    
O5    V1    S    
O17   C7    A    
C33   H27   S    
O6    V2    S    
C38   O27   D    
C14   C18   S    
O18   C8    A    
O2    V4    S    
C34   H29   S    
V3    O19   S    
O29   C39   S    
V4    O20   S    
O9    C5    A    
C35   H31   S    
C9    H1    S    
C20   C22   S    
O14   V2    S    
O2    C4    A    
C39   H40   S    
C15   C23   S    
C26   O24   S    
O6    C8    A    
C16   H10   S    
C25   O23   S    
C37   O26   S    
C33   H25   S    
C34   H30   S    
O26   H37   S    
C22   O30   S    
O12   V4    S    
C7    C17   S    
C12   C38   S    
