data_mof_unit_8156.cif
_audit_creation_date              2013-03-05T16:23:19-0500
_audit_creation_method            fapswitch 2.2
_symmetry_space_group_name_H-M    P1
_symmetry_Int_Tables_number       1
_space_group_crystal_system       triclinic
_cell_length_a                    26.036365
_cell_length_b                    10.61739
_cell_length_c                    9.854539
_cell_angle_alpha                 93.705366
_cell_angle_beta                  90.808447
_cell_angle_gamma                 89.250253
_cell_volume                      2718.00383193

loop_
_atom_site_label
_atom_site_type_symbol
_atom_site_description
_atom_site_fract_x
_atom_site_fract_y
_atom_site_fract_z
_atom_type_partial_charge
O1    O     O_R   0.500000 0.313960 0.616610 -0.614906
O2    O     O_R   0.500000 0.686040 0.383390 -0.615151
O3    O     O_R   0.500020 0.313950 0.383350 -0.582962
O4    O     O_R   0.499980 0.686050 0.616650 -0.583745
C1    C     C_R   0.502880 0.257918 0.496889 0.978525
C2    C     C_R   0.497967 0.742248 0.503074 0.958403
O5    O     O_R   0.428750 0.500030 0.616610 -0.572512
O6    O     O_R   0.571250 0.499970 0.383390 -0.591885
O7    O     O_R   0.428770 0.500020 0.383360 -0.597785
O8    O     O_R   0.571230 0.499980 0.616640 -0.592321
C3    C     C_R   0.404695 0.503046 0.499190 0.932294
C4    C     C_R   0.595356 0.502468 0.501044 0.969917
Zn1   Zn    Zn3+2 0.499990 0.500010 0.655740 1.054325
Zn2   Zn    Zn3+2 0.500010 0.499990 0.344260 1.042982
C5    C     C_R   0.187207 0.702386 0.275369 0.674613
C6    C     C_R   0.807977 0.762449 0.425146 0.644715
O9    O     O_2   0.221406 0.676576 0.175671 -0.424948
O10   O     O_2   0.772342 0.841055 0.482694 -0.430874
N1    N     N_R   0.203157 0.700566 0.408631 -0.328947
N2    N     N_R   0.794449 0.642749 0.377482 -0.326846
C7    C     C_R   0.171369 0.744160 0.511496 0.660621
C8    C     C_R   0.819207 0.594707 0.262745 0.647267
C9    C     C_R   0.287905 0.711295 0.528484 0.268205
C10   C     C_R   0.732127 0.461515 0.382164 0.233600
C11   C     C_R   0.334295 0.652476 0.565484 0.194004
C12   C     C_R   0.679745 0.436563 0.401275 0.177506
C13   C     C_R   0.315443 0.472675 0.406378 0.056211
C14   C     C_R   0.678837 0.595436 0.591652 0.059649
C15   C     C_R   0.265533 0.521526 0.387057 0.282687
C16   C     C_R   0.730731 0.621300 0.565685 0.294474
C17   C     C_R   0.252674 0.644835 0.440834 -0.018760
C18   C     C_R   0.752072 0.576725 0.439457 -0.031498
C19   C     C_R   0.102754 0.771789 0.349874 -0.113844
C20   C     C_R   0.890775 0.731518 0.320080 -0.113285
C21   C     C_R   0.134922 0.725441 0.243618 -0.157872
C22   C     C_R   0.858519 0.804603 0.408800 -0.149528
C23   C     C_R   0.113264 0.700083 0.111872 0.294907
C24   C     C_R   0.878179 0.914770 0.479092 0.290119
C25   C     C_R   0.123232 0.797776 0.481572 -0.126441
C26   C     C_R   0.870426 0.628546 0.239864 -0.119720
C27   C     C_R   0.349790 0.537825 0.496691 -0.298416
C28   C     C_R   0.651922 0.510587 0.500293 -0.303939
C29   C     C_R   0.974254 0.699533 0.210471 0.047480
C30   C     C_R   0.018224 0.845788 0.428318 0.043668
C31   C     C_R   0.964509 0.852712 0.405214 -0.030236
C32   C     C_R   0.027205 0.729305 0.206800 -0.028731
C33   C     C_R   0.942978 0.762670 0.310193 0.080489
C34   C     C_R   0.049541 0.785387 0.326927 0.079417
C35   C     C_R   0.953296 0.598054 0.130380 -0.210332
C36   C     C_R   0.040733 0.884779 0.554459 -0.213776
C37   C     C_R   0.902250 0.561735 0.143613 0.333633
C38   C     C_R   0.093062 0.864579 0.581324 0.330011
O11   O     O_2   0.793639 0.522988 0.167207 -0.441636
O12   O     O_2   0.184827 0.728246 0.641969 -0.420947
C39   C     C_R   0.059380 0.699294 0.093870 0.081842
C40   C     C_R   0.931177 0.938831 0.477242 0.061267
H1    H     H_    0.977764 0.537057 0.066788 0.202712
H2    H     H_    0.017270 0.924232 0.636367 0.209410
C41   C     C_3   0.537862 0.042324 0.582201 0.276023
C42   C     C_3   0.464127 0.957825 0.417115 0.289724
C43   C     C_3   0.545756 0.946389 0.461544 0.106906
C44   C     C_3   0.456273 0.053616 0.537955 0.116888
C45   C     C_3   0.497887 0.877428 0.506240 -0.233187
C46   C     C_3   0.504087 0.122751 0.493330 -0.252669
C47   C     C_3   0.490646 0.972695 0.628753 -0.223062
C48   C     C_3   0.511493 0.027538 0.370500 -0.239771
H3    H     H_    0.478486 0.959411 0.733054 0.245263
H4    H     H_    0.523699 0.042800 0.266406 0.239926
C49   C     C_3   0.498356 0.386755 0.039085 0.173543
C50   C     C_3   0.501532 0.613087 0.961304 0.193529
C51   C     C_3   0.538967 0.438446 0.948673 0.210380
C52   C     C_3   0.460935 0.561134 0.051418 0.223880
N3    N     N_3   0.499960 0.500030 0.863290 -0.149603
N4    N     N_3   0.500040 0.499970 0.136710 -0.150791
C53   C     C_3   0.459233 0.448541 0.945718 -0.208470
C54   C     C_3   0.540806 0.551433 0.054341 -0.227292
H5    H     H_    0.424584 0.404882 0.896449 0.205515
H6    H     H_    0.575449 0.595285 0.103413 0.198985
I1    I     I_    0.338337 0.298539 0.301741 -0.012103
I2    I     I_    0.641647 0.692054 0.761371 -0.050596
N5    N     N_R   0.579781 0.084799 0.671946 0.238582
O13   O     O_R   0.620120 0.134381 0.621648 -0.269942
O14   O     O_R   0.580861 0.053721 0.797439 -0.312938
N6    N     N_R   0.422502 0.914336 0.326690 0.240130
O15   O     O_R   0.381907 0.865160 0.376069 -0.326673
O16   O     O_R   0.422666 0.940328 0.199585 -0.309868
I3    I     I_    0.608148 0.351135 0.876164 0.051029
I4    I     I_    0.390341 0.642441 0.123428 0.033456
I5    I     I_    0.482715 0.197235 0.074986 -0.121874
I6    I     I_    0.511183 0.805882 0.930283 -0.102964
N7    N     N_R   0.227357 0.445727 0.315223 0.239104
O17   O     O_R   0.234504 0.403856 0.189746 -0.247949
O18   O     O_R   0.183129 0.428969 0.370807 -0.333164
N8    N     N_R   0.763863 0.675263 0.671979 0.248593
O19   O     O_R   0.751216 0.778554 0.742485 -0.230566
O20   O     O_R   0.809392 0.626575 0.690041 -0.309196
N9    N     N_R   0.145285 0.671246 0.996753 0.263015
O21   O     O_R   0.172183 0.759650 0.947542 -0.200081
O22   O     O_R   0.145766 0.558288 0.937139 -0.259608
N10   N     N_R   0.845281 0.000433 0.556450 0.266505
O23   O     O_R   0.815681 0.078779 0.494639 -0.214595
O24   O     O_R   0.848689 0.008956 0.688542 -0.250042
N11   N     N_R   0.654970 0.336836 0.320736 0.259949
O25   O     O_R   0.627000 0.255070 0.377755 -0.326502
O26   O     O_R   0.655848 0.335900 0.188826 -0.291237
N12   N     N_R   0.367012 0.712379 0.667964 0.247638
O27   O     O_R   0.386300 0.822469 0.651663 -0.335994
O28   O     O_R   0.372983 0.662517 0.784278 -0.316221
N13   N     N_R   0.766904 0.360323 0.338351 0.280960
O29   O     O_R   0.812232 0.353245 0.395045 -0.281260
O30   O     O_R   0.752561 0.268973 0.252439 -0.192925
N14   N     N_R   0.277176 0.839452 0.577023 0.271920
O31   O     O_R   0.281347 0.873585 0.705899 -0.194724
O32   O     O_R   0.262336 0.922201 0.492396 -0.289768
N15   N     N_R   0.885479 0.449725 0.067355 0.255583
O33   O     O_R   0.894921 0.435006 0.937954 -0.272501
O34   O     O_R   0.871370 0.352590 0.131065 -0.240836
N16   N     N_R   0.115611 0.921138 0.704716 0.262870
O35   O     O_R   0.160891 0.971354 0.701896 -0.224678
O36   O     O_R   0.087439 0.946731 0.811219 -0.320181
I7    I     I_    0.029394 0.683641 0.889303 -0.106566
I8    I     I_    0.956201 0.123092 0.549971 -0.025074
I9    I     I_    0.617242 0.862918 0.395947 -0.092615
I10   I     I_    0.386251 0.136839 0.614483 -0.034927

loop_
_geom_bond_atom_site_label_1
_geom_bond_atom_site_label_2
_geom_bond_distance
_ccdc_geom_bond_type
C48   H4    1.100703 S    
C45   C47   1.536183 S    
C13   C15   1.407859 A    
N1    C17   1.451102 S    
C23   N9    1.432087 S    
N5    O13   1.299529 A    
O2    C2    1.288395 A    
O5    C3    1.309974 A    
C9    N14   1.438062 S    
C41   C46   1.524727 S    
C19   C25   1.408118 A    
N4    C54   1.476751 S    
C42   C45   1.525824 S    
O1    C1    1.289255 A    
Zn2   N4    2.045307 S    
C21   C23   1.419210 A    
N6    O16   1.299971 A    
C13   I1    2.139860 S    
N13   O30   1.300513 A    
C51   C54   1.537654 S    
C10   C12   1.410274 A    
C47   H3    1.098030 S    
N12   O27   1.298523 A    
N15   O33   1.301172 A    
C35   H1    1.079812 S    
C42   C44   1.529422 S    
C14   C28   1.416724 A    
O4    Zn1   2.036754 S    
C49   C51   1.522499 S    
N16   O35   1.301618 A    
C4    C28   1.476559 S    
C39   I7    2.148658 S    
N9    O22   1.300918 A    
C43   C48   1.549314 S    
C31   C40   1.416246 A    
N15   O34   1.301098 A    
C32   C39   1.419612 A    
C36   C38   1.400690 A    
C49   C53   1.532511 S    
C44   C46   1.537215 S    
O6    C4    1.309521 A    
C25   C38   1.415458 A    
C52   I4    2.131464 S    
O2    Zn2   1.988038 S    
C42   C48   1.537396 S    
N3    C53   1.476461 S    
C50   I6    2.107898 S    
C52   C53   1.534658 S    
C49   I5    2.111285 S    
C5    C21   1.414272 A    
N14   O31   1.301431 A    
N5    O14   1.300214 A    
C11   N12   1.434192 S    
N9    O21   1.300870 A    
C8    O11   1.346223 S    
C31   C33   1.410158 A    
C32   C34   1.411610 A    
C41   C43   1.529171 S    
C10   N13   1.444380 S    
C54   H6    1.110749 S    
C36   H2    1.078744 S    
N6    O15   1.299359 A    
O4    C2    1.302045 A    
C11   C27   1.411498 A    
N7    O17   1.301729 A    
C51   N3    1.482087 S    
C29   C35   1.405309 A    
C35   C37   1.398887 A    
C37   N15   1.434763 S    
C1    C46   1.433222 S    
C46   C48   1.538703 S    
C2    C45   1.433551 S    
C5    N1    1.372995 A    
O7    Zn2   1.899734 S    
C10   C18   1.415557 A    
C12   N11   1.435961 S    
N7    O18   1.301328 A    
C53   H5    1.110829 S    
C13   C27   1.408689 A    
C7    C25   1.405116 A    
C6    N2    1.374687 A    
C8    C26   1.410600 A    
C50   N3    1.491917 S    
N10   O24   1.300854 A    
C49   N4    1.491005 S    
N11   O26   1.299828 A    
C6    O10   1.346243 S    
N8    O20   1.301550 A    
O7    C3    1.308359 A    
O3    Zn2   2.036756 S    
O8    C4    1.310516 A    
C51   I3    2.126329 S    
N14   O32   1.301300 A    
C52   N4    1.481195 S    
Zn1   N3    2.045306 S    
C50   C54   1.532412 S    
C20   C26   1.411552 A    
O1    Zn1   1.988040 S    
C15   N7    1.436748 S    
C30   C31   1.415490 A    
C12   C28   1.414390 A    
N2    C18   1.475255 S    
C30   C36   1.406886 A    
C5    O9    1.347854 S    
O6    Zn2   1.889158 S    
C44   C47   1.548018 S    
N1    C7    1.371068 A    
C43   C45   1.537702 S    
C44   I10   2.141001 S    
C41   N5    1.452869 S    
N2    C8    1.375329 A    
O3    C1    1.301490 A    
O8    Zn1   1.899737 S    
C26   C37   1.417480 A    
C43   I9    2.141079 S    
C22   C24   1.418071 A    
C15   C17   1.418048 A    
N13   O29   1.301971 A    
C6    C22   1.410218 A    
C16   C18   1.420072 A    
C42   N6    1.454112 S    
C24   N10   1.431938 S    
C7    O12   1.348440 S    
N12   O28   1.299808 A    
C14   C16   1.412425 A    
N10   O23   1.300907 A    
C19   C21   1.409749 A    
C3    C27   1.472025 S    
C20   C22   1.409889 A    
C9    C11   1.406788 A    
N8    O19   1.300919 A    
C14   I2    2.141298 S    
C29   C32   1.419929 A    
N16   O36   1.301169 A    
C9    C17   1.414651 A    
C23   C39   1.411698 A    
O5    Zn1   1.889153 S    
C24   C40   1.407198 A    
C16   N8    1.442049 S    
N11   O25   1.300318 A    
C19   C34   1.407706 A    
C50   C52   1.521572 S    
C20   C33   1.409246 A    
C29   C33   1.414689 A    
C41   C47   1.533555 S    
C30   C34   1.414552 A    
C40   I8    2.145810 S    
C38   N16   1.441720 S    
