data_mof_unit_6527.cif
_audit_creation_date              2012-12-11T17:05:35-0500
_audit_creation_method            fapswitch 2.2
_symmetry_space_group_name_H-M    P1
_symmetry_Int_Tables_number       1
_space_group_crystal_system       triclinic
_cell_length_a                    6.954711
_cell_length_b                    14.524633
_cell_length_c                    16.007498
_cell_angle_alpha                 90.243415
_cell_angle_beta                  89.983756
_cell_angle_gamma                 89.956425
_cell_volume                      1616.9762795

loop_
_atom_site_label
_atom_site_type_symbol
_atom_type_description
_atom_site_fract_x
_atom_site_fract_y
_atom_site_fract_z
_atom_type_partial_charge
O1    O     O_R   0.494380 0.415640 0.412830 -0.530182
O2    O     O_R   0.823960 0.405540 0.586560 -0.547223
O3    O     O_R   0.994270 0.584360 0.587170 -0.543384
C1    C     C_R   0.655220 0.383447 0.615185 0.684158
O4    O     O_R   0.824090 0.404620 0.413450 -0.551809
O5    O     O_R   0.994400 0.583430 0.412820 -0.544812
C2    C     C_R   0.655409 0.382512 0.384450 0.724298
O6    O     O_R   0.494250 0.416570 0.587180 -0.542194
O7    O     O_3   0.660800 0.558670 0.500000 -0.368037
V1    V     V_3+5 0.935650 0.489120 0.500000 1.406062
O8    O     O_R   0.324110 0.594460 0.413440 -0.528928
C3    C     C_R   0.155052 0.616460 0.384653 0.773155
O9    O     O_R   0.323980 0.595380 0.586550 -0.540330
C4    C     C_R   0.155172 0.617529 0.615530 0.721227
V2    V     V_3+5 0.435660 0.510880 0.500000 1.449008
O10   O     O_3   0.160640 0.441330 0.500000 -0.379079
C5    C     C_3   0.049175 0.645049 0.764273 -0.419620
H1    H     H_    0.902381 0.619825 0.748661 0.144421
H2    H     H_    0.134165 0.584407 0.785164 0.153637
C6    C     C_3   0.035267 0.716328 0.836746 -0.305721
H3    H     H_    0.112167 0.689459 0.892521 0.169339
H4    H     H_    0.881798 0.725689 0.854617 0.164810
H5    H     H_    0.872043 0.750160 0.646399 0.095267
H6    H     H_    0.859494 0.858451 0.749186 0.117177
C7    C     C_3   0.021221 0.773480 0.660118 0.272128
C8    C     C_3   0.348260 0.721898 0.712088 -0.300769
C9    C     C_3   0.144503 0.688259 0.685768 0.042522
H7    H     H_    0.423977 0.753386 0.658079 0.190959
H8    H     H_    0.436848 0.662289 0.732704 0.130742
C10   C     C_3   0.123086 0.810078 0.810568 0.041979
C11   C     C_3   0.012579 0.845270 0.732669 -0.347336
C12   C     C_3   0.335677 0.792760 0.784022 -0.307389
H9    H     H_    0.420068 0.767020 0.838227 0.168154
H10   H     H_    0.402964 0.858463 0.763616 0.147877
H11   H     H_    0.074485 0.912293 0.712737 0.173044
C13   C     C_R   0.267618 0.746340 0.184792 0.095328
C14   C     C_R   0.118009 0.810752 0.179573 -0.132446
C15   C     C_R   0.969274 0.803913 0.239133 -0.141494
H12   H     H_    0.848800 0.850945 0.237030 0.126556
C16   C     C_R   0.981308 0.740662 0.305628 -0.175561
H13   H     H_    0.869117 0.740429 0.352460 0.145281
C17   C     C_R   0.142016 0.682189 0.314305 -0.123314
C18   C     C_R   0.278858 0.683580 0.250134 0.094610
C19   C     C_3   0.493306 0.689455 0.253686 -0.274905
C20   C     C_3   0.480440 0.758500 0.181405 0.174999
H14   H     H_    0.543769 0.721270 0.312959 0.089669
H15   H     H_    0.524170 0.829510 0.199047 0.080067
C21   C     C_R   0.493745 0.316725 0.741730 0.101069
C22   C     C_R   0.647606 0.317370 0.685236 -0.109278
C23   C     C_R   0.798863 0.254815 0.699392 -0.169056
H16   H     H_    0.921002 0.252944 0.657696 0.135843
C24   C     C_R   0.787559 0.189467 0.763915 -0.170165
H17   H     H_    0.901960 0.139519 0.770277 0.126759
C25   C     C_R   0.624370 0.184586 0.815941 -0.107540
C26   C     C_R   0.482158 0.251819 0.805361 0.111276
C27   C     C_3   0.270889 0.240538 0.793800 -0.406218
C28   C     C_3   0.283419 0.311754 0.724781 -0.399406
H18   H     H_    0.187845 0.264684 0.849050 0.178180
H19   H     H_    0.233365 0.170585 0.770656 0.167891
H20   H     H_    0.208536 0.377288 0.740306 0.164964
H21   H     H_    0.252247 0.283372 0.661633 0.174507
C29   C     C_R   0.490743 0.251930 0.309112 0.098843
C30   C     C_R   0.647389 0.311836 0.317362 -0.083037
C31   C     C_R   0.799677 0.301210 0.260096 -0.147705
H22   H     H_    0.922764 0.346335 0.263590 0.132633
C32   C     C_R   0.788101 0.236958 0.193967 -0.168606
H23   H     H_    0.903788 0.233633 0.148941 0.130576
C33   C     C_R   0.623170 0.181961 0.182729 -0.105738
C34   C     C_R   0.478835 0.188673 0.243468 0.105600
C35   C     C_3   0.269116 0.205446 0.232545 -0.414705
C36   C     C_3   0.282022 0.273957 0.304278 -0.386958
H24   H     H_    0.181740 0.143649 0.247618 0.172939
H25   H     H_    0.236559 0.238219 0.171544 0.178566
H26   H     H_    0.202720 0.251630 0.360980 0.171274
H27   H     H_    0.256224 0.346386 0.285029 0.194498
O11   O     O_R   0.771490 0.080820 0.910070 -0.545395
O12   O     O_R   0.441590 0.092730 0.083780 -0.543055
O13   O     O_R   0.271350 0.913900 0.084390 -0.530913
C37   C     C_R   0.610564 0.115246 0.112474 0.686870
O14   O     O_R   0.441780 0.091820 0.910670 -0.544018
O15   O     O_R   0.271540 0.912980 0.910040 -0.537087
C38   C     C_R   0.610779 0.113795 0.881926 0.684114
O16   O     O_R   0.771300 0.081740 0.084420 -0.545461
O17   O     O_3   0.604960 0.938700 0.997240 -0.339516
V3    V     V_3+5 0.330090 0.008230 0.997220 1.435796
O18   O     O_R   0.941820 0.901930 0.910640 -0.538871
C39   C     C_R   0.111077 0.879747 0.881649 0.683438
O19   O     O_R   0.941630 0.902840 0.083750 -0.523647
C40   C     C_R   0.110406 0.880806 0.112550 0.736855
V4    V     V_3+5 0.830090 0.986410 0.997190 1.461778
O20   O     O_3   0.105080 0.055990 0.997200 -0.380770
Cl1   Cl    Cl    0.108416 0.825959 0.566110 -0.701774
C41   C     C_2   0.593437 0.599675 0.234016 0.512366
H28   H     H_    0.747308 0.599441 0.222982 0.065335
O21   O     O_2   0.505014 0.527097 0.231026 -0.540473
Cl2   Cl    Cl    0.574421 0.721252 0.082666 -0.644520

loop_
_geom_bond_atom_site_label_1
_geom_bond_atom_site_label_2
_ccdc_geom_bond_type
C7    C11   S    
C21   C26   A    
C32   C33   A    
C26   C27   S    
C8    C12   S    
C41   H28   S    
C1    O6    A    
V3    O20   S    
C21   C28   S    
C6    C10   S    
C19   C20   S    
C8    C9    S    
O14   V3    S    
C13   C14   A    
C15   C16   A    
C14   C15   A    
O5    C3    A    
C10   C11   S    
V2    O10   S    
C5    C6    S    
C27   C28   S    
C20   H15   S    
C3    C17   S    
C19   C41   S    
O8    V2    S    
C19   H14   S    
C33   C34   A    
C37   O16   A    
C23   C24   A    
C35   C36   S    
O1    V2    S    
C4    C9    S    
O7    V1    S    
C33   C37   S    
C16   C17   A    
C32   H23   S    
O12   V3    S    
C41   O21   D    
O9    C4    A    
O17   V4    S    
C24   C25   A    
C23   H16   S    
O12   C37   A    
O13   C40   A    
C36   H27   S    
C5    C9    S    
O17   V3    S    
O14   C38   A    
O18   V4    S    
O11   C38   A    
O4    C2    A    
O18   C39   A    
C28   H20   S    
C29   C34   A    
C31   C32   A    
O2    C1    A    
C18   C19   S    
C29   C30   A    
C35   H25   S    
C5    H1    S    
C13   C20   S    
C6    H3    S    
C2    C30   S    
O15   C39   A    
O3    C4    A    
O13   V3    S    
C16   H13   S    
O19   V4    S    
O6    V2    S    
O9    V2    S    
C11   H11   S    
C17   C18   A    
O2    V1    S    
C25   C38   S    
C24   H17   S    
O16   V4    S    
C25   C26   A    
C21   C22   A    
C7    Cl1   S    
O1    C2    A    
C6    H4    S    
O5    V1    S    
C36   H26   S    
O8    C3    A    
C28   H21   S    
C7    C9    S    
C8    H7    S    
C27   H19   S    
C14   C40   S    
C1    C22   S    
C31   H22   S    
O7    V2    S    
H6    C11   S    
O4    V1    S    
O3    V1    S    
V1    O10   S    
C12   H9    S    
C10   C12   S    
V4    O20   S    
C15   H12   S    
C5    H2    S    
C27   H18   S    
C29   C36   S    
H5    C7    S    
C34   C35   S    
C30   C31   A    
O19   C40   A    
C8    H8    S    
C22   C23   A    
O11   V4    S    
C13   C18   A    
C35   H24   S    
C10   C39   S    
C20   Cl2   S    
O15   V3    S    
C12   H10   S    
