data_mof_unit_46659.cif
_audit_creation_date              2012-12-10T17:19:21-0500
_audit_creation_method            fapswitch 2.2
_symmetry_space_group_name_H-M    P1
_symmetry_Int_Tables_number       1
_space_group_crystal_system       triclinic
_cell_length_a                    15.049216
_cell_length_b                    10.829862
_cell_length_c                    9.599535
_cell_angle_alpha                 90.181052
_cell_angle_beta                  89.839203
_cell_angle_gamma                 93.089212
_cell_volume                      1562.25438517

loop_
_atom_site_label
_atom_site_type_symbol
_atom_type_description
_atom_site_fract_x
_atom_site_fract_y
_atom_site_fract_z
_atom_type_partial_charge
C1    C     C_R   0.498628 0.262330 0.499808 0.860967
C2    C     C_R   0.909009 0.583101 0.406957 0.135747
C3    C     C_R   0.946554 0.358519 0.690065 -0.266209
C4    C     C_R   0.039157 0.354378 0.689148 0.386670
C5    C     C_R   0.090200 0.431290 0.595770 -0.006825
C6    C     C_R   0.046715 0.509924 0.503151 -0.027271
C7    C     C_R   0.096219 0.588319 0.409557 0.080111
C8    C     C_R   0.050636 0.662757 0.316505 -0.133211
C9    C     C_R   0.958106 0.659272 0.314576 -0.206081
C10   C     C_R   0.183135 0.430798 0.590518 -0.204213
C11   C     C_R   0.232387 0.508673 0.499910 -0.141499
C12   C     C_R   0.329022 0.503038 0.500019 0.825818
C13   C     C_R   0.189776 0.589891 0.410863 0.207040
C14   C     C_R   0.370580 0.119952 0.672806 -0.143978
C15   C     C_R   0.314491 0.052340 0.763458 -0.045060
C16   C     C_R   0.312287 0.924162 0.761936 -0.112110
C17   C     C_R   0.368125 0.862992 0.672507 -0.131812
C18   C     C_R   0.430955 0.929825 0.587642 0.111857
C19   C     C_R   0.432334 0.060570 0.586967 0.038423
C20   C     C_R   0.494441 0.127582 0.499487 -0.224851
C21   C     C_R   0.553096 0.064167 0.412423 0.379277
C22   C     C_R   0.549011 0.936318 0.412718 -0.283982
C23   C     C_R   0.496301 0.736676 0.500270 0.793890
C24   C     C_R   0.490805 0.869580 0.500588 -0.125130
C25   C     C_R   0.619160 0.664331 0.144050 -0.140020
C26   C     C_R   0.677727 0.744384 0.071922 -0.172406
C27   C     C_R   0.677486 0.744848 0.928338 -0.168651
C28   C     C_R   0.618891 0.664918 0.855991 -0.139512
C29   C     C_R   0.558480 0.581000 0.925209 0.206825
C30   C     C_R   0.558526 0.580850 0.074772 0.230171
C31   C     C_R   0.444169 0.423154 0.073894 0.032821
C32   C     C_R   0.444144 0.423253 0.926024 -0.022472
C33   C     C_R   0.671025 0.502662 0.499924 0.827968
C34   C     C_R   0.816186 0.579085 0.404762 -0.237175
C35   C     C_R   0.767503 0.505394 0.500373 -0.032102
C36   C     C_R   0.810942 0.434526 0.597636 -0.148673
C37   C     C_R   0.903538 0.434393 0.597869 0.024593
C38   C     C_R   0.953206 0.509387 0.502936 0.083094
Cu1   Cu    Cu3+1 0.499990 0.499990 0.640660 0.945778
Cu2   Cu    Cu3+1 0.500010 0.500010 0.359340 1.024178
H1    H     H_    0.781849 0.634889 0.330786 0.127605
H2    H     H_    0.363628 0.218477 0.671157 0.144638
H3    H     H_    0.271200 0.099679 0.833385 0.216950
H4    H     H_    0.266213 0.871846 0.828870 0.168413
H5    H     H_    0.360613 0.763308 0.670677 0.166843
H6    H     H_    0.594147 0.887414 0.347116 0.173798
H7    H     H_    0.398420 0.360103 0.129050 0.147690
H8    H     H_    0.624425 0.671992 0.253880 0.174051
H9    H     H_    0.723656 0.806547 0.128165 0.179949
H10   H     H_    0.723065 0.807670 0.872275 0.166494
H11   H     H_    0.624012 0.673053 0.746107 0.193093
H12   H     H_    0.772364 0.377039 0.670655 0.165235
H13   H     H_    0.398207 0.360479 0.870952 0.139961
H14   H     H_    0.907222 0.299833 0.760680 0.201191
H15   H     H_    0.218900 0.369068 0.655299 0.213140
H16   H     H_    0.085496 0.723002 0.242661 0.200466
H17   H     H_    0.924879 0.716495 0.240699 0.156293
N1    N     N_R   0.500860 0.501210 0.147910 -0.198108
N2    N     N_R   0.500890 0.501290 0.852040 -0.208695
O1    O     O_R   0.499990 0.319640 0.618810 -0.590861
O2    O     O_R   0.500000 0.319660 0.381240 -0.524504
O3    O     O_R   0.370250 0.499960 0.618800 -0.602072
O4    O     O_R   0.370260 0.499980 0.381230 -0.544313
O5    O     O_R   0.500000 0.680340 0.618760 -0.619190
O6    O     O_R   0.500010 0.680360 0.381190 -0.578183
O7    O     O_R   0.629740 0.500020 0.618770 -0.610498
O8    O     O_R   0.629750 0.500040 0.381200 -0.561765
S1    S     S_3+6 0.087027 0.244617 0.798600 -0.015341
O9    O     O_2   0.159404 0.306335 0.885957 -0.290089
O10   O     O_2   0.018483 0.183241 0.893525 -0.262232
O11   O     O_3   0.130405 0.136680 0.696633 -0.555252
H18   H     H_    0.079523 0.100857 0.641978 0.356391
Br1   Br    Br    0.259889 0.708088 0.299079 -0.510054
S2    S     S_3+6 0.637218 0.139580 0.308053 0.028877
O12   O     O_2   0.595242 0.197135 0.183950 -0.229438
O13   O     O_2   0.686532 0.238814 0.391176 -0.312847
O14   O     O_3   0.710358 0.038782 0.250538 -0.526732
H19   H     H_    0.744330 0.016369 0.334158 0.337111

loop_
_geom_bond_atom_site_label_1
_geom_bond_atom_site_label_2
_ccdc_geom_bond_type
C35   C36   A    
C8    H16   S    
C7    C8    A    
O14   H19   S    
Cu1   O5    S    
C26   C27   A    
C29   C30   A    
Cu2   O4    S    
S2    O13   D    
C18   C24   A    
C31   N1    A    
C28   C29   A    
C17   H5    S    
C34   C35   A    
C5    C6    A    
C28   H11   S    
C15   C16   A    
C18   C19   A    
S1    O9    D    
C29   N2    A    
C16   C17   A    
Cu2   O8    S    
C23   C24   S    
C6    C38   A    
C16   H4    S    
C36   H12   S    
C27   H10   S    
C14   H2    S    
C2    C34   A    
C31   H7    S    
C21   C22   A    
C34   H1    S    
C33   O7    A    
Cu2   N1    S    
S2    O12   D    
C26   H9    S    
Cu1   Cu2   S    
C4    S1    S    
C12   O4    A    
C8    C9    A    
C25   C26   A    
C21   S2    S    
S2    O14   S    
Cu2   O2    S    
C37   C38   A    
C12   O3    A    
C2    C38   A    
C31   C32   A    
Cu1   N2    S    
C17   C18   A    
C10   H15   S    
C25   H8    S    
C3    H14   S    
C23   O5    A    
C22   H6    S    
C13   Br1   S    
Cu2   O6    S    
Cu1   O7    S    
C22   C24   A    
C1    O1    A    
C3    C4    A    
C32   H13   S    
C33   O8    A    
C25   C30   A    
Cu1   O3    S    
C36   C37   A    
C1    C20   S    
C14   C19   A    
C4    C5    A    
C1    O2    A    
C11   C12   S    
C6    C7    A    
C23   O6    A    
C19   C20   A    
C15   H3    S    
C5    C10   A    
C11   C13   A    
S1    O11   S    
Cu1   O1    S    
C30   N1    A    
C33   C35   S    
C9    H17   S    
C10   C11   A    
C7    C13   A    
O11   H18   S    
C20   C21   A    
C3    C37   A    
S1    O10   D    
C27   C28   A    
C14   C15   A    
C32   N2    A    
C2    C9    A    
