data_mof_unit_35008.cif
_audit_creation_date              2013-03-05T16:06:58-0500
_audit_creation_method            fapswitch 2.2
_symmetry_space_group_name_H-M    P1
_symmetry_Int_Tables_number       1
_space_group_crystal_system       triclinic
_cell_length_a                    8.390354
_cell_length_b                    15.33591
_cell_length_c                    27.101426
_cell_angle_alpha                 99.617737
_cell_angle_beta                  91.343024
_cell_angle_gamma                 82.048792
_cell_volume                      3405.17122589

loop_
_atom_site_label
_atom_site_type_symbol
_atom_site_description
_atom_site_fract_x
_atom_site_fract_y
_atom_site_fract_z
_atom_type_partial_charge
P1    P     P_3+3 0.071960 0.575810 0.612130 0.485329
O1    O     O_2   0.906490 0.548660 0.619040 -0.347570
O2    O     O_3   0.138490 0.548590 0.558860 -0.359913
O3    O     O_3   0.686290 0.382320 0.585720 -0.377239
O4    O     O_2   0.821097 0.425549 0.669563 -0.410651
O5    O     O_3   0.042283 0.694033 0.619398 -0.619366
O6    O     O_3   0.625150 0.304955 0.667877 -0.567674
H1    H     H_    0.830282 0.232273 0.634480 0.086607
C1    C     C_3   0.660211 0.142380 0.643492 -0.682280
H2    H     H_    0.723844 0.088891 0.615106 0.176147
P2    P     P_3+3 0.664360 0.290070 0.457280 0.428797
P3    P     P_3+3 0.160966 0.224049 0.568364 0.472902
O7    O     O_2   0.844020 0.276410 0.471510 -0.343135
O8    O     O_3   0.101490 0.335510 0.560360 -0.427010
O9    O     O_2   0.045145 0.177449 0.530557 -0.382975
O10   O     O_3   0.664922 0.232221 0.393883 -0.570230
O11   O     O_3   0.104368 0.188868 0.623805 -0.554944
C2    C     C_3   0.135982 0.241801 0.669913 0.837807
H3    H     H_    0.075748 0.310164 0.668212 -0.036367
C3    C     C_3   0.063835 0.198604 0.712423 0.159858
H4    H     H_    0.007613 0.139977 0.694059 0.126660
C4    C     C_3   0.207006 0.246183 0.372272 0.756270
H5    H     H_    0.336272 0.251902 0.380851 -0.029774
C5    C     C_3   0.205298 0.155484 0.337305 0.825374
H6    H     H_    0.097572 0.164140 0.313828 0.054790
Ba1   Ba    Ba6+2 0.860050 0.456430 0.522540 1.560453
C6    C     C_3   0.923501 0.737685 0.654911 0.240585
H7    H     H_    0.825058 0.696978 0.656783 0.106539
C7    C     C_3   0.995401 0.760828 0.707826 0.338478
H8    H     H_    0.077286 0.702190 0.715376 0.126332
C8    C     C_3   0.694525 0.279786 0.355544 0.228439
H9    H     H_    0.796161 0.317615 0.366590 -0.007323
C9    C     C_3   0.738333 0.216743 0.304131 0.891684
P4    P     P_3+3 0.117760 0.424110 0.387870 0.491784
O12   O     O_2   0.283210 0.451320 0.380930 -0.373465
O13   O     O_3   0.051220 0.451340 0.441130 -0.382108
O14   O     O_3   0.503420 0.617610 0.414270 -0.360653
O15   O     O_3   0.141070 0.316972 0.349130 -0.666069
P5    P     P_3+3 0.056825 0.781500 0.442163 0.468870
O16   O     O_3   0.617160 0.609950 0.527080 -0.412961
O17   O     O_3   0.088220 0.664410 0.439630 -0.336564
O18   O     O_2   0.199198 0.817776 0.472087 -0.396166
O19   O     O_3   0.085756 0.807327 0.382831 -0.495615
Ba2   Ba    Ba6+2 0.329780 0.543490 0.477450 1.586347
P6    P     P_3+3 0.654730 0.406399 0.649338 0.448564
C10   C     C_3   0.699977 0.232406 0.633440 0.499601
H10   H     H_    0.659860 0.236829 0.595089 0.086368
H11   H     H_    0.529830 0.138712 0.638497 0.245365
O20   O     O_3   0.572560 0.389970 0.472910 -0.488635
C11   C     C_3   0.416035 0.709117 0.631250 0.539074
H12   H     H_    0.301228 0.751787 0.625931 0.168780
H13   H     H_    0.408939 0.638718 0.614485 0.070051
C12   C     C_3   0.449543 0.715959 0.686969 -1.122798
H14   H     H_    0.352351 0.691710 0.705336 0.242424
H15   H     H_    0.566041 0.675508 0.693339 0.253351
H16   H     H_    0.457150 0.786106 0.704165 0.262479
P7    P     P_3+3 0.529887 0.722214 0.545039 0.497419
O21   O     O_2   0.345680 0.723560 0.528460 -0.337582
O22   O     O_3   0.541628 0.740863 0.610270 -0.584004
C13   C     C_3   0.983896 0.762427 0.349092 0.538392
H17   H     H_    0.027053 0.689731 0.343399 0.100011
H18   H     H_    0.857583 0.776533 0.362830 -0.018445
C14   C     C_3   0.988426 0.794061 0.298903 -1.046095
H19   H     H_    0.106872 0.769546 0.280702 0.290513
H20   H     H_    0.893480 0.767766 0.273889 0.206201
H21   H     H_    0.967597 0.868060 0.304164 0.260353
P8    P     P_3+3 0.534527 0.616345 0.349985 0.517843
C15   C     C_3   0.493831 0.779518 0.334908 0.493578
H22   H     H_    0.614848 0.760227 0.317876 0.005811
O23   O     O_2   0.462145 0.533818 0.322730 -0.343091
O24   O     O_3   0.407667 0.706457 0.332278 -0.458329
H23   H     H_    0.505231 0.811770 0.374530 0.064673
H24   H     H_    0.483245 0.897658 0.300756 0.202373
C16   C     C_3   0.405417 0.846447 0.304909 -1.033665
H25   H     H_    0.291885 0.879094 0.324049 0.302328
H26   H     H_    0.377660 0.812380 0.266845 0.263987
C17   C     C_R   0.137932 0.502683 0.191352 0.576539
O25   O     O_2   0.242860 0.483700 0.221140 -0.550021
N1    N     N_R   0.979666 0.529965 0.207875 -0.168619
C18   C     C_R   0.867228 0.556491 0.172664 0.581249
C19   C     C_2   0.803466 0.594327 0.281043 -0.253055
C20   C     C_3   0.758386 0.607983 0.335638 -0.078811
C21   C     C_1   0.992400 0.493764 0.346433 0.172769
C22   C     C_2   0.026269 0.481185 0.297278 -0.262335
C23   C     C_2   0.932253 0.535681 0.261285 0.108650
C24   C     C_R   0.071226 0.540640 0.108151 -0.165685
C25   C     C_R   0.180599 0.498381 0.139879 -0.079426
C26   C     C_R   0.327824 0.452341 0.119154 -0.012458
C27   C     C_R   0.916724 0.576258 0.126563 -0.276219
C28   C     C_2   0.866449 0.550188 0.366277 0.297212
H27   H     H_    0.110008 0.423276 0.281875 0.213732
C29   C     C_2   0.340125 0.486767 0.642086 -0.485989
C30   C     C_R   0.308010 0.513019 0.987880 0.095110
C31   C     C_R   0.038458 0.593904 0.976281 -0.084568
C32   C     C_R   0.192865 0.556085 0.957036 0.021785
C33   C     C_R   0.463581 0.482633 0.967511 -0.144932
C34   C     C_R   0.495574 0.479256 0.916901 -0.085040
C35   C     C_R   0.379357 0.515254 0.885266 -0.039874
C36   C     C_R   0.231886 0.559310 0.906144 -0.108596
C37   C     C_R   0.123646 0.605181 0.875759 -0.149447
C38   C     C_R   0.174905 0.612612 0.826691 0.588044
N2    N     N_R   0.302883 0.554341 0.803034 -0.150593
C39   C     C_R   0.406683 0.506489 0.833008 0.504607
C40   C     C_2   0.470663 0.524140 0.726032 -0.285268
C41   C     C_3   0.494672 0.502854 0.669360 0.235723
C42   C     C_1   0.203160 0.529510 0.661191 0.140061
C43   C     C_2   0.177404 0.536660 0.710970 0.403932
C44   C     C_2   0.321355 0.539505 0.747483 -0.030348
O26   O     O_2   0.521160 0.454376 0.814425 -0.621144
C45   C     C_R   0.264695 0.502825 0.037664 -0.079512
C46   C     C_R   0.114399 0.546588 0.057942 -0.022443
C47   C     C_R   0.005773 0.596441 0.028522 -0.129184
C48   C     C_R   0.362682 0.448234 0.067874 0.533957
H28   H     H_    0.576989 0.532107 0.748854 0.190461
H29   H     H_    0.614396 0.450397 0.902841 0.172855
H30   H     H_    0.564862 0.461894 0.989889 0.203537
O27   O     O_2   0.723444 0.561387 0.180679 -0.555815
C49   C     C_R   0.818223 0.634470 0.099693 0.510760
H31   H     H_    0.738626 0.641516 0.259804 0.184500
C50   C     C_R   0.917981 0.622787 0.942105 0.609259
C51   C     C_R   0.963330 0.634247 0.893281 -0.132992
O28   O     O_2   0.103443 0.669309 0.804770 -0.630195
C52   C     C_R   0.871110 0.651221 0.053772 0.527340
H32   H     H_    0.342156 0.440204 0.607088 0.181220
C53   C     C_R   0.367855 0.176510 0.542804 0.302454
H33   H     H_    0.408594 0.308923 0.533961 0.171069
C54   C     C_R   0.588548 0.211169 0.495353 0.362623
C55   C     C_R   0.793747 0.781415 0.503718 -0.294254
C56   C     C_R   0.862393 0.832915 0.474092 0.159609
C57   C     C_R   0.781117 0.917578 0.467358 -0.123798
C58   C     C_R   0.642356 0.957936 0.497627 -0.018247
C59   C     C_R   0.567226 0.899416 0.523244 -0.252987
C60   C     C_R   0.576491 0.052957 0.504899 -0.039842
C61   C     C_R   0.426926 0.082750 0.531476 -0.227759
C62   C     C_R   0.344687 0.018092 0.547531 0.407587
C63   C     C_R   0.427903 0.934575 0.551544 0.484461
C64   C     C_R   0.653985 0.119954 0.487779 -0.273189
C65   C     C_R   0.455012 0.238604 0.526475 -0.566002
C66   C     C_R   0.635195 0.807810 0.521109 0.255763
H34   H     H_    0.767060 0.104293 0.468699 0.171956
O29   O     O_3   0.341953 0.132784 0.305832 -0.633749
C67   C     C_3   0.312155 0.066424 0.264959 -0.253675
H35   H     H_    0.244570 0.014817 0.275622 0.171002
H36   H     H_    0.428705 0.030861 0.249356 0.154850
H37   H     H_    0.245129 0.098090 0.235249 0.139125
O30   O     O_3   0.187717 0.086174 0.365106 -0.620965
C68   C     C_3   0.331781 0.058688 0.389888 -0.162800
H38   H     H_    0.390504 0.115198 0.409513 0.088207
H39   H     H_    0.418728 0.015770 0.363239 0.146510
H40   H     H_    0.303281 0.018721 0.418268 0.166120
N3    N     N_3   0.852673 0.821590 0.639382 -0.216613
H41   H     H_    0.788616 0.807017 0.606623 0.096840
H42   H     H_    0.944609 0.855476 0.629929 0.161152
N4    N     N_3   0.866375 0.781544 0.745453 -0.204237
H43   H     H_    0.780000 0.832106 0.736006 0.093726
H44   H     H_    0.810188 0.724747 0.745419 0.101988
O31   O     O_3   0.083503 0.834006 0.709677 -0.614064
C69   C     C_3   0.152193 0.855969 0.757475 -0.195737
H45   H     H_    0.217954 0.796687 0.771180 0.172393
H46   H     H_    0.058833 0.891076 0.784938 0.158154
H47   H     H_    0.240830 0.902262 0.754903 0.123773
N5    N     N_3   0.549260 0.337954 0.347562 -0.172430
H48   H     H_    0.575284 0.382244 0.324629 0.100978
H49   H     H_    0.517679 0.372479 0.382680 0.167781
O32   O     O_3   0.835490 0.136914 0.312786 -0.656455
C70   C     C_3   0.747748 0.066751 0.318071 -0.021029
H50   H     H_    0.640618 0.089193 0.342400 0.175363
H51   H     H_    0.828169 0.016726 0.335294 0.125453
H52   H     H_    0.712089 0.032516 0.280966 0.107800
N6    N     N_3   0.833467 0.263429 0.274299 -0.247181
H53   H     H_    0.766118 0.322772 0.267372 0.047792
H54   H     H_    0.935355 0.280992 0.293600 0.084220
O33   O     O_3   0.593793 0.198374 0.277505 -0.586028
C71   C     C_3   0.619392 0.170066 0.225358 -0.201498
H55   H     H_    0.728967 0.120235 0.217095 0.123846
H56   H     H_    0.626379 0.228297 0.206406 0.136490
H57   H     H_    0.514909 0.139028 0.208762 0.155762
N7    N     N_3   0.711622 0.125721 0.693225 -0.188033
H58   H     H_    0.634279 0.166453 0.719734 0.183334
H59   H     H_    0.696705 0.059923 0.695496 0.121623
O34   O     O_3   0.180190 0.172980 0.748230 -0.585734
C72   C     C_3   0.267575 0.087962 0.732815 -0.132065
H60   H     H_    0.376274 0.095143 0.712427 0.149685
H61   H     H_    0.195834 0.039377 0.710639 0.130692
H62   H     H_    0.310019 0.060001 0.766726 0.128208
N8    N     N_3   0.438550 0.403403 0.149155 -0.144287
H63   H     H_    0.448576 0.335481 0.134275 0.108692
H64   H     H_    0.551438 0.424168 0.147257 0.194787
O35   O     O_3   0.490810 0.386724 0.048099 -0.640456
C73   C     C_3   0.430568 0.309312 0.023572 -0.312160
H65   H     H_    0.353905 0.323270 0.990995 0.158995
H66   H     H_    0.362001 0.279540 0.049664 0.135162
H67   H     H_    0.533788 0.258905 0.009148 0.183058
O36   O     O_3   0.671018 0.678069 0.118597 -0.553432
C74   C     C_3   0.695452 0.755043 0.152990 -0.123992
H68   H     H_    0.787843 0.740732 0.181762 0.091386
H69   H     H_    0.580771 0.781823 0.173052 0.153656
H70   H     H_    0.728336 0.807810 0.133237 0.124954
O37   O     O_3   0.758118 0.617586 0.953403 -0.617098
C75   C     C_3   0.647549 0.690495 0.942755 -0.064055
H71   H     H_    0.586543 0.671785 0.906515 0.107944
H72   H     H_    0.702755 0.752730 0.943453 0.113529
H73   H     H_    0.551890 0.705236 0.971709 0.176733
O38   O     O_3   0.303208 0.241523 0.676900 -0.647128
C76   C     C_3   0.333558 0.308689 0.717233 -0.072878
H74   H     H_    0.449169 0.288297 0.735164 0.208099
H75   H     H_    0.244124 0.322898 0.747930 0.090299
H76   H     H_    0.341110 0.370132 0.702563 0.141523
N9    N     N_3   0.840885 0.665321 0.860004 -0.214825
H77   H     H_    0.861942 0.727056 0.851999 0.156751
H78   H     H_    0.839772 0.618785 0.827190 0.160824
O39   O     O_3   0.020093 0.550230 0.728398 -0.608100
C77   C     C_3   0.993076 0.480182 0.753613 -0.046622
H79   H     H_    0.056174 0.479295 0.789553 0.067890
H80   H     H_    0.029569 0.415544 0.730297 0.087443
H81   H     H_    0.862878 0.486117 0.761743 0.162219
O40   O     O_3   0.794830 0.726172 0.036517 -0.585445
C78   C     C_3   0.900167 0.791440 0.040974 -0.332062
H82   H     H_    0.994737 0.774033 0.011639 0.148567
H83   H     H_    0.956873 0.802061 0.078708 0.125809
H84   H     H_    0.829651 0.855791 0.035455 0.172704
O41   O     O_3   0.828672 0.558006 0.415988 -0.619683
C79   C     C_3   0.735021 0.490393 0.420321 0.176397
H85   H     H_    0.803894 0.426788 0.424847 0.106913
H86   H     H_    0.656586 0.475536 0.388373 -0.006582
H87   H     H_    0.660040 0.513189 0.453263 0.230770
O42   O     O_3   0.196402 0.040524 0.570706 -0.569639
C80   C     C_3   0.082852 0.990076 0.544739 0.027067
H88   H     H_    0.094554 0.922315 0.554942 0.140418
H89   H     H_    0.091353 0.986547 0.503512 0.103038
H90   H     H_    0.960429 0.023521 0.556223 0.126711
N10   N     N_3   0.888803 0.702194 0.516102 -0.112891
H91   H     H_    0.999253 0.720300 0.529658 0.179703
H92   H     H_    0.843886 0.682458 0.547184 0.165844
N11   N     N_3   0.824989 0.951731 0.424288 -0.200124
H93   H     H_    0.725099 0.988121 0.410032 0.092178
H94   H     H_    0.920152 0.988906 0.432907 0.150743
N12   N     N_3   0.933702 0.258796 0.740397 -0.214269
H95   H     H_    0.981172 0.300660 0.769830 0.127341
H96   H     H_    0.868471 0.298950 0.717736 0.122997
O43   O     O_3   0.374868 0.891307 0.587427 -0.585144
C81   C     C_3   0.425276 0.931938 0.634781 -0.212195
H97   H     H_    0.557006 0.915171 0.639485 0.137246
H98   H     H_    0.363156 0.907159 0.664127 0.173937
H99   H     H_    0.393824 0.005378 0.640757 0.134434
O44   O     O_3   0.105746 0.246045 0.411865 -0.644728
C82   C     C_3   0.185216 0.270795 0.455857 -0.012106
H100  H     H_    0.287075 0.309914 0.454461 0.039359
H101  H     H_    0.223466 0.207956 0.468787 0.128767
H102  H     H_    0.098429 0.316777 0.479289 0.257374

loop_
_geom_bond_atom_site_label_1
_geom_bond_atom_site_label_2
_geom_bond_distance
_ccdc_geom_bond_type
Ba2   O20   2.880231 S    
C53   C61   1.438718 A    
C70   H51   1.106072 S    
C25   C26   1.413727 A    
C14   H20   1.108610 S    
C60   C64   1.432481 A    
C73   H65   1.112421 S    
C6    C7    1.547586 S    
H24   C16   1.109392 S    
C12   H15   1.109132 S    
C79   H85   1.086809 S    
C68   H38   1.108387 S    
C2    O38   1.410914 S    
C55   C56   1.399855 A    
C80   H89   1.113055 S    
C19   C20   1.508934 S    
C78   H82   1.110391 S    
C79   H87   1.084542 S    
Ba1   Ba2   4.586471 S    
C62   C63   1.391165 A    
P5    O17   1.768435 S    
O32   C70   1.412767 S    
C17   O25   1.218968 D    
C59   C66   1.433508 A    
C77   H81   1.107815 S    
O31   C69   1.413005 S    
C16   H26   1.110710 S    
C63   O43   1.379011 S    
C13   C14   1.521487 S    
C11   O22   1.390420 S    
O6    P6    1.763010 S    
C68   H39   1.104546 S    
C55   C66   1.404417 A    
P4    O12   1.528165 D    
C29   H32   1.086709 S    
C70   H52   1.108744 S    
C32   C36   1.435390 A    
C76   H76   1.092198 S    
N6    H53   1.045304 S    
C15   C16   1.518157 S    
C35   C39   1.421120 A    
C4    O15   1.386744 S    
O34   C72   1.407103 S    
C57   N11   1.431816 S    
C26   C48   1.416219 A    
C50   O37   1.398650 S    
O39   C77   1.411481 S    
P7    C66   1.885920 S    
C2    C3    1.590988 S    
C13   H18   1.112107 S    
P1    O1    1.527785 D    
C10   H10   1.094998 S    
C18   C27   1.418142 A    
O2    Ba1   2.960606 S    
C71   H55   1.112431 S    
N10   H91   1.044993 S    
C73   H67   1.109108 S    
N2    C39   1.395041 Am   
C18   O27   1.220648 D    
C31   C50   1.430108 A    
O42   C80   1.411403 S    
C12   H14   1.102659 S    
Ba2   O21   2.893552 S    
C15   H22   1.106717 S    
P3    O11   1.774674 S    
C75   H71   1.109907 S    
C11   H13   1.108231 S    
N11   H93   1.044330 S    
C8    C9    1.576981 S    
N2    C44   1.493005 S    
C54   C65   1.392510 A    
C51   N9    1.435483 S    
C34   H29   1.083692 S    
C9    O33   1.434013 S    
C1    H2    1.112195 S    
O16   Ba2   2.954953 S    
P4    O13   1.530163 S    
C69   H47   1.107694 S    
C59   C63   1.405313 A    
P1    C42   1.874697 S    
C74   H70   1.109516 S    
C80   H90   1.109459 S    
C17   N1    1.396599 Am   
O36   C74   1.412324 S    
C52   O40   1.382588 S    
C8    N5    1.442018 S    
C1    C10   1.532675 S    
C30   C32   1.427736 A    
C69   H46   1.110943 S    
O38   C76   1.415625 S    
N11   H94   1.043934 S    
C67   H37   1.111001 S    
O35   C73   1.411846 S    
C49   O36   1.386270 S    
C9    N6    1.478229 S    
C4    H5    1.116144 S    
C40   C41   1.528025 S    
P6    C41   1.871475 S    
C34   C35   1.400234 A    
P5    O18   1.543331 D    
N5    H49   1.030040 S    
O3    P6    1.720674 S    
C82   H101  1.084665 S    
O3    Ba1   2.752237 S    
C64   H34   1.069405 S    
N12   H96   1.036022 S    
O2    Ba2   2.742917 S    
P1    Ba1   3.408991 S    
C81   H99   1.105972 S    
C16   H25   1.109761 S    
C7    O31   1.420351 S    
P1    O5    1.773711 S    
C11   C12   1.518444 S    
C38   N2    1.392121 Am   
N7    H58   1.042683 S    
C68   H40   1.109542 S    
P4    Ba2   3.409359 S    
C22   C23   1.525177 S    
C47   C52   1.425558 A    
N9    H77   1.044681 S    
N12   H95   1.044907 S    
Ba1   O20   2.955739 S    
C81   H98   1.106260 S    
C4    O44   1.384644 S    
C24   C25   1.409338 A    
C2    H3    1.106868 S    
P5    O19   1.749015 S    
P3    C53   1.887359 S    
P5    C56   1.874614 S    
P2    Ba1   3.442093 S    
C11   H12   1.107923 S    
O40   C78   1.413134 S    
O33   C71   1.419595 S    
O4    P6    1.535877 D    
O8    Ba1   2.844587 S    
C45   C46   1.420471 A    
C13   H17   1.109643 S    
O10   C8    1.410271 S    
C72   H62   1.108785 S    
C69   H45   1.110578 S    
P2    C54   1.895874 S    
O6    C10   1.410787 S    
C7    N4    1.470085 S    
C7    H8    1.098425 S    
P2    O20   1.609927 S    
O43   C81   1.412239 S    
P2    O10   1.796950 S    
C78   H83   1.114315 S    
O5    C6    1.418743 S    
C45   C48   1.433236 A    
P3    O9    1.551032 D    
C77   H79   1.098841 S    
C5    O29   1.414063 S    
C15   H23   1.112492 S    
C33   C34   1.394897 A    
N10   H92   1.036746 S    
O11   C2    1.412765 S    
O1    Ba1   2.803715 S    
C71   H56   1.110821 S    
C5    H6    1.098850 S    
O12   Ba2   2.804038 S    
C71   H57   1.105819 S    
N4    H43   1.046045 S    
C62   O42   1.380869 S    
O19   C13   1.398727 S    
P8    C20   1.909558 S    
C15   O24   1.406467 S    
C40   H28   1.082773 S    
Ba1   O13   2.742344 S    
C22   H27   1.083433 S    
P3    O8    1.760906 S    
C30   C33   1.416056 A    
C70   H50   1.107931 S    
O17   Ba2   2.845201 S    
C4    C5    1.548362 S    
N1    C18   1.395512 Am   
C21   C22   1.345131 D    
P7    O22   1.745711 S    
P4    C21   1.882329 S    
C43   C44   1.544034 S    
N8    H64   1.045181 S    
C58   C59   1.438765 A    
C40   C44   1.367323 D    
C67   H36   1.107840 S    
C50   C51   1.430513 A    
C78   H84   1.109055 S    
O30   C68   1.416129 S    
C12   H16   1.108437 S    
C29   C42   1.313185 D    
C21   C28   1.331512 D    
C76   H74   1.104371 S    
O44   C82   1.375358 S    
H33   C65   1.081764 S    
C73   H66   1.113164 S    
O16   P7    1.767808 S    
C46   C47   1.423997 A    
C81   H97   1.108912 S    
P4    O15   1.784510 S    
N4    H44   1.046061 S    
C8    H9    1.104649 S    
C9    O32   1.424506 S    
C6    N3    1.464143 S    
C14   H19   1.109034 S    
C58   C60   1.467696 A    
C24   C27   1.403981 A    
N7    H59   1.045817 S    
C82   H100  1.114761 S    
C79   H86   1.087904 S    
C28   O41   1.373101 S    
C61   C62   1.412890 A    
C43   O39   1.388864 S    
C53   C65   1.409262 A    
N5    H48   1.041039 S    
C48   O35   1.382127 S    
C30   C45   1.444348 A    
C38   O28   1.216621 D    
C20   C28   1.511791 S    
C36   C37   1.406965 A    
C39   O26   1.220956 D    
P8    O23   1.547726 D    
C26   N8    1.436326 S    
O14   Ba2   2.751719 S    
C24   C46   1.436972 A    
C56   C57   1.418637 A    
C77   H80   1.091535 S    
C19   H31   1.080098 S    
O29   C67   1.416313 S    
P2    O7    1.541843 D    
Ba1   O16   2.880780 S    
P7    O21   1.597744 D    
C60   C61   1.440858 A    
N6    H54   1.035681 S    
C75   H73   1.109544 S    
C3    N12   1.464630 S    
O14   P8    1.764208 S    
O41   C79   1.405994 S    
C31   C47   1.441552 A    
C37   C38   1.434341 A    
N9    H78   1.043862 S    
N1    C23   1.495346 S    
C57   C58   1.444728 A    
P8    O24   1.750349 S    
C49   C52   1.405695 A    
N3    H42   1.046596 S    
C31   C32   1.417581 A    
O7    Ba1   2.893233 S    
C72   H61   1.111840 S    
C27   C49   1.412516 A    
C14   H21   1.109492 S    
O13   Ba2   2.961378 S    
C80   H88   1.110185 S    
C74   H68   1.113062 S    
C29   C41   1.507083 S    
O37   C75   1.415072 S    
C3    H4    1.111494 S    
C17   C25   1.436863 A    
C1    H11   1.107126 S    
C55   N10   1.442352 S    
C35   C36   1.407630 A    
C42   C43   1.355138 D    
C6    H7    1.108933 S    
C67   H35   1.113415 S    
C33   H30   1.075455 S    
C5    O30   1.426705 S    
C54   C64   1.413238 A    
H1    C10   1.092731 S    
P1    O2    1.530372 S    
N8    H63   1.044841 S    
C76   H75   1.107303 S    
N3    H41   1.035182 S    
C75   H72   1.114316 S    
C19   C23   1.364033 D    
C1    N7    1.457867 S    
C72   H60   1.104973 S    
C82   H102  1.077404 S    
C3    O34   1.423410 S    
C74   H69   1.109384 S    
C37   C51   1.423675 A    
