data_mof_unit_47001.cif
_audit_creation_date              2012-12-11T17:06:25-0500
_audit_creation_method            fapswitch 2.2
_symmetry_space_group_name_H-M    P1
_symmetry_Int_Tables_number       1
_space_group_crystal_system       triclinic
_cell_length_a                    7.02481
_cell_length_b                    14.436025
_cell_length_c                    16.051639
_cell_angle_alpha                 90.503857
_cell_angle_beta                  89.503611
_cell_angle_gamma                 89.572548
_cell_volume                      1627.63179012

loop_
_atom_site_label
_atom_site_type_symbol
_atom_type_description
_atom_site_fract_x
_atom_site_fract_y
_atom_site_fract_z
_atom_type_partial_charge
O1    O     O_R   0.494400 0.415450 0.412630 -0.539709
O2    O     O_R   0.823940 0.405730 0.586760 -0.552328
O3    O     O_R   0.994240 0.584550 0.587370 -0.542091
C1    C     C_R   0.654831 0.384265 0.615522 0.740432
O4    O     O_R   0.824110 0.404430 0.413240 -0.542266
O5    O     O_R   0.994420 0.583240 0.412620 -0.532875
C2    C     C_R   0.656626 0.379997 0.386130 0.717005
O6    O     O_R   0.494230 0.416760 0.587380 -0.514304
O7    O     O_3   0.660800 0.558670 0.500000 -0.372541
V1    V     V_3+5 0.935650 0.489120 0.500000 1.485095
O8    O     O_R   0.324140 0.594270 0.413240 -0.544239
C3    C     C_R   0.155546 0.616901 0.385173 0.711656
O9    O     O_R   0.323960 0.595570 0.586760 -0.521937
C4    C     C_R   0.154312 0.617582 0.615311 0.801120
V2    V     V_3+5 0.435660 0.510880 0.500000 1.521359
O10   O     O_3   0.160640 0.441330 0.500000 -0.375672
C5    C     C_3   0.956607 0.720188 0.729123 -0.158200
C6    C     C_3   0.053318 0.708889 0.815002 -0.095705
H1    H     H_    0.987559 0.676596 0.870659 0.155843
H2    H     H_    0.810804 0.696737 0.713697 0.149285
C7    C     C_3   0.123748 0.809512 0.810027 -0.085449
C8    C     C_3   0.026800 0.821755 0.724947 -0.166291
C9    C     C_3   0.211753 0.787485 0.681734 0.411798
C10   C     C_3   0.309814 0.776799 0.766762 -0.174484
C11   C     C_3   0.239135 0.675362 0.770875 -0.139798
C12   C     C_3   0.142351 0.687191 0.685697 -0.089064
H3    H     H_    0.940108 0.882507 0.706003 0.143364
H4    H     H_    0.455720 0.800413 0.781803 0.139868
H5    H     H_    0.327508 0.615325 0.789974 0.197042
C13   C     C_R   0.274645 0.748976 0.186749 -0.003854
C14   C     C_R   0.118571 0.809401 0.178243 -0.126025
C15   C     C_R   0.969357 0.801738 0.237038 -0.075334
H6    H     H_    0.846684 0.847159 0.233561 0.129609
C16   C     C_R   0.983158 0.740191 0.304609 -0.048369
H7    H     H_    0.871999 0.739665 0.351213 0.164274
C17   C     C_R   0.144924 0.683902 0.315492 -0.103645
C18   C     C_R   0.288435 0.689172 0.254810 -0.044293
C19   C     C_3   0.495130 0.711190 0.265041 0.599981
C20   C     C_3   0.481963 0.771381 0.187730 0.165245
H8    H     H_    0.512807 0.846119 0.198374 0.081138
C21   C     C_R   0.479944 0.262424 0.696122 -0.042786
C22   C     C_R   0.643668 0.315666 0.683502 -0.107100
C23   C     C_R   0.788107 0.309303 0.743097 -0.155230
H9    H     H_    0.903758 0.357804 0.741084 0.196461
C24   C     C_R   0.771960 0.249780 0.811798 0.398437
C25   C     C_R   0.620839 0.185786 0.816367 -0.146221
C26   C     C_R   0.469257 0.198422 0.761423 -0.121382
C27   C     C_3   0.275098 0.232296 0.786220 0.319781
C28   C     C_3   0.282254 0.297846 0.712766 0.216236
H10   H     H_    0.165942 0.177383 0.780244 0.041623
H11   H     H_    0.183743 0.277913 0.661949 0.037355
C29   C     C_R   0.472548 0.284754 0.285749 0.001449
C30   C     C_R   0.648151 0.307981 0.319207 -0.193923
C31   C     C_R   0.810571 0.266940 0.280163 0.282224
C32   C     C_R   0.790970 0.225169 0.200767 0.325224
C33   C     C_R   0.619071 0.182747 0.181183 -0.177893
C34   C     C_R   0.456893 0.219098 0.220945 -0.073990
C35   C     C_3   0.311701 0.279012 0.180679 0.372348
C36   C     C_3   0.337132 0.351115 0.248124 -0.344091
H12   H     H_    0.178906 0.240259 0.183632 0.154982
H13   H     H_    0.211047 0.366060 0.287487 0.200351
H14   H     H_    0.409567 0.415090 0.226749 0.187371
O11   O     O_R   0.771650 0.079500 0.908680 -0.544353
O12   O     O_R   0.441690 0.091800 0.082800 -0.527871
O13   O     O_R   0.271460 0.912980 0.083410 -0.559409
C37   C     C_R   0.609401 0.115022 0.110872 0.782992
O14   O     O_R   0.441930 0.090510 0.909280 -0.512539
O15   O     O_R   0.271690 0.911670 0.908660 -0.546327
C38   C     C_R   0.610710 0.114132 0.882218 0.730658
O16   O     O_R   0.771410 0.080810 0.083440 -0.534063
O17   O     O_3   0.605100 0.937580 0.996050 -0.398932
V3    V     V_3+5 0.330220 0.007110 0.996030 1.524102
O18   O     O_R   0.941980 0.900620 0.909250 -0.544153
C39   C     C_R   0.111628 0.878870 0.880532 0.698439
O19   O     O_R   0.941740 0.901920 0.082770 -0.540722
C40   C     C_R   0.110404 0.879676 0.111148 0.684510
V4    V     V_3+5 0.830220 0.985300 0.996000 1.469907
O20   O     O_3   0.105210 0.054870 0.996020 -0.339308
O21   O     O_3   0.528939 0.764926 0.336697 -0.657452
H15   H     H_    0.545083 0.721532 0.383609 0.321190
O22   O     O_3   0.578102 0.732556 0.118764 -0.618648
H16   H     H_    0.551002 0.773871 0.071249 0.309006
O23   O     O_3   0.891466 0.264617 0.877746 -0.570940
H17   H     H_    0.828204 0.244866 0.929948 0.356912
Cl1   Cl    Cl    0.281580 0.288253 0.886753 -0.383768
Cl2   Cl    Cl    0.268334 0.419259 0.739362 -0.603386
O24   O     O_3   0.981907 0.257399 0.319783 -0.669428
H18   H     H_    0.958277 0.256910 0.380642 0.292291
Cl3   Cl    Cl    0.882155 0.286607 0.114822 -0.543577
Cl4   Cl    Cl    0.378422 0.321901 0.080659 -0.437159
Cl5   Cl    Cl    0.317721 0.839932 0.592888 -0.665889
O25   O     O_3   0.618784 0.633989 0.257564 -0.626644
H19   H     H_    0.566968 0.590884 0.215015 0.317694

loop_
_geom_bond_atom_site_label_1
_geom_bond_atom_site_label_2
_ccdc_geom_bond_type
C32   C33   A    
C6    C7    S    
O18   C39   A    
C1    O6    A    
O22   H16   S    
C34   C35   S    
C37   O16   A    
V4    O20   S    
O13   C40   A    
O23   H17   S    
C5    C12   S    
C17   C18   A    
C16   H7    S    
O5    C3    A    
C13   C14   A    
C19   O21   S    
C35   H12   S    
V2    O10   S    
C19   O25   S    
C5    H2    S    
C33   C34   A    
O14   V3    S    
C21   C22   A    
C9    C12   S    
C25   C38   S    
V3    O20   S    
C25   C26   A    
O8    V2    S    
O11   C38   A    
C28   H11   S    
C9    C10   S    
O1    V2    S    
C3    C17   S    
O7    V1    S    
C27   H10   S    
O9    C4    A    
O16   V4    S    
C24   O23   S    
C6    C11   S    
C21   C28   S    
C8    C9    S    
C11   H5    S    
C36   H13   S    
C26   C27   S    
C10   C11   S    
C20   O22   S    
C20   H8    S    
O4    C2    A    
C6    H1    S    
C11   C12   S    
C30   C31   A    
C7    C39   S    
C13   C18   A    
O14   C38   A    
O12   C37   A    
O2    C1    A    
O19   C40   A    
C18   C19   S    
C29   C36   S    
O19   V4    S    
C14   C15   A    
O15   V3    S    
C5    C6    S    
C21   C26   A    
C4    C12   S    
C23   C24   A    
O3    C4    A    
C35   Cl4   S    
C31   O24   S    
C27   C28   S    
O6    V2    S    
C8    H3    S    
O9    V2    S    
C23   H9    S    
C9    Cl5   S    
C22   C23   A    
C2    C30   S    
O2    V1    S    
O17   V4    S    
C29   C30   A    
O11   V4    S    
C31   C32   A    
C36   H14   S    
O1    C2    A    
C28   Cl2   S    
C10   H4    S    
O5    V1    S    
O8    C3    A    
O13   V3    S    
C5    C8    S    
C15   H6    S    
C35   C36   S    
O17   V3    S    
C32   Cl3   S    
O3    V1    S    
V1    O10   S    
C14   C40   S    
C19   C20   S    
C1    C22   S    
C33   C37   S    
O25   H19   S    
C13   C20   S    
C16   C17   A    
O12   V3    S    
O7    V2    S    
C29   C34   A    
O21   H15   S    
C24   C25   A    
O4    V1    S    
O24   H18   S    
C7    C10   S    
O18   V4    S    
C27   Cl1   S    
C7    C8    S    
O15   C39   A    
C15   C16   A    
