data_mof_unit_64628.cif
_audit_creation_date              2012-12-10T19:23:14-0500
_audit_creation_method            fapswitch 2.2
_symmetry_space_group_name_H-M    P1
_symmetry_Int_Tables_number       1
_space_group_crystal_system       triclinic
_cell_length_a                    15.758293
_cell_length_b                    14.973161
_cell_length_c                    27.716044
_cell_angle_alpha                 90.396976
_cell_angle_beta                  90.054694
_cell_angle_gamma                 90.065182
_cell_volume                      6539.47676982

loop_
_atom_site_label
_atom_site_type_symbol
_atom_type_description
_atom_site_fract_x
_atom_site_fract_y
_atom_site_fract_z
_atom_type_partial_charge
C1    C     C_R   0.337991 0.499975 0.500211 0.936245
C2    C     C_R   0.450342 0.558983 0.277272 -0.108487
C3    C     C_R   0.507973 0.504394 0.252797 0.215973
C4    C     C_R   0.513930 0.514545 0.101566 -0.052907
C5    C     C_R   0.440607 0.484395 0.125439 -0.036277
C6    C     C_R   0.369720 0.457838 0.098548 -0.101386
C7    C     C_R   0.586379 0.538297 0.128457 -0.033360
C8    C     C_R   0.499586 0.499290 0.353351 -0.189197
C9    C     C_R   0.508651 0.501237 0.647087 -0.140993
C10   C     C_R   0.438529 0.518930 0.974185 -0.031304
C11   C     C_R   0.594314 0.532849 0.975631 0.052056
C12   C     C_R   0.499846 0.499707 0.405954 0.968651
C13   C     C_R   0.517387 0.524072 0.949558 0.055413
C14   C     C_R   0.362489 0.529833 0.947329 0.235442
C15   C     C_R   0.364886 0.526964 0.897278 -0.129841
C16   C     C_R   0.441900 0.518200 0.872803 -0.073370
C17   C     C_R   0.519012 0.520032 0.898610 -0.043717
C18   C     C_R   0.597230 0.517459 0.873482 -0.097637
C19   C     C_R   0.594778 0.502433 0.823152 0.596442
C20   C     C_R   0.443545 0.511368 0.822628 0.590513
C21   C     C_R   0.490057 0.420560 0.722657 -0.003133
C22   C     C_R   0.484449 0.424189 0.672286 -0.261298
C23   C     C_R   0.662148 0.500060 0.499903 0.913110
C24   C     C_R   0.540424 0.575932 0.672808 0.280164
C25   C     C_R   0.544313 0.573147 0.722737 -0.121947
C26   C     C_R   0.518984 0.497087 0.747753 0.179016
C27   C     C_R   0.439548 0.503713 0.024409 0.055893
C28   C     C_R   0.514964 0.520115 0.050732 0.083996
C29   C     C_R   0.591607 0.540436 0.026585 0.054310
C30   C     C_R   0.369680 0.466343 0.048702 -0.137136
C31   C     C_R   0.659951 0.565612 0.104553 -0.096797
C32   C     C_R   0.671469 0.533167 0.950030 -0.227389
C33   C     C_R   0.673991 0.527339 0.899787 -0.025611
C34   C     C_R   0.502473 0.500493 0.594325 0.906311
C35   C     C_R   0.662964 0.565877 0.054440 -0.189539
C36   C     C_3   0.049293 0.559673 0.537269 -0.408479
C37   C     C_3   0.049339 0.407983 0.500435 -0.407238
C38   C     C_3   0.952694 0.405554 0.492623 0.144195
C39   C     C_3   0.951739 0.555233 0.538998 0.108353
C40   C     C_1   0.750685 0.500360 0.497844 -0.019463
C41   C     C_3   0.082904 0.504887 0.493477 0.012988
C42   C     C_3   0.917191 0.503029 0.493790 -0.029101
C43   C     C_3   0.948489 0.552503 0.446648 0.287815
C44   C     C_3   0.050537 0.546493 0.443790 -0.255916
C45   C     C_1   0.825746 0.501271 0.495793 0.121037
C46   C     C_1   0.174368 0.501913 0.496009 0.024806
C47   C     C_R   0.440819 0.479557 0.175765 0.540174
C48   C     C_1   0.249405 0.500260 0.498215 -0.084880
C49   C     C_3   0.411602 0.052237 0.480352 0.052768
C50   C     C_3   0.412185 0.946861 0.479449 0.056226
C51   C     C_3   0.513881 0.053311 0.550812 0.045551
C52   C     C_3   0.512062 0.947965 0.551018 0.067601
C53   C     C_3   0.498457 0.090068 0.498820 -0.150530
C54   C     C_3   0.498444 0.909870 0.498860 -0.160277
C55   C     C_3   0.571086 0.946900 0.466106 0.047690
C56   C     C_3   0.569950 0.052254 0.465305 0.057679
C57   C     C_1   0.498473 0.809147 0.498904 0.292114
C58   C     C_1   0.498474 0.190838 0.498864 0.289671
C59   C     C_R   0.583030 0.534800 0.178849 0.539391
C60   C     C_R   0.561515 0.447470 0.278249 -0.087941
C61   C     C_R   0.558489 0.445163 0.328310 0.244529
C62   C     C_R   0.444043 0.556125 0.327478 -0.129783
H1    H     H_    0.606191 0.405542 0.258941 0.186942
H2    H     H_    0.716047 0.585793 0.124474 0.206210
H3    H     H_    0.731623 0.536945 0.968549 0.171637
H4    H     H_    0.566991 0.630965 0.742653 0.187003
H5    H     H_    0.721377 0.588775 0.038479 0.161272
H6    H     H_    0.076646 0.532989 0.571292 0.230986
H7    H     H_    0.064502 0.385414 0.537658 0.238454
H8    H     H_    0.081356 0.359171 0.476246 0.224462
H9    H     H_    0.069630 0.630507 0.535955 0.231524
H10   H     H_    0.408815 0.602043 0.256675 0.192722
H11   H     H_    0.939545 0.375673 0.456685 0.217978
H12   H     H_    0.927140 0.624624 0.539168 0.188652
H13   H     H_    0.360703 0.923911 0.503810 0.189269
H14   H     H_    0.361496 0.073578 0.506177 0.187519
H15   H     H_    0.578385 0.074476 0.562527 0.191009
H16   H     H_    0.574877 0.924884 0.564263 0.195678
H17   H     H_    0.555591 0.072725 0.427689 0.192364
H18   H     H_    0.559735 0.923105 0.428568 0.189253
H19   H     H_    0.314071 0.430152 0.115849 0.207823
H20   H     H_    0.461484 0.366344 0.652479 0.225191
H21   H     H_    0.305890 0.533552 0.877515 0.227387
H22   H     H_    0.315888 0.439422 0.029324 0.195668
N1    N     N_R   0.510893 0.505939 0.201323 -0.349520
N2    N     N_R   0.518993 0.501594 0.799212 -0.333249
N3    N     N_1   0.498630 0.731150 0.499030 -0.055959
N4    N     N_1   0.498630 0.268850 0.499030 -0.059772
O1    O     O_R   0.377210 0.574260 0.500050 -0.590326
O2    O     O_R   0.377210 0.425740 0.500050 -0.612298
O3    O     O_R   0.500080 0.574220 0.428810 -0.607298
O4    O     O_R   0.500080 0.425780 0.428810 -0.576398
O5    O     O_R   0.622930 0.574200 0.500050 -0.595730
O6    O     O_R   0.622930 0.425800 0.500050 -0.586618
O7    O     O_R   0.500060 0.574240 0.571300 -0.577492
O8    O     O_R   0.500060 0.425760 0.571300 -0.619650
O9    O     O_2   0.371712 0.448602 0.199084 -0.517465
O10   O     O_2   0.370409 0.513728 0.797237 -0.528966
O11   O     O_2   0.650875 0.560710 0.205239 -0.511112
O12   O     O_2   0.666523 0.486193 0.798142 -0.484034
Zn1   Zn    Zn3+2 0.500090 0.599130 0.500070 1.091472
Zn2   Zn    Zn3+2 0.500090 0.400870 0.500070 1.083000
C63   C     C_2   0.376724 0.610324 0.351207 1.010420
O13   O     O_2   0.356131 0.682297 0.334193 -0.549907
O14   O     O_R   0.334594 0.577991 0.391869 -0.787744
H23   H     H_    0.289846 0.620887 0.404358 0.374692
Br1   Br    Br    0.583567 0.682684 0.643216 -0.351600
C64   C     C_2   0.758417 0.538006 0.876998 1.017170
O15   O     O_2   0.769171 0.594327 0.845835 -0.543632
O16   O     O_R   0.826832 0.487018 0.893273 -0.766662
H24   H     H_    0.881496 0.501299 0.875658 0.372239
Br2   Br    Br    0.912910 0.510433 0.601353 -0.344706
Br3   Br    Br    0.899072 0.320358 0.536374 -0.310920
C65   C     C_2   0.088421 0.639930 0.434425 0.987457
O17   O     O_2   0.136968 0.675995 0.462991 -0.614422
O18   O     O_R   0.069366 0.682970 0.391033 -0.681375
H25   H     H_    0.098407 0.743155 0.388159 0.383341
C66   C     C_2   0.082370 0.486404 0.401747 0.972604
O19   O     O_2   0.138433 0.512539 0.374654 -0.554945
O20   O     O_R   0.049841 0.400382 0.394532 -0.784222
H26   H     H_    0.076877 0.368204 0.366158 0.384041
Br4   Br    Br    0.903694 0.676270 0.447676 -0.338673
Br5   Br    Br    0.890788 0.504732 0.388696 -0.305826
Br6   Br    Br    0.439289 0.110925 0.598524 -0.358188
Br7   Br    Br    0.432132 0.894869 0.597083 -0.335043
Br8   Br    Br    0.679992 0.109537 0.478331 -0.310951
Br9   Br    Br    0.681251 0.893509 0.482452 -0.320602
Br10  Br    Br    0.376514 0.108198 0.419597 -0.359793
Br11  Br    Br    0.381747 0.892056 0.417128 -0.344120
C67   C     C_2   0.466469 0.336631 0.747915 0.996259
O21   O     O_2   0.423728 0.279967 0.727117 -0.558433
O22   O     O_R   0.494174 0.320991 0.795051 -0.788148
H27   H     H_    0.473949 0.261488 0.807982 0.367617
Br12  Br    Br    0.256311 0.569544 0.974535 -0.428198
Br13  Br    Br    0.640132 0.370818 0.360425 -0.356508

loop_
_geom_bond_atom_site_label_1
_geom_bond_atom_site_label_2
_ccdc_geom_bond_type
C10   C27   A    
C21   C26   A    
C1    O2    A    
O8    Zn2   S    
C3    N1    S    
C59   O11   S    
C12   O3    A    
C55   C56   S    
C19   N2    A    
C59   N1    A    
C65   O17   D    
O18   H25   S    
C5    C47   A    
C50   C54   S    
C56   H17   S    
C60   H1    S    
C47   N1    A    
C52   Br7   S    
C28   C29   A    
C34   O8    A    
C38   C42   S    
C37   H7    S    
C5    C6    A    
C2    H10   S    
C9    C22   A    
C15   C16   A    
C64   O15   D    
C18   C19   A    
C39   H12   S    
C66   O19   D    
O2    Zn2   S    
N3    Zn1   S    
O22   H27   S    
C20   N2    A    
C41   C46   S    
C44   C66   S    
C36   H9    S    
C26   N2    S    
C8    C61   A    
C3    C60   A    
C44   C65   S    
C6    H19   S    
C21   C22   A    
C27   C30   A    
C37   C41   S    
C51   Br6   S    
C36   C41   S    
C33   C64   S    
O3    Zn1   S    
C4    C7    A    
C52   H16   S    
C7    C59   A    
C4    C28   A    
C52   C54   S    
C39   C42   S    
C40   C45   T    
C46   C48   T    
C7    C31   A    
C51   C52   S    
C34   O7    A    
C10   C14   A    
O5    Zn1   S    
O16   H24   S    
C38   Br3   S    
C16   C17   A    
C15   H21   S    
C14   Br12  S    
C25   C26   A    
C9    C24   A    
C57   N3    T    
C60   C61   A    
C51   C53   S    
C42   C45   S    
C67   O22   S    
C43   C44   S    
C51   H15   S    
C37   C38   S    
C50   Br11  S    
N4    Zn2   S    
C35   H5    S    
C8    C12   S    
C17   C18   A    
C49   H14   S    
C63   O14   S    
C24   Br1   S    
C16   C20   A    
C24   C25   A    
C43   Br4   S    
C11   C29   A    
C39   Br2   S    
C6    C30   A    
C55   Br9   S    
C11   C32   A    
C56   Br8   S    
C9    C34   S    
C41   C44   S    
C31   C35   A    
C42   C43   S    
C43   Br5   S    
C22   H20   S    
C63   O13   D    
O20   H26   S    
C61   Br13  S    
C62   C63   S    
C53   C56   S    
C49   Br10  S    
C54   C55   S    
C1    O1    A    
O1    Zn1   S    
C31   H2    S    
C12   O4    A    
C36   C39   S    
C25   H4    S    
C4    C5    A    
C10   C13   A    
C58   N4    T    
C65   O18   S    
C53   C58   S    
C36   H6    S    
C1    C48   S    
O4    Zn2   S    
O14   H23   S    
C29   C35   A    
C47   O9    S    
C23   O6    A    
C13   C17   A    
C23   O5    A    
C32   C33   A    
C2    C3    A    
C50   H13   S    
C19   O12   S    
C55   H18   S    
C11   C13   A    
C49   C53   S    
C64   O16   S    
C67   O21   D    
C30   H22   S    
C18   C33   A    
C66   O20   S    
C21   C67   S    
O7    Zn1   S    
C20   O10   S    
O6    Zn2   S    
C49   C50   S    
C27   C28   A    
C14   C15   A    
C37   H8    S    
C2    C62   A    
C38   H11   S    
C23   C40   S    
C8    C62   A    
C32   H3    S    
C54   C57   S    
