data_mof_unit_53665.cif
_audit_creation_date              2012-12-10T19:26:42-0500
_audit_creation_method            fapswitch 2.2
_symmetry_space_group_name_H-M    P1
_symmetry_Int_Tables_number       1
_space_group_crystal_system       triclinic
_cell_length_a                    19.172592
_cell_length_b                    10.48854
_cell_length_c                    9.752351
_cell_angle_alpha                 89.573692
_cell_angle_beta                  90.658315
_cell_angle_gamma                 89.706351
_cell_volume                      1960.91427155

loop_
_atom_site_label
_atom_site_type_symbol
_atom_type_description
_atom_site_fract_x
_atom_site_fract_y
_atom_site_fract_z
_atom_type_partial_charge
C1    C     C_R   0.499756 0.257482 0.500523 0.903807
C2    C     C_3   0.557169 0.042635 0.435964 -0.107608
C3    C     C_3   0.454196 0.421493 0.048290 -0.076880
C4    C     C_3   0.545783 0.578531 0.951744 -0.072869
C5    C     C_3   0.514456 0.387877 0.952611 -0.038897
C6    C     C_3   0.485513 0.612130 0.047431 -0.059793
C7    C     C_3   0.439682 0.533633 0.949814 -0.023875
C8    C     C_3   0.560293 0.466385 0.050231 -0.024566
C9    C     C_R   0.365698 0.502121 0.499079 0.968911
C10   C     C_R   0.634237 0.496844 0.500842 0.952005
C11   C     C_R   0.258362 0.416572 0.593758 -0.321991
C12   C     C_R   0.500208 0.742524 0.499468 0.905562
C13   C     C_R   0.744174 0.572371 0.407720 -0.325877
C14   C     C_R   0.186360 0.401036 0.594183 0.492977
C15   C     C_R   0.816659 0.576194 0.404319 0.489166
C16   C     C_R   0.145685 0.469071 0.496847 -0.135855
C17   C     C_R   0.854954 0.498061 0.496423 -0.116930
C18   C     C_R   0.177302 0.547949 0.399722 -0.256505
C19   C     C_R   0.820838 0.420223 0.590936 -0.267589
C20   C     C_R   0.249179 0.564002 0.399415 0.471344
C21   C     C_R   0.748493 0.415560 0.593942 0.394867
C22   C     C_R   0.290049 0.496450 0.497260 -0.247320
C23   C     C_3   0.500381 0.039142 0.631023 -0.126667
C24   C     C_R   0.709916 0.493983 0.502041 -0.229703
C25   C     C_R   0.930403 0.491670 0.495721 0.388709
C26   C     C_R   0.070100 0.468042 0.497986 0.381136
C27   C     C_3   0.499645 0.960883 0.368947 -0.171413
C28   C     C_3   0.557680 0.956703 0.565202 -0.135590
C29   C     C_3   0.442340 0.043316 0.434762 -0.177336
C30   C     C_3   0.500147 0.877651 0.498342 -0.011848
C31   C     C_3   0.499864 0.122365 0.501625 0.007876
C32   C     C_3   0.442846 0.957387 0.563995 -0.134602
H1    H     H_    0.290292 0.364075 0.667421 0.208865
H2    H     H_    0.499343 0.924929 0.262140 0.149917
H3    H     H_    0.396364 0.917729 0.615738 0.182130
H4    H     H_    0.603635 0.082274 0.384148 0.173461
H5    H     H_    0.526757 0.293499 0.907821 0.163754
H6    H     H_    0.473153 0.706462 0.092273 0.139754
H7    H     H_    0.415643 0.355516 0.094061 0.154427
H8    H     H_    0.584366 0.644467 0.906004 0.146551
H9    H     H_    0.096128 0.311106 0.906214 0.401961
H10   H     H_    0.949986 0.798691 0.290109 0.405081
H11   H     H_    0.367739 0.812212 0.282681 0.372852
H12   H     H_    0.713985 0.632309 0.337899 0.204923
H13   H     H_    0.715158 0.434590 0.880053 0.354821
H14   H     H_    0.388918 0.562023 0.902621 0.173024
H15   H     H_    0.611023 0.438045 0.097601 0.162624
H16   H     H_    0.145201 0.600608 0.326491 0.222807
H17   H     H_    0.851203 0.360137 0.660298 0.220921
H18   H     H_    0.604590 0.916635 0.617997 0.168696
H19   H     H_    0.395429 0.083359 0.381948 0.164845
H20   H     H_    0.500726 0.075139 0.737815 0.159773
N1    N     N_R   0.033714 0.459663 0.378487 -0.131949
N2    N     N_R   0.966715 0.499378 0.615274 -0.120454
N3    N     N_R   0.964729 0.470145 0.377558 -0.079670
N4    N     N_R   0.035679 0.488964 0.616167 -0.063456
N5    N     N_3   0.499950 0.500030 0.863290 -0.092288
N6    N     N_3   0.500050 0.499970 0.136710 -0.092695
O1    O     O_R   0.500000 0.313960 0.616610 -0.602494
O2    O     O_2   0.204762 0.201232 0.766120 -0.279714
O3    O     O_3   0.118182 0.375720 0.846390 -0.507079
O4    O     O_2   0.881022 0.609573 0.165567 -0.262364
O5    O     O_2   0.806235 0.784550 0.242123 -0.274016
O6    O     O_3   0.926090 0.752137 0.364626 -0.526029
O7    O     O_2   0.316177 0.601422 0.164012 -0.310686
O8    O     O_2   0.228662 0.761415 0.224644 -0.254656
O9    O     O_3   0.346560 0.761863 0.357609 -0.581677
O10   O     O_2   0.651848 0.235533 0.636067 -0.307335
O11   O     O_2   0.761930 0.210720 0.762216 -0.253474
O12   O     O_R   0.500000 0.686040 0.383390 -0.616628
O13   O     O_3   0.675638 0.385622 0.841298 -0.546671
O14   O     O_R   0.500030 0.313950 0.383350 -0.637861
O15   O     O_R   0.499970 0.686050 0.616650 -0.634155
O16   O     O_R   0.398120 0.499990 0.616660 -0.636879
O17   O     O_R   0.601880 0.500010 0.383340 -0.636597
O18   O     O_R   0.398150 0.499980 0.383410 -0.556357
O19   O     O_R   0.601850 0.500020 0.616590 -0.552698
O20   O     O_2   0.091857 0.219176 0.646936 -0.264029
S1    S     S_3+6 0.149904 0.292872 0.713770 0.062020
S2    S     S_3+6 0.857022 0.682883 0.288337 0.057328
S3    S     S_3+6 0.284689 0.673970 0.280468 0.043601
S4    S     S_3+6 0.709259 0.305918 0.708546 0.047891
Zn1   Zn    Zn3+2 0.499980 0.500010 0.655740 0.999818
Zn2   Zn    Zn3+2 0.500020 0.499990 0.344260 0.987424

loop_
_geom_bond_atom_site_label_1
_geom_bond_atom_site_label_2
_ccdc_geom_bond_type
O2    S1    D    
C5    H5    S    
C27   C29   S    
C6    N6    S    
H9    O3    S    
O16   Zn1   S    
C4    C8    S    
O18   Zn2   S    
O4    S2    D    
C19   C21   A    
O1    Zn1   S    
C29   C32   S    
C3    C7    S    
C1    O1    A    
C11   C14   A    
C9    C22   S    
H13   O13   S    
O19   Zn1   S    
C1    C31   S    
O11   S4    D    
C8    N6    S    
C28   H18   S    
C4    H8    S    
C4    N5    S    
N5    Zn1   S    
C2    C27   S    
C9    O18   A    
O12   Zn2   S    
O13   S4    S    
C3    H7    S    
C20   S3    S    
C27   C30   S    
O6    S2    S    
C10   O19   A    
O5    S2    D    
N1    N3    A    
C27   H2    S    
C16   C26   S    
N2    N4    A    
C1    O14   A    
C32   H3    S    
C11   H1    S    
C25   N2    A    
C4    C6    S    
O20   S1    D    
C10   C24   S    
C23   C28   S    
C13   C24   A    
C26   N4    A    
C2    C31   S    
C23   C31   S    
C7    H14   S    
N6    Zn2   S    
C10   O17   A    
C19   H17   S    
O7    S3    D    
C15   S2    S    
C6    H6    S    
C14   S1    S    
O14   Zn2   S    
H11   O9    S    
C20   C22   A    
O9    S3    S    
C13   C15   A    
C14   C16   A    
C9    O16   A    
C26   N1    A    
H10   O6    S    
C29   H19   S    
C2    H4    S    
C15   C17   A    
C12   O12   A    
C12   C30   S    
C25   N3    A    
C3    C5    S    
C18   H16   S    
C5    C8    S    
C6    C7    S    
C11   C22   A    
C5    N5    S    
O10   S4    D    
C23   C32   S    
C28   C30   S    
C8    H15   S    
C17   C25   S    
C29   C31   S    
O8    S3    D    
C30   C32   S    
C23   H20   S    
O3    S1    S    
C17   C19   A    
O15   Zn1   S    
C18   C20   A    
O17   Zn2   S    
C3    N6    S    
C21   S4    S    
C16   C18   A    
C21   C24   A    
C2    C28   S    
C12   O15   A    
C7    N5    S    
C13   H12   S    
