data_mof_unit_57118.cif
_audit_creation_date              2012-12-11T14:39:28-0500
_audit_creation_method            fapswitch 2.2
_symmetry_space_group_name_H-M    P1
_symmetry_Int_Tables_number       1
_space_group_crystal_system       triclinic
_cell_length_a                    7.192177
_cell_length_b                    14.138452
_cell_length_c                    16.251826
_cell_angle_alpha                 89.999889
_cell_angle_beta                  96.469296
_cell_angle_gamma                 90.000358
_cell_volume                      1642.06417759

loop_
_atom_site_label
_atom_site_type_symbol
_atom_type_description
_atom_site_fract_x
_atom_site_fract_y
_atom_site_fract_z
_atom_type_partial_charge
O1    O     O_R   0.525340 0.338340 0.164530 -0.533715
O2    O     O_R   0.474660 0.661660 0.835470 -0.534335
O3    O     O_R   0.974660 0.838340 0.835470 -0.533715
O4    O     O_R   0.025340 0.161660 0.164530 -0.534336
O5    O     O_R   0.253520 0.352000 0.336710 -0.542026
O6    O     O_R   0.746480 0.648000 0.663290 -0.542128
O7    O     O_R   0.246480 0.852000 0.663290 -0.542027
O8    O     O_R   0.753520 0.148000 0.336710 -0.542130
O9    O     O_R   0.083330 0.168380 0.337300 -0.533713
O10   O     O_R   0.916670 0.831620 0.662700 -0.531641
O11   O     O_R   0.416670 0.668380 0.662700 -0.533715
O12   O     O_R   0.583330 0.331620 0.337300 -0.531643
C1    C     C_R   0.431652 0.368748 0.363851 0.695415
C2    C     C_R   0.568336 0.631385 0.636101 0.689317
C3    C     C_R   0.068349 0.868748 0.636150 0.695415
C4    C     C_R   0.931663 0.131385 0.363899 0.689317
O13   O     O_R   0.195840 0.349670 0.165140 -0.544868
O14   O     O_R   0.804160 0.650330 0.834860 -0.546762
O15   O     O_R   0.304160 0.849670 0.834860 -0.544868
O16   O     O_R   0.695840 0.150330 0.165140 -0.546762
C5    C     C_R   0.358070 0.368258 0.135025 0.742837
C6    C     C_R   0.639742 0.625045 0.859723 0.738664
C7    C     C_R   0.141931 0.868258 0.864975 0.742835
C8    C     C_R   0.860258 0.125045 0.140276 0.738664
O17   O     O_3   0.387830 0.193120 0.250910 -0.377731
O18   O     O_3   0.612170 0.806880 0.749090 -0.374222
O19   O     O_3   0.112170 0.693120 0.749090 -0.377731
O20   O     O_3   0.887830 0.306880 0.250910 -0.374222
V1    V     V_3+5 0.113010 0.264540 0.250910 1.391716
V2    V     V_3+5 0.886990 0.735460 0.749090 1.388823
V3    V     V_3+5 0.386990 0.764540 0.749090 1.391714
V4    V     V_3+5 0.613010 0.235460 0.250910 1.388822
C9    C     C_R   0.057017 0.196254 0.528816 -0.196839
C10   C     C_R   0.943025 0.804020 0.471008 -0.197502
C11   C     C_R   0.442970 0.696253 0.471184 -0.196835
C12   C     C_R   0.557007 0.304022 0.528990 -0.197504
C13   C     C_R   0.118664 0.229667 0.607816 -0.098201
C14   C     C_R   0.882089 0.770726 0.391848 -0.097734
C15   C     C_R   0.381332 0.729667 0.392182 -0.098204
C16   C     C_R   0.617962 0.270730 0.608147 -0.097737
C17   C     C_R   0.153338 0.166791 0.673962 0.214445
C18   C     C_R   0.848453 0.833704 0.325697 0.217647
C19   C     C_R   0.346672 0.666791 0.326036 0.214450
C20   C     C_R   0.651592 0.333708 0.674299 0.217643
C21   C     C_R   0.125342 0.069809 0.660380 -0.160218
C22   C     C_R   0.876376 0.930588 0.339447 -0.163837
C23   C     C_R   0.374665 0.569809 0.339620 -0.160213
C24   C     C_R   0.623641 0.430589 0.660551 -0.163835
C25   C     C_R   0.064038 0.034073 0.580495 0.024106
C26   C     C_R   0.936638 0.966193 0.419462 0.023819
C27   C     C_R   0.435961 0.534072 0.419505 0.024106
C28   C     C_R   0.563370 0.466194 0.580537 0.023820
C29   C     C_R   0.029417 0.098386 0.513542 0.056816
C30   C     C_R   0.970800 0.901857 0.486416 0.056617
C31   C     C_R   0.470575 0.598385 0.486458 0.056818
C32   C     C_R   0.529214 0.401857 0.513584 0.056618
C33   C     C_R   0.034357 0.935972 0.566761 -0.151746
C34   C     C_R   0.965800 0.064243 0.433261 -0.149771
C35   C     C_R   0.465646 0.435972 0.433239 -0.151747
C36   C     C_R   0.534197 0.564243 0.566739 -0.149773
C37   C     C_2   0.142690 0.932033 0.937647 -0.336451
C38   C     C_2   0.862067 0.051016 0.075550 -0.337737
C39   C     C_2   0.357311 0.432033 0.062352 -0.336450
C40   C     C_2   0.637932 0.551016 0.924449 -0.337737
C41   C     C_2   0.005968 0.932755 0.990090 0.170016
C42   C     C_2   0.017759 0.000980 0.060251 0.158356
C43   C     C_2   0.494031 0.432754 0.009909 0.170015
C44   C     C_2   0.482239 0.500979 0.939748 0.158359
C45   C     C_3   0.783426 0.798636 0.240095 -0.820122
H1    H     H_    0.886696 0.818771 0.197281 0.214484
H2    H     H_    0.767371 0.720483 0.238714 0.211690
H3    H     H_    0.646096 0.830977 0.218054 0.213370
C46   C     C_3   0.219738 0.202203 0.759323 -0.814272
H4    H     H_    0.117531 0.182151 0.802643 0.208925
H5    H     H_    0.357505 0.170083 0.780918 0.213819
H6    H     H_    0.235474 0.280395 0.760486 0.212211
C47   C     C_3   0.716651 0.298641 0.759897 -0.820118
H7    H     H_    0.613368 0.318749 0.802713 0.214484
H8    H     H_    0.732772 0.220491 0.761275 0.211693
H9    H     H_    0.853957 0.331010 0.781937 0.213366
C48   C     C_3   0.280299 0.702204 0.240672 -0.814272
H10   H     H_    0.382517 0.682149 0.197359 0.208927
H11   H     H_    0.142532 0.670087 0.219069 0.213815
H12   H     H_    0.264572 0.780397 0.239508 0.212210
H13   H     H_    0.030417 0.248264 0.480080 0.127672
H14   H     H_    0.969075 0.751962 0.519734 0.127501
H15   H     H_    0.469562 0.748263 0.519920 0.127673
H16   H     H_    0.530963 0.251964 0.480264 0.127504
H17   H     H_    0.138806 0.304999 0.617235 0.128223
H18   H     H_    0.861918 0.695420 0.382296 0.128795
H19   H     H_    0.361190 0.804999 0.382763 0.128221
H20   H     H_    0.638154 0.195426 0.617698 0.128798
H21   H     H_    0.151539 0.022985 0.713122 0.110477
H22   H     H_    0.851035 0.977438 0.286683 0.108991
H23   H     H_    0.348478 0.522985 0.286877 0.110475
H24   H     H_    0.648976 0.477439 0.713316 0.108992
C49   C     C_3   0.202051 0.005908 0.115443 -0.694865
H25   H     H_    0.296811 0.947377 0.101633 0.177538
H26   H     H_    0.274804 0.073458 0.105365 0.216772
H27   H     H_    0.178240 0.998250 0.181487 0.199880
C50   C     C_3   0.846753 0.861852 0.984461 -0.709826
H28   H     H_    0.772221 0.864044 0.040684 0.181598
H29   H     H_    0.742797 0.877991 0.930508 0.217457
H30   H     H_    0.901490 0.788792 0.979984 0.197125
C51   C     C_3   0.297948 0.505906 0.884556 -0.694866
H31   H     H_    0.203188 0.447375 0.898366 0.177538
H32   H     H_    0.225195 0.573456 0.894634 0.216771
H33   H     H_    0.321759 0.498249 0.818512 0.199879
C52   C     C_3   0.653243 0.361850 0.015537 -0.709827
H34   H     H_    0.727772 0.364042 0.959313 0.181598
H35   H     H_    0.757202 0.377990 0.069490 0.217457
H36   H     H_    0.598504 0.288791 0.020016 0.197124
H37   H     H_    0.730779 0.038588 0.037040 0.113525
H38   H     H_    0.260007 0.980537 0.948900 0.111616
H39   H     H_    0.769219 0.538588 0.962959 0.113525
H40   H     H_    0.239994 0.480537 0.051100 0.111616

loop_
_geom_bond_atom_site_label_1
_geom_bond_atom_site_label_2
_ccdc_geom_bond_type
O1    C5    A    
C50   H28   S    
C45   H3    S    
O13   V1    S    
C46   H4    S    
O3    C7    A    
C41   C50   S    
O15   V3    S    
C48   H12   S    
C49   H25   S    
C47   H7    S    
C12   H16   S    
C51   H32   S    
C26   C30   A    
C40   C44   D    
C42   C49   S    
O20   V1    S    
O9    C4    A    
C14   C18   A    
O10   C3    A    
C52   H35   S    
C18   C22   A    
O4    C8    A    
O11   C2    A    
C47   H9    S    
C23   H23   S    
C25   C33   A    
C10   H14   S    
C45   H2    S    
C9    H13   S    
C28   C36   A    
C49   H26   S    
C11   H15   S    
C43   C52   S    
O16   C8    A    
O2    C6    A    
O14   V2    S    
C16   C20   A    
O5    C1    A    
O4    V1    S    
O9    V1    S    
O17   V4    S    
O7    C3    A    
O11   V3    S    
O18   V3    S    
C50   H29   S    
C40   H39   S    
O14   C6    A    
C31   C36   A    
O12   V4    S    
O19   V2    S    
C3    C33   S    
C15   H19   S    
C48   H11   S    
C48   H10   S    
O5    V1    S    
C47   H8    S    
C9    C29   A    
C51   H33   S    
C39   C43   D    
O7    V3    S    
C38   C42   D    
C11   C31   A    
C43   C44   S    
O8    V4    S    
C12   C16   A    
C38   H37   S    
C52   H36   S    
O15   C7    A    
C23   C27   A    
C17   C46   S    
C18   C45   S    
O13   C5    A    
O2    V3    S    
C26   C34   A    
O3    V2    S    
C11   C15   A    
C12   C32   A    
O6    C2    A    
O10   V2    S    
C22   H22   S    
C21   C25   A    
C4    C34   S    
C16   H20   S    
C39   H40   S    
O6    V2    S    
C21   H21   S    
C10   C30   A    
C50   H30   S    
C19   C48   S    
C46   H6    S    
C27   C35   A    
C44   C51   S    
C46   H5    S    
C49   H27   S    
O16   V4    S    
C7    C37   S    
C14   H18   S    
C20   C47   S    
C8    C38   S    
C24   H24   S    
C10   C14   A    
C15   C19   A    
C29   C34   A    
C1    C35   S    
C2    C36   S    
C51   H31   S    
C22   C26   A    
C32   C35   A    
C13   H17   S    
C52   H34   S    
C28   C32   A    
C25   C29   A    
C27   C31   A    
O1    V4    S    
C13   C17   A    
C45   H1    S    
C9    C13   A    
C5    C39   S    
C6    C40   S    
C37   C41   D    
C24   C28   A    
O12   C1    A    
O8    C4    A    
C41   C42   S    
C37   H38   S    
C17   C21   A    
C19   C23   A    
C20   C24   A    
C30   C33   A    
