data_mof_unit_67674.cif
_audit_creation_date              2013-03-05T16:48:48-0500
_audit_creation_method            fapswitch 2.2
_symmetry_space_group_name_H-M    P1
_symmetry_Int_Tables_number       1
_space_group_crystal_system       triclinic
_cell_length_a                    11.451354
_cell_length_b                    11.367836
_cell_length_c                    13.383091
_cell_angle_alpha                 91.552042
_cell_angle_beta                  91.474523
_cell_angle_gamma                 87.88832
_cell_volume                      1739.81679283

loop_
_atom_site_label
_atom_site_type_symbol
_atom_site_description
_atom_site_fract_x
_atom_site_fract_y
_atom_site_fract_z
_atom_type_partial_charge
O1    O     O_R   0.499980 0.319630 0.578260 -0.519176
O2    O     O_R   0.500020 0.680370 0.421740 -0.522865
O3    O     O_R   0.500000 0.319650 0.421740 -0.589809
O4    O     O_R   0.500000 0.680350 0.578260 -0.581105
C1    C     C_R   0.501070 0.260001 0.499061 0.932629
C2    C     C_R   0.501910 0.740644 0.500575 0.890624
O5    O     O_R   0.319630 0.500000 0.578260 -0.601533
O6    O     O_R   0.680370 0.500000 0.421740 -0.590252
O7    O     O_R   0.319650 0.500020 0.421740 -0.527700
O8    O     O_R   0.680350 0.499980 0.578260 -0.543312
C3    C     C_R   0.259728 0.492619 0.497887 0.859695
C4    C     C_R   0.740515 0.500379 0.501920 0.878838
Cu1   Cu    Cu3+1 0.499990 0.499990 0.592680 1.100180
Cu2   Cu    Cu3+1 0.500010 0.500010 0.407320 1.103302
C5    C     C_R   0.203294 0.576207 0.171729 0.257834
C6    C     C_R   0.801034 0.398022 0.828061 0.205404
C7    C     C_R   0.165115 0.576321 0.270139 0.306009
C8    C     C_R   0.839950 0.399948 0.728822 0.363007
C9    C     C_R   0.095512 0.485438 0.301759 -0.216449
C10   C     C_R   0.900431 0.496306 0.695800 -0.241381
C11   C     C_R   0.048926 0.404806 0.228651 0.194221
C12   C     C_R   0.928371 0.589624 0.763400 0.224357
C13   C     C_R   0.084884 0.408614 0.128392 0.237609
C14   C     C_R   0.884885 0.592327 0.860315 0.281308
C15   C     C_R   0.165158 0.492051 0.101547 0.094841
C16   C     C_R   0.820014 0.497818 0.893095 0.095248
C17   C     C_R   0.929957 0.501236 0.413952 -0.211807
C18   C     C_R   0.069641 0.487913 0.585963 -0.211757
H1    H     H_    0.876829 0.510666 0.346194 0.186309
H2    H     H_    0.122142 0.485209 0.654544 0.180149
C19   C     C_R   0.873406 0.497638 0.504947 -0.084571
C20   C     C_R   0.126541 0.488841 0.494483 -0.091526
C21   C     C_R   0.946247 0.492389 0.593061 0.183078
C22   C     C_R   0.052891 0.489103 0.405907 0.150162
H3    H     H_    0.494844 0.254923 0.046472 0.186518
H4    H     H_    0.546127 0.768707 0.958296 0.232687
C23   C     C_R   0.397877 0.234778 0.179618 -0.215593
C24   C     C_R   0.622356 0.769993 0.812876 -0.151752
H5    H     H_    0.325748 0.290961 0.154582 0.148197
H6    H     H_    0.690210 0.706956 0.831152 0.220699
C25   C     C_R   0.395608 0.184851 0.273843 0.483608
C26   C     C_R   0.618368 0.818898 0.718350 0.430424
C27   C     C_R   0.495385 0.120120 0.310080 -0.022323
C28   C     C_R   0.517676 0.887748 0.688985 -0.056180
C29   C     C_R   0.597282 0.114413 0.253343 0.421612
C30   C     C_R   0.426645 0.907882 0.757586 0.399968
C31   C     C_R   0.595189 0.160686 0.158243 -0.189466
C32   C     C_R   0.443250 0.871933 0.855243 -0.238888
H7    H     H_    0.674419 0.157004 0.117183 0.190178
H8    H     H_    0.380165 0.900261 0.908448 0.188186
C33   C     C_R   0.494872 0.217509 0.119850 -0.293877
C34   C     C_R   0.538619 0.800835 0.883047 -0.286740
C35   C     C_R   0.502903 0.935379 0.408243 0.262372
C36   C     C_R   0.512014 0.067221 0.588727 0.338159
C37   C     C_R   0.504730 0.874223 0.499946 -0.273825
C38   C     C_R   0.501066 0.127768 0.498105 -0.198809
C39   C     C_R   0.509286 0.942645 0.589993 -0.101208
C40   C     C_R   0.496260 0.060765 0.407695 -0.100347
N1    N     N_1   0.500030 0.500030 0.268070 -0.129957
N2    N     N_1   0.499970 0.499970 0.731930 -0.132672
C41   C     C_1   0.499505 0.500349 0.174191 0.279546
C42   C     C_1   0.499106 0.499750 0.825779 0.267840
C43   C     C_1   0.498200 0.500115 0.050677 0.090860
C44   C     C_1   0.498190 0.499750 0.949220 0.099504
N3    N     N_R   0.205752 0.493593 0.001623 0.150623
O9    O     O_R   0.172595 0.577127 0.941933 -0.384987
O10   O     O_R   0.281038 0.413499 0.971288 -0.439943
N4    N     N_R   0.761828 0.513037 0.986445 0.109323
O11   O     O_R   0.700684 0.609889 0.002260 -0.427534
O12   O     O_R   0.802509 0.457692 0.064214 -0.369407
N5    N     N_R   0.706271 0.072656 0.295616 0.144044
O13   O     O_R   0.744683 0.121856 0.378255 -0.376532
O14   O     O_R   0.778059 0.009152 0.241024 -0.400358
N6    N     N_R   0.312627 0.953331 0.728614 0.088981
O15   O     O_R   0.297966 0.039940 0.667962 -0.423157
O16   O     O_R   0.220954 0.904438 0.761679 -0.369632
N7    N     N_R   0.511905 0.871174 0.314495 0.142984
O17   O     O_R   0.435741 0.891289 0.242903 -0.437117
O18   O     O_R   0.607811 0.811663 0.293708 -0.352347
N8    N     N_R   0.533509 0.130985 0.681214 0.130023
O19   O     O_R   0.639355 0.135876 0.716728 -0.395922
O20   O     O_R   0.450138 0.189092 0.727472 -0.324720
O21   O     O_3   0.278855 0.660098 0.143025 -0.554443
C45   C     C_3   0.217863 0.770122 0.136820 0.167091
H9    H     H_    0.238186 0.824600 0.204035 0.197366
H10   H     H_    0.121462 0.763860 0.132206 0.069285
C46   C     C_3   0.259366 0.832275 0.046436 -0.301430
H11   H     H_    0.347800 0.864631 0.065241 0.237409
H12   H     H_    0.267519 0.767857 0.982996 0.281980
C47   C     C_3   0.178039 0.934983 0.014183 -0.972474
H13   H     H_    0.104436 0.951237 0.064878 0.243208
H14   H     H_    0.139652 0.916434 0.938817 0.320558
H15   H     H_    0.228398 0.016313 0.012045 0.250576
O22   O     O_3   0.731136 0.305368 0.852134 -0.527021
C48   C     C_3   0.768060 0.253037 0.942902 0.132574
H16   H     H_    0.705704 0.282376 0.000906 0.186780
H17   H     H_    0.856598 0.277532 0.967682 0.189638
C49   C     C_3   0.772649 0.117975 0.934735 -0.404718
H18   H     H_    0.827649 0.086738 0.871969 0.211912
H19   H     H_    0.817062 0.082912 0.003196 0.185623
C50   C     C_3   0.652080 0.065281 0.923522 -0.639103
H20   H     H_    0.631731 0.015403 0.990650 0.218718
H21   H     H_    0.652917 0.002219 0.859489 0.260977
H22   H     H_    0.581598 0.133124 0.910137 0.285905
O23   O     O_3   0.209564 0.658996 0.336678 -0.537467
C51   C     C_3   0.122887 0.741903 0.367692 0.035288
H23   H     H_    0.063080 0.706470 0.421990 0.187556
H24   H     H_    0.069059 0.773913 0.303804 0.085490
C52   C     C_3   0.185857 0.843535 0.417514 -0.447737
H25   H     H_    0.265444 0.858319 0.374997 0.258387
H26   H     H_    0.129732 0.924598 0.417095 0.185711
C53   C     C_3   0.222692 0.817701 0.524506 -0.651026
H27   H     H_    0.148734 0.830296 0.575076 0.306399
H28   H     H_    0.287934 0.881238 0.547792 0.255152
H29   H     H_    0.261798 0.727888 0.531474 0.257055
O24   O     O_3   0.804650 0.315993 0.658328 -0.534911
C54   C     C_3   0.869770 0.209270 0.669004 0.170594
H30   H     H_    0.818828 0.139350 0.631168 0.194637
H31   H     H_    0.883134 0.185103 0.747682 0.137651
C55   C     C_3   0.986518 0.209145 0.617184 -0.500701
H32   H     H_    0.971695 0.228936 0.536977 0.286295
H33   H     H_    0.043047 0.275773 0.653151 0.222905
C56   C     C_3   0.048680 0.089563 0.626862 -0.786568
H34   H     H_    0.088767 0.083051 0.702241 0.310735
H35   H     H_    0.115186 0.077118 0.568396 0.284506
H36   H     H_    0.987071 0.017646 0.621001 0.238636
N9    N     N_R   0.964858 0.319772 0.255455 0.163871
O25   O     O_R   0.970235 0.272467 0.342882 -0.383734
O26   O     O_R   0.883819 0.286475 0.192114 -0.302755
N10   N     N_R   0.998554 0.684890 0.734159 0.167578
O27   O     O_R   0.997703 0.718872 0.642416 -0.438919
O28   O     O_R   0.066457 0.736960 0.799373 -0.286958
O29   O     O_3   0.026013 0.345111 0.054397 -0.557277
C57   C     C_3   0.095441 0.250703 0.014228 0.099120
H37   H     H_    0.054769 0.167210 0.032825 0.137542
H38   H     H_    0.185997 0.245169 0.045445 0.140392
C58   C     C_3   0.096109 0.258716 0.900015 -0.367327
H39   H     H_    0.016655 0.218761 0.867734 0.158354
H40   H     H_    0.093300 0.352025 0.877401 0.268704
C59   C     C_3   0.202925 0.195216 0.855161 -0.708849
H41   H     H_    0.191501 0.099347 0.856110 0.265327
H42   H     H_    0.285134 0.214726 0.896837 0.283438
H43   H     H_    0.212043 0.222803 0.776965 0.286137
O30   O     O_3   0.879880 0.700808 0.911010 -0.572876
C60   C     C_3   0.942526 0.698560 0.003021 0.195844
H44   H     H_    0.028252 0.735690 0.989853 0.183780
H45   H     H_    0.959923 0.608579 0.031788 0.177975
C61   C     C_3   0.878974 0.778516 0.080940 -0.312878
H46   H     H_    0.929646 0.858602 0.096270 0.166058
H47   H     H_    0.791836 0.809678 0.051637 0.281284
C62   C     C_3   0.862910 0.716873 0.179646 -0.743452
H48   H     H_    0.791452 0.653944 0.172836 0.323100
H49   H     H_    0.839711 0.782744 0.238902 0.278407
H50   H     H_    0.944077 0.668243 0.202992 0.178075
O31   O     O_3   0.304602 0.218974 0.335622 -0.620364
C63   C     C_3   0.225794 0.127450 0.341706 0.050924
H51   H     H_    0.161006 0.155243 0.398662 0.205430
H52   H     H_    0.271336 0.047463 0.369127 0.133063
C64   C     C_3   0.163294 0.103505 0.240870 -0.415018
H53   H     H_    0.144392 0.188504 0.205714 0.236987
H54   H     H_    0.223304 0.051583 0.191659 0.216808
C65   C     C_3   0.048988 0.039915 0.248663 -0.731486
H55   H     H_    0.065541 0.944545 0.240135 0.193891
H56   H     H_    0.988221 0.066597 0.186785 0.285567
H57   H     H_    0.005694 0.058779 0.320676 0.309026
O32   O     O_3   0.698763 0.774626 0.650380 -0.608040
C66   C     C_3   0.768440 0.862953 0.614131 0.057196
H58   H     H_    0.847608 0.869823 0.662819 0.212959
H59   H     H_    0.726692 0.952284 0.614161 0.132735
C67   C     C_3   0.800001 0.827088 0.506840 -0.280416
H60   H     H_    0.833361 0.734463 0.503600 0.230453
H61   H     H_    0.721792 0.833144 0.457533 0.242464
C68   C     C_3   0.891003 0.903996 0.465784 -0.876845
H62   H     H_    0.974751 0.881380 0.503234 0.263229
H63   H     H_    0.868802 0.998205 0.480102 0.303030
H64   H     H_    0.899281 0.886854 0.384439 0.274840

loop_
_geom_bond_atom_site_label_1
_geom_bond_atom_site_label_2
_geom_bond_distance
_ccdc_geom_bond_type
C46   H11   1.110615 S    
C50   H20   1.109492 S    
C17   H1    1.084433 S    
C1    C38   1.502913 S    
N10   O28   1.299129 A    
C48   H16   1.104835 S    
C45   C46   1.512904 S    
C2    C37   1.520294 S    
C57   C58   1.533923 S    
C53   H28   1.092038 S    
C60   H44   1.102885 S    
C48   C49   1.535351 S    
C56   H34   1.100734 S    
C66   H59   1.106348 S    
Cu1   N2    1.863608 S    
N7    O17   1.298141 A    
O5    C3    1.263311 A    
Cu2   N1    1.863609 S    
C58   H40   1.110012 S    
N6    O16   1.298853 A    
O1    C1    1.242662 A    
C63   H51   1.109082 S    
C9    C11   1.429225 A    
C59   H42   1.108235 S    
C24   C26   1.394540 A    
C54   H31   1.100859 S    
C23   C33   1.390403 A    
C5    C15   1.396113 A    
C24   C34   1.388552 A    
C67   H60   1.106913 S    
O24   C54   1.409125 S    
C67   C68   1.508264 S    
N2    C42   1.256349 T    
C29   C31   1.389569 A    
O4    Cu1   2.064567 S    
C41   C43   1.652617 S    
C42   C44   1.652326 S    
C27   C40   1.486139 S    
C46   H12   1.109586 S    
C11   C13   1.415867 A    
O21   C45   1.413259 S    
C55   H33   1.106686 S    
N4    O11   1.298247 A    
N3    O10   1.295071 A    
C62   H48   1.106987 S    
C64   H54   1.107578 S    
C38   C40   1.413139 A    
C11   N9    1.447419 S    
C36   N8    1.437680 S    
H4    C34   1.080794 S    
C55   C56   1.518192 S    
C35   C37   1.426092 A    
C50   H21   1.102281 S    
Cu1   Cu2   2.480702 S    
C12   N10   1.440542 S    
C25   C27   1.418102 A    
O2    C2    1.242520 A    
C26   C28   1.422461 A    
C53   H27   1.100509 S    
C60   H45   1.112009 S    
C28   C30   1.414998 A    
C66   C67   1.530606 S    
C65   H56   1.109229 S    
C68   H63   1.104363 S    
C17   C22   1.416020 A    
C6    C16   1.430634 A    
C64   C65   1.525663 S    
C58   C59   1.525408 S    
C36   C38   1.411163 A    
N1    C41   1.256354 T    
N6    O15   1.296338 A    
C13   O29   1.385295 S    
C17   C19   1.396182 A    
C18   C20   1.402066 A    
C61   C62   1.530369 S    
C15   N3    1.427803 S    
C59   H41   1.102879 S    
N8    O20   1.301097 A    
C52   C53   1.515606 S    
C8    O24   1.387203 S    
C66   H58   1.106636 S    
N5    O14   1.299747 A    
N8    O19   1.293053 A    
C56   H36   1.099299 S    
C5    O21   1.379673 S    
C68   H62   1.095945 S    
C9    C22   1.487629 S    
C20   C22   1.437046 A    
C35   N7    1.438392 S    
O7    Cu2   2.079297 S    
N9    O26   1.300413 A    
C57   H38   1.108228 S    
C7    O23   1.379119 S    
C65   H57   1.107336 S    
O7    C3    1.249537 A    
C47   H14   1.107941 S    
C64   H53   1.098103 S    
O5    Cu1   2.069410 S    
C28   C39   1.479073 S    
O6    C4    1.260067 A    
C19   C21   1.428092 A    
N7    O18   1.300770 A    
C45   H9    1.102976 S    
C59   H43   1.109151 S    
C27   C29   1.407002 A    
O3    Cu2   2.064567 S    
O8    C4    1.247084 A    
C62   H50   1.106207 S    
C10   C21   1.483192 S    
O4    C2    1.261766 A    
C10   C12   1.415740 A    
C3    C20   1.526834 S    
C49   H18   1.105881 S    
C50   H22   1.110181 S    
C49   H19   1.112589 S    
C37   C39   1.417381 A    
C4    C19   1.520466 S    
H3    C33   1.080675 S    
O32   C66   1.409086 S    
C12   C14   1.400412 A    
C54   C55   1.521789 S    
O1    Cu1   2.054160 S    
N9    O25   1.299965 A    
C30   N6    1.434270 S    
C60   C61   1.543427 S    
C55   H32   1.110200 S    
C47   H15   1.108927 S    
C65   H55   1.097096 S    
O23   C51   1.405984 S    
C68   H64   1.106606 S    
C5    C7    1.398298 A    
O6    Cu2   2.069407 S    
C63   C64   1.533692 S    
C14   C16   1.414097 A    
C61   H47   1.111910 S    
O30   C60   1.409436 S    
O3    C1    1.251995 A    
O8    Cu1   2.079297 S    
C18   C21   1.417605 A    
C31   C33   1.390621 A    
C35   C40   1.424804 A    
C48   H17   1.101812 S    
C57   H37   1.109533 S    
C31   H7    1.071686 S    
C49   C50   1.527422 S    
C58   H39   1.104705 S    
C6    O22   1.395585 S    
C16   N4    1.434340 S    
C63   H52   1.098514 S    
N10   O27   1.296773 A    
N5    O13   1.299633 A    
C23   H5    1.077438 S    
C52   H25   1.107148 S    
C24   H6    1.065715 S    
C47   H13   1.102720 S    
O29   C57   1.414475 S    
C51   H24   1.103015 S    
C14   O30   1.391343 S    
C52   H26   1.103964 S    
C32   H8    1.062771 S    
C7    C9    1.408348 A    
C18   H2    1.084703 S    
C8    C10   1.404540 A    
C61   H46   1.109189 S    
C62   H49   1.106431 S    
C23   C25   1.398052 A    
O22   C48   1.415091 S    
O2    Cu2   2.054157 S    
C56   H35   1.108599 S    
C43   C44   1.357698 T    
C30   C32   1.386261 A    
C32   C34   1.383736 A    
C13   C15   1.404797 A    
C6    C8    1.412711 A    
N3    O9    1.297281 A    
C51   H23   1.105052 S    
C46   C47   1.530801 S    
O31   C63   1.407526 S    
N4    O12   1.298081 A    
C45   H10   1.108851 S    
C29   N5    1.427453 S    
C67   H61   1.099905 S    
C54   H30   1.107079 S    
C36   C39   1.418220 A    
C53   H29   1.104962 S    
C26   O32   1.382919 S    
C25   O31   1.384659 S    
C51   C52   1.514680 S    
