data_mof_unit_33537.cif
_audit_creation_date              2012-12-10T17:57:27-0500
_audit_creation_method            fapswitch 2.2
_symmetry_space_group_name_H-M    P1
_symmetry_Int_Tables_number       1
_space_group_crystal_system       triclinic
_cell_length_a                    9.570729
_cell_length_b                    10.799753
_cell_length_c                    13.455006
_cell_angle_alpha                 91.143131
_cell_angle_beta                  73.740962
_cell_angle_gamma                 90.736678
_cell_volume                      1334.80444336

loop_
_atom_site_label
_atom_site_type_symbol
_atom_type_description
_atom_site_fract_x
_atom_site_fract_y
_atom_site_fract_z
_atom_type_partial_charge
C1    C     C_R   0.500607 0.737729 0.499621 0.779022
C2    C     C_R   0.447153 0.475206 0.973042 0.086859
C3    C     C_R   0.458412 0.528939 0.875759 0.089709
C4    C     C_R   0.539245 0.520489 0.032650 0.077180
C5    C     C_R   0.640675 0.617239 0.993524 0.171843
C6    C     C_R   0.641742 0.674177 0.901332 -0.258186
C7    C     C_R   0.549229 0.632573 0.844567 -0.226054
C8    C     C_R   0.530404 0.476254 0.131691 -0.252052
C9    C     C_R   0.725374 0.613589 0.147048 -0.192695
C10   C     C_R   0.378627 0.477575 0.811041 -0.095483
C11   C     C_R   0.630297 0.936592 0.456798 -0.191215
C12   C     C_R   0.422586 0.499023 0.699432 0.775055
C13   C     C_R   0.630050 0.064791 0.457462 -0.185187
C14   C     C_R   0.499184 0.128406 0.497860 -0.009713
C15   C     C_R   0.368537 0.063434 0.537095 -0.193048
C16   C     C_R   0.369269 0.935255 0.537820 -0.180859
C17   C     C_R   0.500509 0.871643 0.498599 -0.009156
C18   C     C_R   0.906604 0.587980 0.555042 0.367126
C19   C     C_R   0.054796 0.586136 0.555839 -0.139356
C20   C     C_R   0.093954 0.411994 0.444586 0.362991
C21   C     C_R   0.944642 0.412247 0.445744 -0.136091
C22   C     C_R   0.499583 0.262294 0.499269 0.786162
C23   C     C_R   0.577092 0.503113 0.300783 0.794760
C24   C     C_R   0.736226 0.659647 0.049288 -0.194549
C25   C     C_R   0.618084 0.525675 0.189890 -0.042802
C26   C     C_R   0.273297 0.385907 0.848536 -0.184562
C27   C     C_R   0.256622 0.336765 0.945598 -0.145453
C28   C     C_R   0.345974 0.377061 0.005566 -0.192073
Cu1   Cu    Cu3+1 0.359340 0.499980 0.500000 0.960104
Cu2   Cu    Cu3+1 0.640660 0.500020 0.500000 0.962210
H1    H     H_    0.793180 0.653225 0.192062 0.148286
H2    H     H_    0.731480 0.114042 0.425116 0.137158
H3    H     H_    0.266728 0.111615 0.568825 0.134520
H4    H     H_    0.267749 0.886042 0.569977 0.137460
H5    H     H_    0.094956 0.653525 0.601898 0.146049
H6    H     H_    0.902390 0.341387 0.403944 0.148777
H7    H     H_    0.713420 0.752218 0.873477 0.143613
H8    H     H_    0.815032 0.732285 0.019181 0.132475
H9    H     H_    0.451230 0.408008 0.168462 0.145781
H10   H     H_    0.210841 0.345987 0.799813 0.147293
H11   H     H_    0.334828 0.327586 0.075639 0.126002
H12   H     H_    0.179120 0.262344 0.972359 0.139869
H13   H     H_    0.549042 0.682245 0.775539 0.161248
H14   H     H_    0.730991 0.888349 0.422156 0.142169
N1    N     N_R   0.147940 0.499970 0.499970 -0.190778
N2    N     N_R   0.852060 0.500060 0.499990 -0.188634
O1    O     O_R   0.381250 0.680340 0.500010 -0.591594
O2    O     O_R   0.618820 0.680370 0.500010 -0.548232
O3    O     O_R   0.323240 0.499950 0.650980 -0.587777
O4    O     O_R   0.560810 0.499980 0.650980 -0.557846
O5    O     O_R   0.381180 0.319630 0.499990 -0.572992
O6    O     O_R   0.618750 0.319660 0.499990 -0.591521
O7    O     O_R   0.439190 0.500020 0.349020 -0.543938
O8    O     O_R   0.676760 0.500050 0.349020 -0.589060
N3    N     N_2   0.812753 0.677264 0.616970 -0.379571
H15   H     H_    0.797326 0.660432 0.694183 0.236626
C29   C     C_3   0.855121 0.804960 0.593676 -0.727847
H16   H     H_    0.760988 0.865856 0.628830 0.240691
H17   H     H_    0.890321 0.818854 0.508748 0.233864
H18   H     H_    0.945721 0.832180 0.626410 0.194823
N4    N     N_2   0.185892 0.315852 0.390743 -0.371276
H19   H     H_    0.172390 0.235293 0.432362 0.240708
C30   C     C_3   0.185545 0.293332 0.284585 -0.755093
H20   H     H_    0.086085 0.241352 0.281142 0.206033
H21   H     H_    0.281376 0.236286 0.245117 0.228463
H22   H     H_    0.191141 0.382382 0.243642 0.239766

loop_
_geom_bond_atom_site_label_1
_geom_bond_atom_site_label_2
_ccdc_geom_bond_type
C12   O4    A    
N3    H15   S    
C19   N1    A    
C1    O2    A    
C12   O3    A    
C6    C7    A    
C8    H9    S    
C7    H13   S    
C11   C13   A    
C13   H2    S    
C24   H8    S    
C20   N1    A    
C4    C8    A    
C14   C22   S    
C30   H21   S    
C2    C3    A    
C29   H16   S    
C6    H7    S    
C9    C25   A    
C11   H14   S    
C9    C24   A    
C3    C10   A    
C19   H5    S    
C13   C14   A    
Cu1   O3    S    
C8    C25   A    
Cu2   O8    S    
C27   H12   S    
C26   H10   S    
C26   C27   A    
Cu1   Cu2   S    
C5    C24   A    
C10   C12   S    
C18   N3    S    
Cu1   O1    S    
C5    C6    A    
C2    C4    A    
C18   N2    A    
Cu2   O2    S    
Cu2   N2    S    
C23   O7    A    
C3    C7    A    
N3    C29   S    
Cu2   O4    S    
N4    H19   S    
C29   H17   S    
C9    H1    S    
C10   C26   A    
C15   C16   A    
C28   H11   S    
C27   C28   A    
C23   C25   S    
C18   C19   A    
C20   C21   A    
C23   O8    A    
C22   O6    A    
C21   N2    A    
Cu1   O5    S    
Cu1   N1    S    
C20   N4    S    
C21   H6    S    
Cu2   O6    S    
C14   C15   A    
C22   O5    A    
C29   H18   S    
C2    C28   A    
C16   H4    S    
C4    C5    A    
C1    C17   S    
C15   H3    S    
N4    C30   S    
C11   C17   A    
C30   H22   S    
C30   H20   S    
C1    O1    A    
C16   C17   A    
Cu1   O7    S    
