data_mof_unit_15926.cif
_audit_creation_date              2012-12-11T15:19:38-0500
_audit_creation_method            fapswitch 2.2
_symmetry_space_group_name_H-M    P1
_symmetry_Int_Tables_number       1
_space_group_crystal_system       triclinic
_cell_length_a                    20.045623
_cell_length_b                    6.868624
_cell_length_c                    18.226876
_cell_angle_alpha                 89.999712
_cell_angle_beta                  104.339795
_cell_angle_gamma                 90.0
_cell_volume                      2431.39415915

loop_
_atom_site_label
_atom_site_type_symbol
_atom_type_description
_atom_site_fract_x
_atom_site_fract_y
_atom_site_fract_z
_atom_type_partial_charge
O1    O     O_R   0.312200 0.620210 0.189560 -0.540764
O2    O     O_R   0.687800 0.379790 0.810440 -0.540764
O3    O     O_R   0.187800 0.120210 0.310440 -0.540763
O4    O     O_R   0.812200 0.879790 0.689560 -0.540764
O5    O     O_R   0.171590 0.286140 0.165000 -0.532213
O6    O     O_R   0.828410 0.713860 0.835000 -0.532213
O7    O     O_R   0.328410 0.786140 0.335000 -0.532213
O8    O     O_R   0.671590 0.213860 0.665000 -0.532214
C1    C     C_R   0.145648 0.459557 0.143782 0.711496
C2    C     C_R   0.854352 0.540443 0.856218 0.711497
C3    C     C_R   0.354352 0.959557 0.356218 0.711496
C4    C     C_R   0.645648 0.040443 0.643782 0.711496
O9    O     O_R   0.310670 0.290220 0.180540 -0.534676
O10   O     O_R   0.689330 0.709780 0.819460 -0.534675
O11   O     O_R   0.189330 0.790220 0.319460 -0.534675
O12   O     O_R   0.810670 0.209780 0.680540 -0.534676
O13   O     O_R   0.327870 0.124170 0.326080 -0.535988
O14   O     O_R   0.672130 0.875830 0.673920 -0.535989
O15   O     O_R   0.172130 0.624170 0.173920 -0.535989
O16   O     O_R   0.827870 0.375830 0.826080 -0.535988
C5    C     C_R   0.332151 0.459261 0.165298 0.718615
C6    C     C_R   0.667849 0.540739 0.834702 0.718614
C7    C     C_R   0.167849 0.959261 0.334702 0.718614
C8    C     C_R   0.832151 0.040739 0.665298 0.718615
O17   O     O_3   0.255480 0.455050 0.297740 -0.364861
O18   O     O_3   0.744520 0.544950 0.702260 -0.364861
O19   O     O_3   0.244520 0.955050 0.202260 -0.364860
O20   O     O_3   0.755480 0.044950 0.797740 -0.364860
V1    V     V_3+5 0.248980 0.178550 0.241140 1.426986
V2    V     V_3+5 0.751020 0.821450 0.758860 1.426986
V3    V     V_3+5 0.251020 0.678550 0.258860 1.426987
V4    V     V_3+5 0.748980 0.321450 0.741140 1.426987
C9    C     C_R   0.936933 0.164089 0.625871 0.134434
C10   C     C_R   0.063067 0.835911 0.374129 0.134434
C11   C     C_R   0.563067 0.664088 0.874128 0.134433
C12   C     C_R   0.436933 0.335912 0.125872 0.134432
C13   C     C_R   0.881230 0.030452 0.615706 -0.099368
C14   C     C_R   0.118770 0.969548 0.384294 -0.099369
C15   C     C_R   0.618770 0.530451 0.884294 -0.099368
C16   C     C_R   0.381230 0.469549 0.115706 -0.099368
C17   C     C_R   0.872856 0.885501 0.558387 0.057956
C18   C     C_R   0.127144 0.114499 0.441613 0.057956
C19   C     C_R   0.627143 0.385499 0.941613 0.057956
C20   C     C_R   0.372856 0.614501 0.058387 0.057956
C21   C     C_R   0.924270 0.861861 0.517431 -0.016467
C22   C     C_R   0.075730 0.138139 0.482568 -0.016467
C23   C     C_R   0.575729 0.361859 0.982569 -0.016467
C24   C     C_R   0.424270 0.638141 0.017431 -0.016467
C25   C     C_R   0.976061 0.005680 0.523166 -0.062944
C26   C     C_R   0.023939 0.994320 0.476834 -0.062944
C27   C     C_R   0.523939 0.505679 0.976834 -0.062942
C28   C     C_R   0.476061 0.494320 0.023165 -0.062942
C29   C     C_R   0.980297 0.160940 0.575040 0.074392
C30   C     C_R   0.019703 0.839060 0.424960 0.074392
C31   C     C_R   0.519703 0.660940 0.924960 0.074391
C32   C     C_R   0.480297 0.339060 0.075040 0.074391
C33   C     C_R   0.925389 0.699204 0.470232 0.584034
C34   C     C_R   0.074611 0.300796 0.529768 0.584034
C35   C     C_R   0.574610 0.199202 0.029769 0.584035
C36   C     C_R   0.425390 0.800798 0.970231 0.584034
C37   C     C_R   0.971726 0.689750 0.424863 -0.200810
C38   C     C_R   0.028274 0.310250 0.575137 -0.200810
C39   C     C_R   0.528273 0.189748 0.075138 -0.200809
C40   C     C_R   0.471726 0.810251 0.924862 -0.200809
H1    H     H_    0.970348 0.560318 0.390691 0.161798
H2    H     H_    0.029652 0.439682 0.609309 0.161798
H3    H     H_    0.529651 0.060317 0.109310 0.161797
H4    H     H_    0.470348 0.939683 0.890689 0.161797
C41   C     C_1   0.583157 0.027391 0.581582 -0.190227
C42   C     C_1   0.416843 0.972609 0.418417 -0.190227
C43   C     C_1   0.916843 0.527390 0.918418 -0.190227
C44   C     C_1   0.083157 0.472610 0.081582 -0.190227
C45   C     C_1   0.530849 0.010844 0.530186 0.013652
C46   C     C_1   0.469151 0.989156 0.469814 0.013652
C47   C     C_1   0.969151 0.510844 0.969814 0.013652
C48   C     C_1   0.030849 0.489156 0.030186 0.013652
C49   C     C_3   0.952734 0.303672 0.692730 -0.757872
H5    H     H_    0.932561 0.252426 0.740707 0.199565
H6    H     H_    0.009149 0.314749 0.716973 0.197023
H7    H     H_    0.931419 0.449964 0.674357 0.218439
C50   C     C_3   0.047266 0.696328 0.307270 -0.757872
H8    H     H_    0.067439 0.747574 0.259293 0.199565
H9    H     H_    0.068581 0.550036 0.325643 0.218439
H10   H     H_    0.990851 0.685251 0.283027 0.197023
C51   C     C_3   0.547265 0.803671 0.807269 -0.757872
H11   H     H_    0.567439 0.752427 0.759292 0.199565
H12   H     H_    0.490850 0.814747 0.783025 0.197024
H13   H     H_    0.568580 0.949964 0.825641 0.218437
C52   C     C_3   0.452734 0.196328 0.192731 -0.757871
H14   H     H_    0.432562 0.247575 0.240708 0.199565
H15   H     H_    0.431418 0.050037 0.174359 0.218438
H16   H     H_    0.509150 0.185249 0.216974 0.197023
C53   C     C_3   0.806519 0.768593 0.536447 -0.582343
H17   H     H_    0.762782 0.843464 0.551593 0.156133
H18   H     H_    0.789547 0.751919 0.474007 0.229167
H19   H     H_    0.814016 0.623482 0.564144 0.238083
C54   C     C_3   0.193481 0.231407 0.463553 -0.582343
H20   H     H_    0.237218 0.156536 0.448407 0.156133
H21   H     H_    0.185984 0.376518 0.435856 0.238083
H22   H     H_    0.210453 0.248081 0.525992 0.229167
C55   C     C_3   0.693480 0.268589 0.963553 -0.582344
H23   H     H_    0.737217 0.343460 0.948407 0.156134
H24   H     H_    0.710452 0.251914 0.025993 0.229168
H25   H     H_    0.685983 0.123478 0.935857 0.238083
C56   C     C_3   0.306520 0.731411 0.036446 -0.582343
H26   H     H_    0.262782 0.656540 0.051593 0.156133
H27   H     H_    0.314017 0.876522 0.064143 0.238083
H28   H     H_    0.289547 0.748085 0.974007 0.229168
F1    F     F_    0.884228 0.542032 0.469712 -0.703240
F2    F     F_    0.115772 0.457968 0.530288 -0.703240
F3    F     F_    0.615771 0.042030 0.030289 -0.703240
F4    F     F_    0.384228 0.957970 0.969711 -0.703240

loop_
_geom_bond_atom_site_label_1
_geom_bond_atom_site_label_2
_ccdc_geom_bond_type
C12   C52   S    
C34   C38   A    
C4    C41   S    
O17   V3    S    
C53   H17   S    
O19   V1    S    
O13   V1    S    
C45   C46   S    
O3    C7    A    
C1    C44   S    
C44   C48   T    
O15   V3    S    
C50   H10   S    
C50   H8    S    
C3    C42   S    
C51   H11   S    
O1    C5    A    
C56   H27   S    
C21   C33   A    
C26   C30   A    
C12   C32   A    
C40   H4    S    
O9    V1    S    
C14   C18   A    
C11   C15   A    
O4    C8    A    
C49   H7    S    
C54   H20   S    
O1    V3    S    
O2    V4    S    
C18   C22   A    
O3    V1    S    
C42   C46   T    
C12   C16   A    
C50   H9    S    
C1    O15   A    
C33   F1    S    
C2    O16   A    
O2    C6    A    
C35   F3    S    
C41   C45   T    
O14   V2    S    
C10   C50   S    
C52   H15   S    
C16   C20   A    
C49   H5    S    
C2    C43   S    
O11   C7    A    
O12   C8    A    
C10   C14   A    
C22   C34   A    
O17   V1    S    
O10   V2    S    
C54   H21   S    
C24   C36   A    
O5    V1    S    
C49   H6    S    
C9    C29   A    
C56   H28   S    
C39   H3    S    
O7    V3    S    
C38   H2    S    
C51   H12   S    
O19   V3    S    
C27   C28   A    
O8    V4    S    
C55   H23   S    
O20   V4    S    
C18   C54   S    
O18   V4    S    
C15   C19   A    
C20   C56   S    
C11   C31   A    
C9    C13   A    
O7    C3    A    
C47   C48   S    
C19   C55   S    
O5    C1    A    
C36   F4    S    
C29   C38   A    
C21   C25   A    
O8    C4    A    
C31   C40   A    
C8    C13   S    
C32   C39   A    
O9    C5    A    
C52   H16   S    
C33   C37   A    
O6    V2    S    
C10   C30   A    
C53   H19   S    
C54   H22   S    
O16   V4    S    
C51   H13   S    
C3    O13   A    
C34   F2    S    
O6    C2    A    
C23   C27   A    
O11   V3    S    
C30   C37   A    
O12   V4    S    
C7    C14   S    
C56   H26   S    
C22   C26   A    
C35   C39   A    
C36   C40   A    
C17   C53   S    
O10   C6    A    
O20   V2    S    
C43   C47   T    
C11   C51   S    
C9    C49   S    
C53   H18   S    
C5    C16   S    
C28   C32   A    
C25   C29   A    
C6    C15   S    
C27   C31   A    
C13   C17   A    
C23   C35   A    
C37   H1    S    
C24   C28   A    
C55   H24   S    
C25   C26   A    
C4    O14   A    
C17   C21   A    
C55   H25   S    
C52   H14   S    
C19   C23   A    
O4    V2    S    
C20   C24   A    
O18   V2    S    
