data_mof_unit_22267.cif
_audit_creation_date              2012-10-26T20:19:33-0400
_audit_creation_method            fapswitch 2.2
_symmetry_space_group_name_H-M    P1
_symmetry_Int_Tables_number       1
_space_group_crystal_system       triclinic
_cell_length_a                    10.734153
_cell_length_b                    10.858198
_cell_length_c                    9.569879
_cell_angle_alpha                 90.532763
_cell_angle_beta                  90.202593
_cell_angle_gamma                 92.803154
_cell_volume                      1114.01175929

loop_
_atom_site_label
_atom_site_type_symbol
_atom_type_description
_atom_site_fract_x
_atom_site_fract_y
_atom_site_fract_z
_atom_type_partial_charge
C1    C     C_R   0.510352 0.263232 0.500161 0.547225
C2    C     C_R   0.537970 0.066524 0.630169 0.023604
C3    C     C_R   0.522679 0.129677 0.502507 -0.014676
C4    C     C_R   0.260311 0.504841 0.499504 0.555679
C5    C     C_R   0.502497 0.062765 0.378250 -0.171957
C6    C     C_R   0.492748 0.935507 0.380183 -0.161691
C7    C     C_R   0.490389 0.872545 0.507340 -0.007692
C8    C     C_R   0.665730 0.665034 0.146404 -0.101192
C9    C     C_R   0.747373 0.744838 0.075032 -0.182257
C10   C     C_R   0.747657 0.744320 0.931071 -0.170889
C11   C     C_R   0.666059 0.664249 0.857742 -0.097124
C12   C     C_3   0.878303 0.506711 0.499272 0.041641
C13   C     C_R   0.581361 0.581139 0.926192 0.144582
C14   C     C_R   0.581215 0.581326 0.075934 0.154938
C15   C     C_R   0.423753 0.421672 0.072847 -0.025826
C16   C     C_R   0.493809 0.737718 0.501700 0.537030
C17   C     C_R   0.423378 0.422087 0.924762 -0.018641
C18   C     C_R   0.740194 0.503663 0.500091 0.530314
C19   C     C_3   0.066786 0.377351 0.530609 -0.252837
C20   C     C_3   0.922958 0.376290 0.530677 -0.239000
C21   C     C_3   0.076902 0.596570 0.613827 -0.231003
C22   C     C_3   0.071486 0.545887 0.350101 -0.096335
C23   C     C_3   0.933257 0.598913 0.611127 -0.244631
C24   C     C_3   0.122455 0.508662 0.497708 0.048067
C25   C     C_R   0.130634 0.663797 0.286408 0.043847
C26   C     C_R   0.108955 0.782230 0.340088 -0.103781
C27   C     C_R   0.163314 0.887600 0.277698 -0.115343
C28   C     C_R   0.238170 0.876738 0.159710 -0.116575
C29   C     C_R   0.258398 0.760463 0.103454 -0.105776
C30   C     C_R   0.204245 0.655008 0.165361 -0.051134
C31   C     C_3   0.928194 0.548129 0.353954 -0.221972
C32   C     C_R   0.587245 0.124743 0.753058 -0.098744
C33   C     C_R   0.575517 0.067458 0.882224 -0.133632
C34   C     C_R   0.514411 0.952259 0.891054 -0.132213
C35   C     C_R   0.476415 0.889242 0.769410 -0.103115
C36   C     C_R   0.500749 0.940498 0.635672 0.022289
Cu1   Cu    Cu3+1 0.499990 0.499990 0.640660 0.891652
Cu2   Cu    Cu3+1 0.500010 0.500010 0.359340 0.909248
H1    H     H_    0.100214 0.346797 0.634372 0.121095
H2    H     H_    0.484757 0.886453 0.281264 0.144866
H3    H     H_    0.361021 0.357823 0.127408 0.106346
H4    H     H_    0.098289 0.309680 0.451740 0.103604
H5    H     H_    0.673953 0.672786 0.256569 0.180638
H6    H     H_    0.811080 0.807410 0.132178 0.118875
H7    H     H_    0.811245 0.806758 0.875436 0.119813
H8    H     H_    0.673389 0.672070 0.747694 0.185475
H9    H     H_    0.360489 0.358408 0.868341 0.118808
H10   H     H_    0.885139 0.309237 0.450690 0.111872
H11   H     H_    0.887433 0.344905 0.634211 0.121111
H12   H     H_    0.895498 0.641407 0.330796 0.109709
H13   H     H_    0.106252 0.563509 0.718141 0.128524
H14   H     H_    0.897005 0.574084 0.716476 0.135060
H15   H     H_    0.092570 0.468365 0.278013 0.103442
H16   H     H_    0.889072 0.485390 0.270255 0.127827
H17   H     H_    0.047212 0.794535 0.427219 0.092764
H18   H     H_    0.146296 0.977967 0.320131 0.103253
H19   H     H_    0.279963 0.958472 0.111528 0.100634
H20   H     H_    0.315500 0.751724 0.011333 0.095487
H21   H     H_    0.219692 0.566192 0.118233 0.096869
H22   H     H_    0.120760 0.690608 0.604096 0.111108
H23   H     H_    0.904286 0.693712 0.588769 0.093317
H24   H     H_    0.494175 0.108663 0.278837 0.130870
H25   H     H_    0.637321 0.213503 0.750666 0.141918
H26   H     H_    0.610621 0.114056 0.975903 0.109457
H27   H     H_    0.498998 0.910351 0.992108 0.110635
H28   H     H_    0.424347 0.802938 0.783585 0.144513
N1    N     N_R   0.501200 0.501210 0.147910 -0.242429
N2    N     N_R   0.501250 0.501290 0.852040 -0.249537
O1    O     O_R   0.499990 0.319640 0.618810 -0.506530
O2    O     O_R   0.500000 0.319660 0.381240 -0.502946
O3    O     O_R   0.317680 0.499970 0.618790 -0.510198
O4    O     O_R   0.317700 0.499990 0.381210 -0.501772
O5    O     O_R   0.500000 0.680340 0.618760 -0.536438
O6    O     O_R   0.500010 0.680360 0.381190 -0.516571
O7    O     O_R   0.682300 0.500010 0.618790 -0.527927
O8    O     O_R   0.682320 0.500030 0.381210 -0.525622

loop_
_geom_bond_atom_site_label_1
_geom_bond_atom_site_label_2
_ccdc_geom_bond_type
Cu2   O2    S    
C18   O7    A    
Cu1   O1    S    
C7    C36   A    
C19   C20   S    
C8    H5    S    
C21   H13   S    
C26   H17   S    
Cu2   O8    S    
C28   H19   S    
C12   C23   S    
C26   C27   A    
C29   C30   A    
C16   O6    A    
C28   C29   A    
Cu1   Cu2   S    
C5    C6    A    
C4    C24   S    
Cu1   N2    S    
C2    C32   A    
C34   C35   A    
C35   C36   A    
C8    C9    A    
C9    H6    S    
C22   C25   S    
C18   O8    A    
C14   N1    A    
C9    C10   A    
C19   H4    S    
Cu1   O7    S    
C13   C14   A    
C34   H27   S    
C22   H15   S    
Cu2   O4    S    
C22   C31   S    
C16   O5    A    
C15   H3    S    
C21   H22   S    
C27   H18   S    
C35   H28   S    
C25   C26   A    
C1    O1    A    
C1    C3    S    
C20   H11   S    
C15   N1    A    
C30   H21   S    
C12   C20   S    
C10   H7    S    
C33   C34   A    
Cu2   N1    S    
C20   H10   S    
C19   H1    S    
C7    C16   S    
C21   C23   S    
C12   C31   S    
C22   C24   S    
C31   H12   S    
C4    O4    A    
Cu2   O6    S    
C2    C36   A    
C25   C30   A    
C15   C17   A    
Cu1   O5    S    
C17   N2    A    
C8    C14   A    
C17   H9    S    
C32   H25   S    
C3    C5    A    
C6    C7    A    
C1    O2    A    
C32   C33   A    
Cu1   O3    S    
C2    C3    A    
C11   C13   A    
C23   H14   S    
C33   H26   S    
C5    H24   S    
C19   C24   S    
C6    H2    S    
C31   H16   S    
C10   C11   A    
C23   H23   S    
C29   H20   S    
C21   C24   S    
C12   C18   S    
C27   C28   A    
C11   H8    S    
C4    O3    A    
C13   N2    A    
