data_mof_unit_49740.cif
_audit_creation_date              2012-10-26T20:08:11-0400
_audit_creation_method            fapswitch 2.2
_symmetry_space_group_name_H-M    P1
_symmetry_Int_Tables_number       1
_space_group_crystal_system       triclinic
_cell_length_a                    10.843889
_cell_length_b                    10.819618
_cell_length_c                    9.501858
_cell_angle_alpha                 90.086806
_cell_angle_beta                  90.35133
_cell_angle_gamma                 90.087104
_cell_volume                      1114.79844892

loop_
_atom_site_label
_atom_site_type_symbol
_atom_type_description
_atom_site_fract_x
_atom_site_fract_y
_atom_site_fract_z
_atom_type_partial_charge
C1    C     C_R   0.499745 0.262042 0.499876 0.547397
C2    C     C_R   0.478700 0.064107 0.625366 -0.132116
C3    C     C_R   0.500575 0.871764 0.500216 0.004559
C4    C     C_R   0.499425 0.128236 0.499784 0.004559
C5    C     C_R   0.425024 0.421490 0.073779 0.017523
C6    C     C_R   0.574976 0.578510 0.926221 0.017524
C7    C     C_R   0.425149 0.421431 0.924839 0.019633
C8    C     C_R   0.574851 0.578569 0.075161 0.019633
C9    C     C_R   0.262200 0.503113 0.499368 0.548315
C10   C     C_R   0.737800 0.496887 0.500632 0.548315
C11   C     C_R   0.224573 0.782890 0.150630 0.171625
C12   C     C_R   0.500255 0.737958 0.500124 0.547397
C13   C     C_R   0.775429 0.217109 0.849369 0.171625
C14   C     C_R   0.172504 0.725816 0.269340 -0.079264
C15   C     C_R   0.827497 0.274183 0.730659 -0.079265
C16   C     C_R   0.118451 0.608306 0.258127 0.025627
C17   C     C_R   0.881549 0.391694 0.741873 0.025627
C18   C     C_R   0.117353 0.547141 0.128080 -0.137331
C19   C     C_R   0.882645 0.452860 0.871920 -0.137330
C20   C     C_R   0.169981 0.602616 0.010279 -0.144508
C21   C     C_R   0.830018 0.397384 0.989720 -0.144508
C22   C     C_R   0.223706 0.720293 0.020718 0.159934
C23   C     C_R   0.871679 0.495067 0.501723 -0.002925
C24   C     C_R   0.776294 0.279706 0.979281 0.159934
C25   C     C_R   0.932664 0.543905 0.384936 -0.158697
C26   C     C_R   0.067336 0.456095 0.615064 -0.158697
C27   C     C_R   0.128321 0.504933 0.498277 -0.002925
C28   C     C_R   0.939607 0.449902 0.618015 -0.026206
C29   C     C_R   0.060393 0.550099 0.381985 -0.026206
C30   C     C_R   0.520233 0.063709 0.374306 -0.142732
C31   C     C_R   0.479768 0.936291 0.625694 -0.142732
C32   C     C_R   0.521301 0.935893 0.374634 -0.132116
Cu1   Cu    Cu3+1 0.500000 0.500020 0.640660 0.931817
Cu2   Cu    Cu3+1 0.500000 0.499980 0.359340 0.931817
H1    H     H_    0.365000 0.358731 0.868055 0.105058
H2    H     H_    0.791527 0.216517 0.178215 0.216427
H3    H     H_    0.224700 0.963278 0.098337 0.232947
H4    H     H_    0.271766 0.937355 0.263655 0.214283
H5    H     H_    0.775303 0.036721 0.901663 0.232947
H6    H     H_    0.728237 0.062643 0.736345 0.214283
H7    H     H_    0.076627 0.456071 0.118364 0.111951
H8    H     H_    0.923371 0.543930 0.881635 0.111951
H9    H     H_    0.169223 0.554140 0.910582 0.109569
H10   H     H_    0.830775 0.445860 0.089417 0.109569
H11   H     H_    0.880576 0.581099 0.296899 0.121234
H12   H     H_    0.635000 0.641268 0.131945 0.105059
H13   H     H_    0.119424 0.418901 0.703101 0.121234
H14   H     H_    0.536141 0.111685 0.276173 0.156251
H15   H     H_    0.463859 0.888315 0.723827 0.156251
H16   H     H_    0.364835 0.358810 0.129471 0.113542
H17   H     H_    0.635165 0.641190 0.870529 0.113542
H18   H     H_    0.172871 0.772998 0.370023 0.090401
H19   H     H_    0.827131 0.227000 0.629977 0.090401
H20   H     H_    0.538193 0.887524 0.276726 0.157842
H21   H     H_    0.461807 0.112476 0.723274 0.157842
H22   H     H_    0.345406 0.718036 0.861303 0.251283
H23   H     H_    0.208472 0.783484 0.821786 0.216426
H24   H     H_    0.654592 0.281962 0.138695 0.251282
N1    N     N_R   0.500030 0.500030 0.852070 -0.230359
N2    N     N_R   0.499970 0.499970 0.147930 -0.230359
N3    N     N_3   0.276952 0.776915 0.899351 -0.620872
N4    N     N_3   0.723048 0.223084 0.100649 -0.620871
N5    N     N_3   0.278080 0.904093 0.160584 -0.605740
N6    N     N_3   0.721923 0.095906 0.839416 -0.605739
O1    O     O_R   0.499990 0.319660 0.618740 -0.498345
O2    O     O_R   0.500010 0.680340 0.381260 -0.498345
O3    O     O_R   0.499990 0.319630 0.381170 -0.519729
O4    O     O_R   0.500010 0.680370 0.618830 -0.519729
O5    O     O_R   0.319650 0.500020 0.618780 -0.522324
O6    O     O_R   0.680350 0.499980 0.381220 -0.522323
O7    O     O_R   0.319640 0.500000 0.381210 -0.486070
O8    O     O_R   0.680360 0.500000 0.618790 -0.486070

loop_
_geom_bond_atom_site_label_1
_geom_bond_atom_site_label_2
_ccdc_geom_bond_type
Cu2   O3    S    
H24   N4    S    
C1    O1    A    
H23   N3    S    
C1    O3    A    
C25   H11   S    
C6    H17   S    
C27   C29   A    
C21   H10   S    
C5    N2    A    
Cu2   O6    S    
C11   C22   A    
C2    C4    A    
C32   H20   S    
C19   H8    S    
Cu1   O5    S    
C3    C31   A    
C1    C4    S    
C11   N5    S    
Cu2   O2    S    
C23   C25   A    
Cu1   Cu2   S    
C24   N4    S    
Cu1   O1    S    
Cu1   N1    S    
C23   C28   A    
C8    N2    A    
C22   N3    S    
Cu2   N2    S    
H5    N6    S    
C12   O4    A    
Cu2   O7    S    
C26   C27   A    
Cu1   O4    S    
C13   N6    S    
C7    H1    S    
C26   H13   S    
C31   H15   S    
H2    N4    S    
H6    N6    S    
C10   O6    A    
C7    N1    A    
C26   C28   A    
H3    N5    S    
C9    O5    A    
C14   C16   A    
C2    H21   S    
C13   C15   A    
C25   C29   A    
C3    C32   A    
C10   C23   S    
C11   C14   A    
C8    H12   S    
C5    H16   S    
C18   H7    S    
C4    C30   A    
C30   C32   A    
C15   H19   S    
C20   H9    S    
C9    C27   S    
C18   C20   A    
C16   C18   A    
H4    N5    S    
C21   C24   A    
C30   H14   S    
C5    C7    A    
H22   N3    S    
C6    C8    A    
C3    C12   S    
Cu1   O8    S    
C17   C19   A    
C16   C29   S    
C15   C17   A    
C17   C28   S    
C12   O2    A    
C6    N1    A    
C14   H18   S    
C9    O7    A    
C13   C24   A    
C20   C22   A    
C2    C31   A    
C19   C21   A    
C10   O8    A    
