data_mof_unit_55737.cif
_audit_creation_date              2012-12-10T17:35:44-0500
_audit_creation_method            fapswitch 2.2
_symmetry_space_group_name_H-M    P1
_symmetry_Int_Tables_number       1
_space_group_crystal_system       triclinic
_cell_length_a                    10.488958
_cell_length_b                    12.012996
_cell_length_c                    12.76413
_cell_angle_alpha                 95.010794
_cell_angle_beta                  89.852972
_cell_angle_gamma                 86.680748
_cell_volume                      1599.44761983

loop_
_atom_site_label
_atom_site_type_symbol
_atom_type_description
_atom_site_fract_x
_atom_site_fract_y
_atom_site_fract_z
_atom_type_partial_charge
C1    C     C_R   0.505888 0.523750 0.700092 0.965679
C2    C     C_R   0.494114 0.476250 0.299907 0.965628
C3    C     C_R   0.420979 0.498062 0.870867 0.472125
C4    C     C_R   0.579023 0.501941 0.129133 0.472131
C5    C     C_R   0.442919 0.482617 0.976200 -0.023607
C6    C     C_R   0.557083 0.517387 0.023800 -0.023606
C7    C     C_R   0.357701 0.954028 0.425241 0.458989
C8    C     C_R   0.642286 0.045978 0.574778 0.458967
C9    C     C_R   0.374016 0.837665 0.430933 -0.085810
C10   C     C_R   0.625969 0.162338 0.569088 -0.085667
C11   C     C_R   0.565833 0.858240 0.526514 -0.013936
C12   C     C_R   0.434174 0.141758 0.473477 -0.013751
C13   C     C_R   0.553016 0.975770 0.525408 -0.110433
C14   C     C_R   0.446979 0.024230 0.474601 -0.110237
C15   C     C_R   0.742568 0.500461 0.499200 0.886711
C16   C     C_R   0.257432 0.499539 0.500800 0.886682
C17   C     C_3   0.958355 0.471038 0.592944 -0.161409
C18   C     C_3   0.041645 0.528962 0.407057 -0.161435
C19   C     C_3   0.036650 0.573510 0.577990 -0.166805
C20   C     C_3   0.963350 0.426491 0.422011 -0.166795
C21   C     C_3   0.122443 0.498750 0.500881 0.011198
C22   C     C_3   0.877557 0.501250 0.499120 0.011198
C23   C     C_3   0.046845 0.396278 0.515861 -0.139168
C24   C     C_3   0.953155 0.603723 0.484140 -0.139192
C25   C     C_R   0.483632 0.458683 0.187907 -0.237698
C26   C     C_R   0.516372 0.541318 0.812093 -0.237713
C27   C     C_R   0.647479 0.567817 0.965867 -0.208209
C28   C     C_R   0.352523 0.432187 0.034133 -0.208207
C29   C     C_R   0.629669 0.579218 0.859300 -0.125339
C30   C     C_R   0.370335 0.420784 0.140699 -0.125347
H1    H     H_    0.070281 0.634365 0.640803 0.147465
H2    H     H_    0.929719 0.365636 0.359197 0.147466
H3    H     H_    0.919718 0.446920 0.668226 0.164479
H4    H     H_    0.080282 0.553082 0.331776 0.164466
H5    H     H_    0.089156 0.311735 0.528768 0.165817
H6    H     H_    0.910843 0.688266 0.471233 0.165799
H7    H     H_    0.733923 0.596453 0.003004 0.226410
H8    H     H_    0.266078 0.403552 0.996997 0.226410
H9    H     H_    0.354077 0.180891 0.434929 0.201809
H10   H     H_    0.645943 0.819104 0.565044 0.201734
H11   H     H_    0.696138 0.216532 0.603973 0.154620
H12   H     H_    0.303829 0.783471 0.396078 0.154523
N1    N     N_R   0.523490 0.207800 0.519350 -0.133020
N2    N     N_R   0.476510 0.792200 0.480650 -0.132922
O1    O     O_R   0.506270 0.421700 0.658830 -0.598686
O2    O     O_R   0.493730 0.578300 0.341170 -0.598688
O3    O     O_R   0.491200 0.609310 0.646410 -0.582826
O4    O     O_R   0.508800 0.390690 0.353590 -0.582809
O5    O     O_R   0.693580 0.406210 0.506230 -0.645694
O6    O     O_R   0.306420 0.593790 0.493770 -0.645698
O7    O     O_R   0.678510 0.593830 0.493810 -0.601129
O8    O     O_R   0.321490 0.406170 0.506190 -0.601146
Zn1   Zn    Zn3+2 0.510060 0.374730 0.508290 0.980768
Zn2   Zn    Zn3+2 0.489940 0.625270 0.491710 0.980736
O9    O     O_3   0.687873 0.540547 0.178000 -0.614859
C31   C     C_3   0.780115 0.450410 0.177627 -0.306470
H13   H     H_    0.749194 0.385682 0.227942 0.156094
H14   H     H_    0.869940 0.482689 0.210385 0.219361
H15   H     H_    0.801832 0.412287 0.096392 0.177632
O10   O     O_3   0.312129 0.459457 0.822001 -0.614848
C32   C     C_3   0.219887 0.549594 0.822374 -0.306479
H16   H     H_    0.130062 0.517316 0.789616 0.219367
H17   H     H_    0.250809 0.614322 0.772059 0.156087
H18   H     H_    0.198171 0.587717 0.903609 0.177617
C33   C     C_2   0.265423 0.375355 0.199954 0.880385
O11   O     O_2   0.154664 0.390724 0.172237 -0.668488
O12   O     O_R   0.292132 0.311517 0.284272 -0.802249
H19   H     H_    0.212152 0.284724 0.316425 0.335470
C34   C     C_2   0.734582 0.624646 0.800045 0.880325
O13   O     O_2   0.845338 0.609298 0.827776 -0.668466
O14   O     O_R   0.707877 0.688460 0.715710 -0.802399
H20   H     H_    0.787857 0.715256 0.683559 0.335444
O15   O     O_3   0.250431 0.998863 0.377977 -0.614770
C35   C     C_3   0.272189 0.991280 0.268507 -0.309211
H21   H     H_    0.357019 0.037227 0.248626 0.177546
H22   H     H_    0.188086 0.030897 0.230752 0.207267
H23   H     H_    0.283278 0.902492 0.235116 0.159917
O16   O     O_3   0.749539 0.001176 0.622085 -0.614736
C36   C     C_3   0.727440 0.008237 0.731493 -0.309372
H24   H     H_    0.811613 0.968793 0.769301 0.207294
H25   H     H_    0.642816 0.961837 0.750990 0.177728
H26   H     H_    0.715799 0.096902 0.765174 0.159989

loop_
_geom_bond_atom_site_label_1
_geom_bond_atom_site_label_2
_ccdc_geom_bond_type
O9    C31   S    
C16   C21   S    
C27   C29   A    
C18   C21   S    
O15   C35   S    
C19   H1    S    
C4    C25   A    
C7    O15   S    
C2    O2    A    
C9    H12   S    
C17   C23   S    
C35   H22   S    
C18   C24   S    
C19   C21   S    
C16   O6    A    
C12   N1    A    
C5    C6    A    
C31   H13   S    
C34   O14   S    
C32   H17   S    
N1    Zn1   S    
C15   C22   S    
C33   O12   S    
C35   H23   S    
C15   O7    A    
C3    O10   S    
O1    Zn1   S    
C13   C14   A    
C10   H11   S    
C8    O16   S    
C34   O13   D    
C17   H3    S    
C29   C34   S    
C7    C14   A    
O4    Zn1   S    
C35   H21   S    
O12   H19   S    
C4    C6    A    
C36   H25   S    
O16   C36   S    
C1    O3    A    
C2    O4    A    
O10   C32   S    
C32   H18   S    
C5    C28   A    
C6    C27   A    
C20   C23   S    
C28   H8    S    
O2    Zn2   S    
C11   N2    A    
C24   H6    S    
C11   H10   S    
C18   H4    S    
O3    Zn2   S    
C12   C14   A    
C23   H5    S    
C21   C23   S    
C4    O9    S    
C1    C26   S    
C22   C24   S    
O8    Zn1   S    
C20   H2    S    
C25   C30   A    
C7    C9    A    
C9    N2    A    
C10   N1    A    
C3    C26   A    
C16   O8    A    
C20   C22   S    
C3    C5    A    
C36   H26   S    
C17   C22   S    
C31   H15   S    
O7    Zn2   S    
C12   H9    S    
C28   C30   A    
C19   C24   S    
O14   H20   S    
O6    Zn2   S    
C11   C13   A    
C1    O1    A    
C27   H7    S    
O5    Zn1   S    
C17   C19   S    
C31   H14   S    
C2    C25   S    
C18   C20   S    
C15   O5    A    
C32   H16   S    
C30   C33   S    
C36   H24   S    
C8    C13   A    
N2    Zn2   S    
C26   C29   A    
C8    C10   A    
C33   O11   D    
