data_mof_unit_24662.cif
_audit_creation_date              2012-10-26T19:41:08-0400
_audit_creation_method            fapswitch 2.2
_symmetry_space_group_name_H-M    P1
_symmetry_Int_Tables_number       1
_space_group_crystal_system       triclinic
_cell_length_a                    11.631654
_cell_length_b                    11.039362
_cell_length_c                    9.991215
_cell_angle_alpha                 112.505916
_cell_angle_beta                  96.658232
_cell_angle_gamma                 93.012884
_cell_volume                      1170.64230404

loop_
_atom_site_label
_atom_site_type_symbol
_atom_type_description
_atom_site_fract_x
_atom_site_fract_y
_atom_site_fract_z
_atom_type_partial_charge
C1    C     C_R   0.491066 0.253374 0.438945 0.543971
C2    C     C_2   0.511057 0.888855 0.597424 0.215874
C3    C     C_2   0.498711 0.069502 0.513351 -0.119464
C4    C     C_2   0.508666 0.931465 0.488039 -0.119874
C5    C     C_2   0.516661 0.508180 0.079934 0.104614
C6    C     C_2   0.477096 0.513064 0.932626 0.099263
C7    C     C_3   0.605873 0.004897 0.829574 -0.012342
C8    C     C_3   0.597806 0.123385 0.970922 -0.243907
C9    C     C_3   0.701092 0.142345 0.088723 -0.457532
C10   C     C_3   0.376511 0.996195 0.182448 -0.008107
C11   C     C_3   0.372516 0.876150 0.038850 -0.248491
C12   C     C_R   0.508994 0.746656 0.561138 0.550069
C13   C     C_3   0.256484 0.853355 0.939669 -0.470750
C14   C     C_3   0.345908 0.492713 0.886450 -0.189215
C15   C     C_3   0.301310 0.348943 0.784750 -0.278707
C16   C     C_3   0.169204 0.324744 0.770136 -0.468704
C17   C     C_3   0.631844 0.589281 0.162188 -0.188984
C18   C     C_3   0.736607 0.509023 0.122318 -0.302569
C19   C     C_3   0.851540 0.596896 0.186765 -0.455983
C20   C     C_R   0.284675 0.500244 0.501952 0.545819
C21   C     C_R   0.715319 0.499674 0.498027 0.541307
C22   C     C_1   0.163197 0.500809 0.504863 -0.042440
C23   C     C_1   0.836776 0.498778 0.495029 -0.041714
C24   C     C_1   0.060186 0.500273 0.502340 -0.061878
C25   C     C_1   0.939765 0.499149 0.497395 -0.058828
C26   C     C_2   0.489010 0.111250 0.403062 0.213304
Cu1   Cu    Cu3+1 0.519790 0.521810 0.644910 0.893636
Cu2   Cu    Cu3+1 0.480210 0.478190 0.355090 0.887768
H1    H     H_    0.514224 0.863166 0.377206 0.154800
H2    H     H_    0.690008 0.225145 0.191490 0.183203
H3    H     H_    0.783398 0.165064 0.052615 0.125987
H4    H     H_    0.352018 0.082124 0.157353 0.152894
H5    H     H_    0.311767 0.973034 0.245783 0.122944
H6    H     H_    0.443873 0.890368 0.979850 0.206868
H7    H     H_    0.385725 0.787533 0.063643 0.156358
H8    H     H_    0.184065 0.831560 0.993098 0.134932
H9    H     H_    0.257685 0.768646 0.834471 0.164241
H10   H     H_    0.241281 0.941811 0.915308 0.157556
H11   H     H_    0.142854 0.338132 0.877880 0.146914
H12   H     H_    0.499356 0.138754 0.625454 0.158290
H13   H     H_    0.126631 0.394110 0.729204 0.164289
H14   H     H_    0.139112 0.222260 0.691628 0.144103
H15   H     H_    0.325200 0.324009 0.674267 0.204473
H16   H     H_    0.341149 0.279389 0.827826 0.145173
H17   H     H_    0.302229 0.520283 0.985593 0.100478
H18   H     H_    0.315195 0.566940 0.846524 0.172039
H19   H     H_    0.859028 0.671228 0.137562 0.145361
H20   H     H_    0.857090 0.648545 0.307339 0.158068
H21   H     H_    0.925294 0.535781 0.162768 0.150512
H22   H     H_    0.735436 0.428846 0.162740 0.192388
H23   H     H_    0.636468 0.573495 0.902929 0.212336
H24   H     H_    0.733692 0.459586 0.002064 0.139798
H25   H     H_    0.641978 0.678327 0.136456 0.094402
H26   H     H_    0.634560 0.635318 0.280737 0.202396
H27   H     H_    0.377023 0.385970 0.074954 0.201570
H28   H     H_    0.677764 0.031046 0.777319 0.117655
H29   H     H_    0.626665 0.919162 0.857024 0.159959
H30   H     H_    0.594845 0.213907 0.947434 0.154813
H31   H     H_    0.516342 0.109025 0.013347 0.205082
H32   H     H_    0.706312 0.052040 0.112161 0.167735
N1    N     N_2   0.450460 0.445430 0.137370 -0.357177
N2    N     N_2   0.549540 0.554570 0.862630 -0.358816
O1    O     O_R   0.510560 0.332330 0.577400 -0.527268
O2    O     O_3   0.490582 0.023748 0.260179 -0.592577
O3    O     O_R   0.489440 0.667670 0.422600 -0.536004
O4    O     O_R   0.477140 0.295500 0.332650 -0.482192
O5    O     O_R   0.522860 0.704500 0.667350 -0.478730
O6    O     O_R   0.353910 0.518430 0.622380 -0.509185
O7    O     O_R   0.646090 0.481570 0.377620 -0.515376
O8    O     O_R   0.320490 0.481600 0.377630 -0.484078
O9    O     O_R   0.679510 0.518400 0.622370 -0.491148
O10   O     O_3   0.497792 0.974614 0.737305 -0.591201

loop_
_geom_bond_atom_site_label_1
_geom_bond_atom_site_label_2
_ccdc_geom_bond_type
C15   H16   S    
Cu2   O4    S    
C14   H17   S    
Cu1   N2    S    
C10   H4    S    
C6    C14   S    
C12   O3    A    
C19   H21   S    
Cu2   O8    S    
C2    C4    D    
C4    H1    S    
C20   C22   S    
C9    H32   S    
C2    C12   S    
Cu2   N1    S    
C6    N2    D    
C11   H7    S    
C17   C18   S    
C17   H25   S    
C18   H24   S    
C7    C8    S    
C14   H18   S    
C5    N1    D    
C11   C13   S    
C20   O8    A    
C13   H10   S    
C1    C26   S    
H23   N2    S    
Cu1   O1    S    
C7    H28   S    
C21   O9    A    
C2    O10   S    
C15   C16   S    
C9    H2    S    
C7    H29   S    
C3    H12   S    
Cu2   O3    S    
C10   H5    S    
C19   H19   S    
C21   C23   S    
C8    H31   S    
C5    C6    S    
C12   O5    A    
C22   C24   T    
Cu1   O5    S    
C10   C11   S    
H27   N1    S    
C16   H11   S    
C15   H15   S    
C3    C4    S    
C16   H14   S    
Cu1   Cu2   S    
C23   C25   T    
C5    C17   S    
C24   C25   S    
C18   H22   S    
C13   H8    S    
C18   C19   S    
C7    O10   S    
C3    C26   D    
C9    H3    S    
C19   H20   S    
C1    O1    A    
C26   O2    S    
Cu1   O6    S    
C8    H30   S    
C14   C15   S    
C13   H9    S    
C17   H26   S    
C20   O6    A    
C11   H6    S    
C10   O2    S    
Cu2   O7    S    
Cu1   O9    S    
C21   O7    A    
C8    C9    S    
C16   H13   S    
C1    O4    A    
