data_mof_unit_8234.cif
_audit_creation_date              2012-12-10T17:20:26-0500
_audit_creation_method            fapswitch 2.2
_symmetry_space_group_name_H-M    P1
_symmetry_Int_Tables_number       1
_space_group_crystal_system       triclinic
_cell_length_a                    11.707163
_cell_length_b                    10.865778
_cell_length_c                    9.613737
_cell_angle_alpha                 90.916283
_cell_angle_beta                  90.459151
_cell_angle_gamma                 93.210793
_cell_volume                      1220.8143323

loop_
_atom_site_label
_atom_site_type_symbol
_atom_type_description
_atom_site_fract_x
_atom_site_fract_y
_atom_site_fract_z
_atom_type_partial_charge
C1    C     C_R   0.508995 0.263338 0.499889 0.792250
C2    C     C_R   0.490779 0.872462 0.507988 -0.113879
C3    C     C_R   0.653854 0.664022 0.147915 -0.132229
C4    C     C_R   0.284139 0.499469 0.499536 0.827035
C5    C     C_R   0.728561 0.744315 0.077505 -0.218837
C6    C     C_R   0.728441 0.743941 0.934124 -0.192380
C7    C     C_R   0.653345 0.663540 0.860195 -0.128827
C8    C     C_R   0.575559 0.580260 0.927448 0.175024
C9    C     C_R   0.575826 0.580175 0.076903 0.170296
C10   C     C_R   0.425318 0.424610 0.069124 0.232331
C11   C     C_R   0.428044 0.424354 0.921733 -0.065509
C12   C     C_R   0.575879 0.071479 0.879013 -0.161746
C13   C     C_R   0.494556 0.737605 0.502006 0.778880
C14   C     C_R   0.715861 0.500406 0.500436 0.799640
C15   C     C_1   0.162394 0.499564 0.498789 -0.188873
C16   C     C_1   0.059905 0.499772 0.499240 -0.004328
C17   C     C_1   0.940086 0.500093 0.500381 -0.001621
C18   C     C_1   0.837598 0.500309 0.501017 -0.183612
C19   C     C_R   0.584414 0.127434 0.749944 -0.155825
C20   C     C_3   0.334081 0.338249 0.131067 -0.380397
C21   C     C_3   0.214449 0.383713 0.106051 -0.836858
C22   C     C_R   0.520290 0.955891 0.889355 -0.145938
C23   C     C_R   0.483935 0.891167 0.769162 -0.165351
C24   C     C_R   0.503371 0.941443 0.635353 0.092492
C25   C     C_R   0.536983 0.067741 0.628737 0.098293
C26   C     C_R   0.519969 0.129824 0.501929 -0.113688
C27   C     C_R   0.497539 0.061887 0.379073 -0.219676
C28   C     C_R   0.488231 0.934605 0.381383 -0.211392
Cu1   Cu    Cu3+1 0.499990 0.499990 0.640660 0.918635
Cu2   Cu    Cu3+1 0.500010 0.500010 0.359340 0.922482
H1    H     H_    0.486783 0.107047 0.280521 0.157991
H2    H     H_    0.660972 0.672446 0.257803 0.198691
H3    H     H_    0.786867 0.807582 0.134961 0.151750
H4    H     H_    0.208747 0.478882 0.148290 0.271904
H5    H     H_    0.193408 0.382847 0.993208 0.240716
H6    H     H_    0.150085 0.322277 0.159016 0.241747
H7    H     H_    0.338956 0.245140 0.082443 0.164963
H8    H     H_    0.344237 0.324376 0.242386 0.260609
H9    H     H_    0.786413 0.807091 0.879450 0.153915
H10   H     H_    0.659047 0.671642 0.750569 0.200045
H11   H     H_    0.369956 0.362585 0.862040 0.154926
H12   H     H_    0.629969 0.216611 0.746350 0.163141
H13   H     H_    0.609308 0.119461 0.971495 0.137479
H14   H     H_    0.507329 0.915047 0.990428 0.140544
H15   H     H_    0.436636 0.804653 0.784853 0.172350
H16   H     H_    0.476693 0.884869 0.283241 0.164990
N1    N     N_R   0.501070 0.501210 0.147910 -0.215653
N2    N     N_R   0.501110 0.501290 0.852040 -0.221652
O1    O     O_R   0.499990 0.319640 0.618810 -0.585936
O2    O     O_R   0.500000 0.319660 0.381240 -0.602332
O3    O     O_R   0.337190 0.500000 0.618790 -0.571335
O4    O     O_R   0.337200 0.500030 0.381210 -0.575439
O5    O     O_R   0.500000 0.680340 0.618760 -0.612206
O6    O     O_R   0.500010 0.680360 0.381190 -0.597759
O7    O     O_R   0.662800 0.499970 0.618790 -0.593597
O8    O     O_R   0.662810 0.500000 0.381210 -0.586244

loop_
_geom_bond_atom_site_label_1
_geom_bond_atom_site_label_2
_ccdc_geom_bond_type
C14   O8    A    
C7    H10   S    
C8    N2    A    
C11   H11   S    
C6    C7    A    
C3    C9    A    
Cu1   Cu2   S    
C20   H8    S    
C1    O2    A    
C14   C18   S    
Cu1   O7    S    
C19   H12   S    
C23   C24   A    
Cu2   O8    S    
C4    C15   S    
C14   O7    A    
C11   N2    A    
C7    C8    A    
C21   H6    S    
Cu1   O1    S    
C24   C25   A    
C20   H7    S    
Cu2   O6    S    
C28   H16   S    
C26   C27   A    
C1    C26   S    
Cu1   O5    S    
C4    O4    A    
C23   H15   S    
C5    C6    A    
C12   C19   A    
C9    N1    A    
C12   H13   S    
C13   O5    A    
C2    C24   A    
C3    H2    S    
C19   C25   A    
C21   H5    S    
C10   C11   A    
Cu1   N2    S    
C27   H1    S    
C15   C16   T    
C12   C22   A    
Cu2   N1    S    
C10   N1    A    
C20   C21   S    
C17   C18   T    
C13   O6    A    
Cu1   O3    S    
C27   C28   A    
C2    C13   S    
Cu2   O4    S    
C6    H9    S    
C16   C17   S    
C2    C28   A    
C21   H4    S    
C4    O3    A    
Cu2   O2    S    
C25   C26   A    
C22   C23   A    
C1    O1    A    
C22   H14   S    
C10   C20   S    
C8    C9    A    
C3    C5    A    
C5    H3    S    
