data_mof_unit_53286.cif
_audit_creation_date              2012-12-10T17:05:12-0500
_audit_creation_method            fapswitch 2.2
_symmetry_space_group_name_H-M    P1
_symmetry_Int_Tables_number       1
_space_group_crystal_system       triclinic
_cell_length_a                    10.736459
_cell_length_b                    11.031662
_cell_length_c                    9.825815
_cell_angle_alpha                 110.905025
_cell_angle_beta                  98.657076
_cell_angle_gamma                 91.148696
_cell_volume                      1071.35210449

loop_
_atom_site_label
_atom_site_type_symbol
_atom_type_description
_atom_site_fract_x
_atom_site_fract_y
_atom_site_fract_z
_atom_type_partial_charge
C1    C     C_R   0.490526 0.254157 0.440779 0.862663
C2    C     C_3   0.878552 0.505084 0.501759 0.118249
C3    C     C_3   0.946023 0.645466 0.592556 -0.097512
C4    C     C_3   0.905441 0.466266 0.340881 -0.436579
C5    C     C_2   0.484736 0.114946 0.407411 -0.367309
C6    C     C_2   0.499862 0.069478 0.516811 -0.167059
C7    C     C_2   0.513124 0.884979 0.592712 -0.366786
C8    C     C_2   0.495207 0.930413 0.483367 -0.158815
C9    C     C_2   0.511024 0.510198 0.081430 -0.078610
C10   C     C_2   0.488767 0.490055 0.918653 -0.082362
C11   C     C_R   0.259931 0.499026 0.500088 0.813097
C12   C     C_R   0.508882 0.745822 0.559250 0.887286
C13   C     C_R   0.740309 0.502626 0.500236 0.761795
C14   C     C_3   0.079249 0.405780 0.569480 -0.464617
C15   C     C_3   0.934961 0.401290 0.561518 -0.365832
C16   C     C_3   0.091791 0.642286 0.594379 0.098024
C17   C     C_3   0.047654 0.459726 0.339623 -0.388843
C18   C     C_3   0.122353 0.502428 0.500530 0.086273
Cu1   Cu    Cu3+1 0.522160 0.521810 0.644910 0.920812
Cu2   Cu    Cu3+1 0.477840 0.478190 0.355090 0.927739
H1    H     H_    0.126179 0.435292 0.686723 0.163697
H2    H     H_    0.869441 0.538086 0.291640 0.163588
H3    H     H_    0.910243 0.706265 0.527831 0.120717
H4    H     H_    0.477451 0.864865 0.368274 0.182209
H5    H     H_    0.516404 0.135010 0.631912 0.180680
H6    H     H_    0.530798 0.950797 0.707616 0.145963
H7    H     H_    0.468165 0.049100 0.292513 0.148725
H8    H     H_    0.413912 0.418836 0.845529 0.155870
H9    H     H_    0.585493 0.581858 0.154663 0.155540
H10   H     H_    0.626735 0.620675 0.934355 0.189857
H11   H     H_    0.107029 0.306551 0.509563 0.166836
H12   H     H_    0.374251 0.378230 0.065324 0.185555
H13   H     H_    0.892849 0.302701 0.486164 0.160076
H14   H     H_    0.911465 0.412516 0.670862 0.165832
H15   H     H_    0.142166 0.664319 0.709090 0.150711
H16   H     H_    0.078267 0.521478 0.280772 0.176277
H17   H     H_    0.066570 0.358098 0.275159 0.174456
H18   H     H_    0.856023 0.369654 0.269527 0.186463
N1    N     N_2   0.444530 0.445420 0.137360 -0.286534
N2    N     N_2   0.555520 0.554510 0.862630 -0.289344
O1    O     O_R   0.511820 0.332340 0.577400 -0.577943
O2    O     O_R   0.474400 0.295500 0.332650 -0.576770
O3    O     O_R   0.336400 0.518400 0.622370 -0.590142
O4    O     O_R   0.298980 0.481560 0.377620 -0.579397
O5    O     O_R   0.525600 0.704500 0.667350 -0.579387
O6    O     O_R   0.488180 0.667660 0.422600 -0.574158
O7    O     O_R   0.701020 0.518440 0.622380 -0.586576
O8    O     O_R   0.663600 0.481600 0.377630 -0.587574
N3    N     N_2   0.139602 0.737613 0.538953 -0.437136
H19   H     H_    0.094053 0.732851 0.436799 0.253386
C19   C     C_3   0.170308 0.869446 0.643610 -0.728507
H20   H     H_    0.223924 0.925538 0.594316 0.243533
H21   H     H_    0.230406 0.870368 0.746458 0.233976
H22   H     H_    0.082592 0.917638 0.669760 0.214817
C20   C     C_3   0.913152 0.721825 0.748733 -0.403688
C21   C     C_3   0.941731 0.659420 0.866526 -0.312944
C22   C     C_3   0.946050 0.759827 0.022018 -0.897608
H23   H     H_    0.024247 0.836279 0.048206 0.256752
H24   H     H_    0.855008 0.805790 0.031293 0.252477
H25   H     H_    0.962456 0.711320 0.103968 0.235197
H26   H     H_    0.866040 0.583306 0.849638 0.232789
H27   H     H_    0.033322 0.614887 0.861915 0.206978
H28   H     H_    0.966639 0.818819 0.791142 0.201819
H29   H     H_    0.812048 0.742519 0.737912 0.201320

loop_
_geom_bond_atom_site_label_1
_geom_bond_atom_site_label_2
_ccdc_geom_bond_type
C13   O8    A    
C2    C4    S    
C20   C21   S    
Cu1   O5    S    
C11   C18   S    
C11   O3    A    
C17   H16   S    
C4    H2    S    
C9    C10   S    
C14   C18   S    
C15   H14   S    
C3    H3    S    
Cu1   Cu2   S    
C9    H9    S    
C14   H11   S    
C19   H22   S    
C20   H29   S    
C2    C3    S    
H10   N2    S    
C11   O4    A    
C16   C18   S    
C17   H17   S    
C21   C22   S    
C2    C15   S    
C5    H7    S    
C22   H23   S    
C5    C6    D    
C7    H6    S    
C1    C5    S    
C4    C17   S    
C14   H1    S    
C1    O1    A    
C13   O7    A    
C8    H4    S    
C4    H18   S    
C17   C18   S    
Cu1   O7    S    
C16   H15   S    
C7    C12   S    
C21   H27   S    
Cu2   O2    S    
C6    H5    S    
C22   H24   S    
Cu1   N2    S    
C19   H21   S    
C19   H20   S    
C1    O2    A    
C7    C8    D    
C16   N3    S    
C10   N2    D    
N3    H19   S    
H12   N1    S    
C10   H8    S    
Cu2   N1    S    
C2    C13   S    
C21   H26   S    
C22   H25   S    
C6    C8    S    
Cu2   O8    S    
Cu2   O4    S    
C14   C15   S    
C3    C20   S    
C15   H13   S    
C9    N1    D    
Cu2   O6    S    
C3    C16   S    
Cu1   O1    S    
Cu1   O3    S    
C12   O5    A    
N3    C19   S    
C12   O6    A    
C20   H28   S    
