data_mof_unit_56356.cif
_audit_creation_date              2012-12-10T17:06:05-0500
_audit_creation_method            fapswitch 2.2
_symmetry_space_group_name_H-M    P1
_symmetry_Int_Tables_number       1
_space_group_crystal_system       triclinic
_cell_length_a                    25.914037
_cell_length_b                    25.896754
_cell_length_c                    18.282813
_cell_angle_alpha                 89.781228
_cell_angle_beta                  135.023614
_cell_angle_gamma                 90.211959
_cell_volume                      8672.12963677

loop_
_atom_site_label
_atom_site_type_symbol
_atom_type_description
_atom_site_fract_x
_atom_site_fract_y
_atom_site_fract_z
_atom_type_partial_charge
C1    C     C_R   0.889907 0.750061 0.779904 0.788997
C2    C     C_R   0.470730 0.197079 0.498272 0.108494
C3    C     C_R   0.315510 0.527362 0.572916 -0.071349
C4    C     C_R   0.842741 0.553240 0.700450 -0.176688
C5    C     C_R   0.840579 0.445636 0.699560 -0.171349
C6    C     C_R   0.390156 0.048144 0.620212 -0.157558
C7    C     C_R   0.384577 0.950772 0.677931 -0.147409
C8    C     C_R   0.887870 0.525914 0.793418 -0.149124
C9    C     C_R   0.886391 0.472326 0.792967 -0.140386
C10   C     C_R   0.454591 0.023032 0.704094 -0.161348
C11   C     C_R   0.451557 0.975496 0.736146 -0.145239
C12   C     C_R   0.796672 0.472341 0.604101 0.095575
C13   C     C_R   0.022728 0.238564 0.600776 0.100601
C14   C     C_R   0.797236 0.527106 0.604394 0.096819
C15   C     C_R   0.319206 0.973623 0.586206 0.092368
C16   C     C_R   0.320987 0.025961 0.567032 0.095108
C17   C     C_R   0.750446 0.553879 0.508400 -0.074144
C18   C     C_R   0.750243 0.445992 0.508078 -0.074464
C19   C     C_R   0.253601 0.053476 0.496120 -0.098857
C20   C     C_R   0.252302 0.946267 0.512289 -0.099332
C21   C     C_R   0.702414 0.526747 0.415149 -0.210431
C22   C     C_R   0.702434 0.473396 0.414979 -0.210926
C23   C     C_R   0.187450 0.026451 0.431428 -0.216716
C24   C     C_R   0.971305 0.696971 0.499383 0.099377
C25   C     C_R   0.187014 0.973279 0.436382 -0.217584
C26   C     C_R   0.750261 0.889960 0.500001 0.816507
C27   C     C_R   0.749427 0.110093 0.499538 0.813193
C28   C     C_R   0.250337 0.389936 0.500115 0.818118
C29   C     C_R   0.249513 0.610069 0.499619 0.813787
C30   C     C_R   0.888528 0.748722 0.497059 0.785365
C31   C     C_R   0.890687 0.249326 0.501309 0.787242
C32   C     C_R   0.388606 0.248806 0.497210 0.787119
C33   C     C_R   0.391021 0.749022 0.501979 0.790669
C34   C     C_R   0.611153 0.748937 0.502352 0.777927
C35   C     C_R   0.579130 0.743295 0.604144 0.082853
C36   C     C_R   0.608533 0.247970 0.497285 0.779481
C37   C     C_R   0.110837 0.249203 0.501727 0.778132
C38   C     C_R   0.108541 0.747961 0.497309 0.778256
C39   C     C_R   0.653221 0.739773 0.700135 -0.241370
C40   C     C_R   0.564005 0.148366 0.527110 -0.240419
C41   C     C_R   0.151174 0.230729 0.695977 -0.238599
C42   C     C_R   0.065674 0.648549 0.530554 -0.241259
C43   C     C_R   0.672836 0.736704 0.793878 0.074386
C44   C     C_R   0.542389 0.102667 0.541500 0.075062
C45   C     C_R   0.169869 0.221399 0.787973 0.075135
C46   C     C_R   0.529206 0.196436 0.506248 0.080931
C47   C     C_R   0.044713 0.602887 0.546089 0.068539
C48   C     C_R   0.617872 0.734287 0.791734 -0.201140
C49   C     C_R   0.479254 0.103648 0.521013 -0.202488
C50   C     C_R   0.114879 0.219574 0.785771 -0.198471
C51   C     C_R   0.981181 0.603667 0.524666 -0.188955
C52   C     C_R   0.884849 0.944816 0.657190 0.131349
C53   C     C_R   0.920780 0.946403 0.761011 -0.110334
C54   C     C_R   0.987033 0.920544 0.837039 -0.154966
C55   C     C_R   0.017289 0.892390 0.809781 -0.125557
C56   C     C_R   0.981548 0.890325 0.706475 -0.144451
C57   C     C_R   0.077769 0.239300 0.601477 0.082395
C58   C     C_R   0.915711 0.916643 0.630377 -0.161046
C59   C     C_R   0.883335 0.056924 0.657238 0.114217
C60   C     C_R   0.932841 0.063330 0.648939 -0.123741
C61   C     C_R   0.995771 0.093244 0.721532 -0.144065
C62   C     C_R   0.009593 0.116792 0.802690 -0.143055
C63   C     C_R   0.960670 0.110320 0.811639 -0.136066
C64   C     C_R   0.897738 0.080426 0.739272 -0.128437
C65   C     C_R   0.385702 0.444450 0.650310 0.128865
C66   C     C_R   0.422523 0.443990 0.754576 -0.119728
C67   C     C_R   0.487062 0.415775 0.827403 -0.153320
C68   C     C_R   0.029949 0.696430 0.507753 0.080587
C69   C     C_R   0.514943 0.387681 0.796519 -0.111259
C70   C     C_R   0.478594 0.388037 0.692837 -0.148109
C71   C     C_R   0.414271 0.416443 0.619888 -0.156696
C72   C     C_R   0.384942 0.556758 0.648809 0.114836
C73   C     C_R   0.430969 0.562265 0.634042 -0.121809
C74   C     C_R   0.494202 0.592432 0.702245 -0.137606
C75   C     C_R   0.511841 0.617099 0.785508 -0.141582
C76   C     C_R   0.466449 0.611474 0.800979 -0.144426
C77   C     C_R   0.403214 0.581337 0.732997 -0.133091
C78   C     C_R   0.750747 0.737358 0.894336 0.110601
C79   C     C_R   0.558020 0.746196 0.508274 -0.059268
C80   C     C_R   0.799540 0.772966 0.911444 -0.157302
C81   C     C_R   0.871693 0.776091 0.008307 -0.118701
C82   C     C_R   0.896164 0.743341 0.088522 -0.088854
C83   C     C_R   0.848677 0.707108 0.071822 -0.128688
C84   C     C_R   0.776224 0.704175 0.975405 -0.160001
C85   C     C_R   0.587062 0.054512 0.582495 0.108933
C86   C     C_R   0.626853 0.041565 0.559121 -0.142978
C87   C     C_R   0.671363 0.997706 0.602954 -0.118065
C88   C     C_R   0.675812 0.965682 0.668731 -0.110173
C89   C     C_R   0.636395 0.977722 0.692085 -0.131050
C90   C     C_R   0.550030 0.243991 0.492754 -0.073250
C91   C     C_R   0.592775 0.021927 0.650066 -0.146194
C92   C     C_R   0.247057 0.213967 0.886874 0.108134
C93   C     C_R   0.300509 0.249717 0.918258 -0.160156
C94   C     C_R   0.372712 0.244192 0.014045 -0.119483
C95   C     C_R   0.392676 0.202319 0.078070 -0.090111
C96   C     C_R   0.340143 0.166168 0.046900 -0.132321
C97   C     C_R   0.267460 0.172112 0.952088 -0.164941
C98   C     C_R   0.090323 0.555029 0.588857 0.106366
C99   C     C_R   0.132442 0.542830 0.569005 -0.139310
C100  C     C_R   0.177696 0.499351 0.614283 -0.115346
C101  C     C_R   0.057254 0.246817 0.506765 -0.055694
C102  C     C_R   0.180686 0.466904 0.678219 -0.110310
C103  C     C_R   0.139151 0.478199 0.698356 -0.129388
C104  C     C_R   0.094764 0.522050 0.654856 -0.146651
C105  C     C_R   0.889348 0.250551 0.780033 0.783112
C106  C     C_R   0.050027 0.743895 0.492762 -0.073882
C107  C     C_R   0.484266 0.746369 0.414909 -0.209478
C108  C     C_R   0.513884 0.289869 0.473907 -0.210648
C109  C     C_R   0.983782 0.251685 0.413851 -0.209593
C110  C     C_R   0.013049 0.789591 0.472267 -0.214837
C111  C     C_R   0.430804 0.746483 0.414660 -0.209204
C112  C     C_R   0.460545 0.290518 0.473656 -0.223016
C113  C     C_R   0.930278 0.251816 0.413633 -0.208195
C114  C     C_R   0.959683 0.790219 0.471943 -0.221761
C115  C     C_R   0.449922 0.745978 0.507750 -0.070437
C116  C     C_R   0.389271 0.249314 0.779924 0.791436
C117  C     C_R   0.440106 0.244951 0.488517 -0.075672
C118  C     C_R   0.949157 0.246665 0.506221 -0.065823
C119  C     C_R   0.939956 0.744769 0.488222 -0.076114
C120  C     C_R   0.456844 0.768890 0.108305 -0.179447
C121  C     C_R   0.537125 0.151861 0.107741 -0.181984
C122  C     C_R   0.957050 0.269703 0.108283 -0.179039
C123  C     C_R   0.007584 0.663299 0.107654 -0.178209
C124  C     C_R   0.383966 0.776335 0.054345 -0.143972
C125  C     C_R   0.502974 0.105917 0.053418 -0.142574
C126  C     C_R   0.884249 0.277645 0.054303 -0.144639
C127  C     C_R   0.389328 0.750568 0.780037 0.783216
C128  C     C_R   0.955860 0.623762 0.053071 -0.124190
C129  C     C_R   0.330108 0.776080 0.946764 -0.134993
C130  C     C_R   0.448331 0.106182 0.945921 -0.131498
C131  C     C_R   0.830400 0.277442 0.946712 -0.135258
C132  C     C_R   0.899841 0.625311 0.945582 -0.146791
C133  C     C_R   0.609313 0.750743 0.219940 0.777964
C134  C     C_R   0.609313 0.249151 0.220021 0.773832
C135  C     C_R   0.109335 0.250719 0.219937 0.778212
C136  C     C_R   0.109805 0.749703 0.220025 0.774835
C137  C     C_R   0.348762 0.768400 0.892402 -0.178003
C138  C     C_R   0.544690 0.736480 0.698176 -0.199148
C139  C     C_R   0.427818 0.152349 0.891916 -0.163075
C140  C     C_R   0.848981 0.269305 0.892359 -0.179441
C141  C     C_R   0.896048 0.665778 0.891517 -0.174925
C142  C     C_R   0.422192 0.759807 0.945349 0.094549
C143  C     C_R   0.463084 0.199300 0.945100 0.101702
C144  C     C_R   0.922320 0.260236 0.945330 0.092907
C145  C     C_R   0.947894 0.706150 0.944977 0.108882
C146  C     C_R   0.477057 0.760029 0.054968 0.099091
C147  C     C_R   0.518376 0.199134 0.054736 0.098172
C148  C     C_R   0.977178 0.260428 0.054949 0.099133
C149  C     C_R   0.443322 0.149796 0.498134 -0.194877
C150  C     C_R   0.003710 0.705404 0.054597 0.097056
C151  C     C_R   0.550835 0.753244 0.107856 -0.066833
C152  C     C_R   0.551156 0.246617 0.107852 -0.075996
C153  C     C_R   0.050886 0.253182 0.107847 -0.067025
C154  C     C_R   0.052138 0.747871 0.107846 -0.064856
C155  C     C_R   0.569831 0.748820 0.053235 -0.211700
C156  C     C_R   0.527752 0.293072 0.053308 -0.238019
C157  C     C_R   0.069834 0.248252 0.053235 -0.211001
C158  C     C_R   0.044805 0.790155 0.053496 -0.227113
C159  C     C_R   0.516312 0.748615 0.946279 -0.225695
C160  C     C_R   0.042335 0.227894 0.693672 -0.199651
C161  C     C_R   0.473988 0.293151 0.946349 -0.226661
C162  C     C_R   0.016309 0.248050 0.946270 -0.220833
C163  C     C_R   0.991297 0.790211 0.946323 -0.226235
C164  C     C_R   0.442866 0.752877 0.892089 -0.073274
C165  C     C_R   0.442821 0.246787 0.891996 -0.070037
C166  C     C_R   0.942918 0.252833 0.892081 -0.075214
C167  C     C_R   0.943847 0.748337 0.891972 -0.061044
C168  C     C_R   0.616568 0.945868 0.341948 -0.149722
C169  C     C_R   0.615756 0.053554 0.343169 -0.185801
C170  C     C_R   0.115169 0.445632 0.353228 -0.150642
C171  C     C_R   0.944481 0.649643 0.500266 -0.183971
C172  C     C_R   0.114399 0.553336 0.353883 -0.181972
C173  C     C_R   0.551253 0.972688 0.267251 -0.130706
C174  C     C_R   0.550807 0.026368 0.268173 -0.156473
C175  C     C_R   0.049222 0.472330 0.284905 -0.129045
C176  C     C_R   0.048838 0.525991 0.285860 -0.140534
C177  C     C_R   0.682658 0.027164 0.420099 0.072791
C178  C     C_R   0.683091 0.972618 0.419595 0.071391
C179  C     C_R   0.181973 0.527045 0.425351 0.069773
C180  C     C_R   0.182343 0.472497 0.425047 0.072040
C181  C     C_R   0.750131 0.609978 0.502369 0.774972
C182  C     C_R   0.524134 0.742466 0.603531 0.101311
C183  C     C_R   0.750118 0.389988 0.502068 0.782334
C184  C     C_R   0.250698 0.109869 0.497093 0.790585
C185  C     C_R   0.250466 0.890018 0.504731 0.797060
C186  C     C_R   0.749464 0.946117 0.498141 -0.144957
C187  C     C_R   0.748568 0.054003 0.498935 -0.132625
C188  C     C_R   0.249462 0.446063 0.498397 -0.140667
C189  C     C_R   0.248752 0.553941 0.499115 -0.132000
C190  C     C_R   0.815206 0.973205 0.576468 -0.077135
C191  C     C_R   0.814558 0.027447 0.577155 -0.071824
C192  C     C_R   0.315947 0.473124 0.572341 -0.076971
H1    H     H_    0.467947 0.747970 0.341577 0.152461
H2    H     H_    0.383323 0.150728 0.808568 0.143690
H3    H     H_    0.130648 0.566669 0.518718 0.130854
H4    H     H_    0.211008 0.490859 0.600584 0.145442
H5    H     H_    0.215618 0.433222 0.712762 0.138054
H6    H     H_    0.142036 0.453311 0.748861 0.139116
H7    H     H_    0.065275 0.530607 0.675063 0.132116
H8    H     H_    0.805462 0.271257 0.808904 0.145420
H9    H     H_    0.851457 0.665728 0.807990 0.108676
H10   H     H_    0.532151 0.743927 0.905423 0.148100
H11   H     H_    0.457557 0.329550 0.905584 0.160993
H12   H     H_    0.032084 0.242974 0.905404 0.150568
H13   H     H_    0.987140 0.822854 0.905350 0.155135
H14   H     H_    0.614207 0.904117 0.338756 0.117462
H15   H     H_    0.612780 0.095273 0.341358 0.106165
H16   H     H_    0.112842 0.403873 0.350330 0.114761
H17   H     H_    0.529156 0.326097 0.463522 0.167493
H18   H     H_    0.111478 0.595067 0.352083 0.106097
H19   H     H_    0.500717 0.951708 0.208731 0.131363
H20   H     H_    0.499890 0.047061 0.210618 0.129029
H21   H     H_    0.998175 0.451272 0.231595 0.129194
H22   H     H_    0.997450 0.546449 0.234504 0.120277
H23   H     H_    0.665999 0.547046 0.341717 0.160023
H24   H     H_    0.666091 0.453322 0.341441 0.157275
H25   H     H_    0.135628 0.046379 0.375494 0.178772
H26   H     H_    0.135139 0.953318 0.380615 0.177122
H27   H     H_    0.843391 0.594758 0.705531 0.152909
H28   H     H_    0.967913 0.256721 0.341229 0.146653
H29   H     H_    0.839264 0.404117 0.703725 0.150307
H30   H     H_    0.396250 0.083803 0.596343 0.169078
H31   H     H_    0.384884 0.914461 0.707463 0.164316
H32   H     H_    0.923409 0.546377 0.866256 0.152723
H33   H     H_    0.920191 0.451314 0.865332 0.143169
H34   H     H_    0.506856 0.041019 0.745488 0.139884
H35   H     H_    0.501285 0.957079 0.804540 0.142979
H36   H     H_    0.696640 0.738258 0.703784 0.152349
H37   H     H_    0.609175 0.145429 0.535451 0.172249
H38   H     H_    0.194424 0.229738 0.699134 0.147845
H39   H     H_    0.027713 0.825746 0.460713 0.166322
H40   H     H_    0.111064 0.645742 0.539508 0.173818
H41   H     H_    0.128214 0.212178 0.855946 0.132002
H42   H     H_    0.959758 0.568589 0.527467 0.139552
H43   H     H_    0.631493 0.731378 0.862914 0.131221
H44   H     H_    0.457613 0.068560 0.523409 0.136561
H45   H     H_    0.504800 0.732906 0.701449 0.157406
H46   H     H_    0.393702 0.147634 0.480181 0.147031
H47   H     H_    0.001963 0.224996 0.696160 0.153781
H48   H     H_    0.894711 0.647299 0.481909 0.157753
H49   H     H_    0.374025 0.748258 0.341200 0.157832
H50   H     H_    0.273692 0.782586 0.905171 0.137105
H51   H     H_    0.436375 0.327169 0.464427 0.161442
H52   H     H_    0.873803 0.257036 0.340912 0.153028
H53   H     H_    0.934947 0.826798 0.461559 0.162291
H54   H     H_    0.626390 0.744285 0.093767 0.153287
H55   H     H_    0.552154 0.329452 0.093878 0.156177
H56   H     H_    0.126346 0.243339 0.093783 0.154432
H57   H     H_    0.081381 0.822949 0.094354 0.144080
H58   H     H_    0.496839 0.771245 0.191727 0.140563
H59   H     H_    0.577090 0.149797 0.191148 0.142548
H60   H     H_    0.997075 0.271981 0.191723 0.139540
H61   H     H_    0.421132 0.070518 0.904143 0.139043
H62   H     H_    0.049258 0.661215 0.191296 0.118287
H63   H     H_    0.369348 0.783039 0.096235 0.131803
H64   H     H_    0.518359 0.069978 0.094844 0.147641
H65   H     H_    0.869690 0.284677 0.096185 0.131068
H66   H     H_    0.958531 0.592071 0.094126 0.126553
H67   H     H_    0.897527 0.967712 0.782896 0.120994
H68   H     H_    0.014730 0.922070 0.917055 0.127702
H69   H     H_    0.068355 0.872110 0.868698 0.127887
H70   H     H_    0.004981 0.868503 0.685398 0.130022
H71   H     H_    0.888911 0.915254 0.550743 0.138508
H72   H     H_    0.774051 0.284317 0.905108 0.136522
H73   H     H_    0.922211 0.045665 0.585741 0.133029
H74   H     H_    0.033624 0.098425 0.714577 0.139589
H75   H     H_    0.058151 0.140078 0.858583 0.120306
H76   H     H_    0.971349 0.128653 0.874375 0.141452
H77   H     H_    0.859916 0.075901 0.746473 0.141153
H78   H     H_    0.400904 0.465112 0.779087 0.121520
H79   H     H_    0.515253 0.415449 0.907697 0.124561
H80   H     H_    0.564686 0.365630 0.852915 0.128366
H81   H     H_    0.500175 0.366239 0.668950 0.129240
H82   H     H_    0.386517 0.416433 0.539751 0.139754
H83   H     H_    0.859175 0.594952 0.903881 0.133016
H84   H     H_    0.417310 0.543794 0.569080 0.132723
H85   H     H_    0.529297 0.596970 0.690203 0.138641
H86   H     H_    0.560604 0.640618 0.837931 0.123072
H87   H     H_    0.480060 0.630678 0.865323 0.139376
H88   H     H_    0.368094 0.577530 0.745170 0.141677
H89   H     H_    0.781364 0.799260 0.850784 0.141472
H90   H     H_    0.908645 0.804003 0.021236 0.148082
H91   H     H_    0.952088 0.745789 0.163421 0.136827
H92   H     H_    0.867916 0.681463 0.133818 0.124797
H93   H     H_    0.740112 0.676014 0.964097 0.117248
H94   H     H_    0.305203 0.770355 0.808960 0.146594
H95   H     H_    0.623658 0.065065 0.507062 0.129589
H96   H     H_    0.702937 0.988544 0.586671 0.147421
H97   H     H_    0.710174 0.931714 0.702092 0.138346
H98   H     H_    0.640315 0.953133 0.743863 0.135822
H99   H     H_    0.564823 0.031078 0.672480 0.121892
H100  H     H_    0.285985 0.282555 0.869852 0.141380
H101  H     H_    0.413060 0.272639 0.038902 0.155638
H102  H     H_    0.448767 0.198009 0.151945 0.117411
H103  H     H_    0.355633 0.133746 0.096563 0.125202
H104  H     H_    0.227241 0.143976 0.929312 0.121834
O1    O     O_3   0.750020 0.750020 0.500000 -0.478950
O2    O     O_R   0.750010 0.134170 0.560720 -0.654781
O3    O     O_R   0.250010 0.365830 0.560720 -0.639614
O4    O     O_R   0.250010 0.634170 0.560720 -0.657368
O5    O     O_R   0.896180 0.719660 0.731600 -0.636333
O6    O     O_R   0.896180 0.280340 0.731600 -0.641820
O7    O     O_R   0.396180 0.219660 0.731600 -0.638690
O8    O     O_R   0.396180 0.780340 0.731600 -0.647134
O9    O     O_R   0.664580 0.780370 0.268400 -0.637812
O10   O     O_R   0.664580 0.219630 0.268400 -0.642221
O11   O     O_R   0.164580 0.280370 0.268400 -0.636756
O12   O     O_3   0.750020 0.249980 0.500000 -0.478368
O13   O     O_R   0.164580 0.719630 0.268400 -0.634723
O14   O     O_R   0.835450 0.780390 0.731600 -0.646968
O15   O     O_R   0.835450 0.219610 0.731600 -0.641740
O16   O     O_R   0.335450 0.280390 0.731600 -0.644759
O17   O     O_R   0.335450 0.719610 0.731600 -0.641211
O18   O     O_R   0.603870 0.719650 0.268400 -0.643748
O19   O     O_R   0.603870 0.280350 0.268400 -0.643912
O20   O     O_R   0.103870 0.219650 0.268400 -0.645533
O21   O     O_R   0.103870 0.780350 0.268400 -0.648054
O22   O     O_R   0.810750 0.634210 0.560720 -0.654668
O23   O     O_3   0.250020 0.250020 0.500000 -0.477295
O24   O     O_R   0.810750 0.365790 0.560720 -0.643944
O25   O     O_R   0.310750 0.134210 0.560720 -0.667267
O26   O     O_R   0.310750 0.865790 0.560720 -0.651483
O27   O     O_R   0.750010 0.865820 0.439280 -0.643258
O28   O     O_R   0.750010 0.134180 0.439280 -0.634956
O29   O     O_R   0.250010 0.365820 0.439280 -0.641921
O30   O     O_R   0.250010 0.634180 0.439280 -0.630262
O31   O     O_R   0.896180 0.719650 0.560720 -0.639610
O32   O     O_R   0.896180 0.280350 0.560720 -0.639918
O33   O     O_R   0.396180 0.219650 0.560720 -0.646826
O34   O     O_3   0.250020 0.749980 0.500000 -0.476382
O35   O     O_R   0.396180 0.780350 0.560720 -0.641999
O36   O     O_R   0.664570 0.780390 0.560720 -0.652334
O37   O     O_R   0.664570 0.219610 0.560720 -0.661677
O38   O     O_R   0.164570 0.280390 0.560720 -0.649143
O39   O     O_R   0.164570 0.719610 0.560720 -0.661071
O40   O     O_R   0.835460 0.780370 0.439280 -0.642371
O41   O     O_R   0.835460 0.219630 0.439280 -0.631993
O42   O     O_R   0.335460 0.280370 0.439280 -0.640718
O43   O     O_R   0.335460 0.719630 0.439280 -0.633262
O44   O     O_R   0.603860 0.719660 0.439280 -0.639644
O45   O     O_R   0.689310 0.634210 0.439280 -0.633255
O46   O     O_R   0.603860 0.280340 0.439280 -0.637872
O47   O     O_R   0.103860 0.219660 0.439280 -0.638726
O48   O     O_R   0.103860 0.780340 0.439280 -0.643592
O49   O     O_R   0.689310 0.365790 0.439280 -0.637972
O50   O     O_R   0.189310 0.134210 0.439280 -0.637390
O51   O     O_R   0.189310 0.865790 0.439280 -0.642639
O52   O     O_R   0.750010 0.865830 0.560720 -0.638401
Zn1   Zn    Zn3+2 0.663270 0.706640 0.413250 0.958507
Zn2   Zn    Zn3+2 0.750020 0.206610 0.413240 0.971066
Zn3   Zn    Zn3+2 0.250020 0.293390 0.413240 0.967422
Zn4   Zn    Zn3+2 0.250020 0.706610 0.413240 0.977882
Zn5   Zn    Zn3+2 0.750010 0.793400 0.586760 0.952849
Zn6   Zn    Zn3+2 0.750010 0.206600 0.586760 0.946183
Zn7   Zn    Zn3+2 0.250010 0.293400 0.586760 0.958785
Zn8   Zn    Zn3+2 0.250010 0.706600 0.586760 0.946262
Zn9   Zn    Zn3+2 0.663270 0.293360 0.413250 0.954607
Zn10  Zn    Zn3+2 0.163270 0.206640 0.413250 0.957594
Zn11  Zn    Zn3+2 0.163270 0.793360 0.413250 0.949172
Zn12  Zn    Zn3+2 0.836780 0.706640 0.586750 0.961428
Zn13  Zn    Zn3+2 0.836780 0.293360 0.586750 0.967087
Zn14  Zn    Zn3+2 0.336780 0.206640 0.586750 0.953801
Zn15  Zn    Zn3+2 0.336780 0.793360 0.586750 0.960959
Zn16  Zn    Zn3+2 0.750020 0.793390 0.413240 0.965241

loop_
_geom_bond_atom_site_label_1
_geom_bond_atom_site_label_2
_ccdc_geom_bond_type
C74   H85   S    
C120  C146  A    
O1    Zn16  S    
C58   H71   S    
C54   H68   S    
C142  C146  A    
C59   C191  S    
C133  C151  S    
C60   H73   S    
C84   H93   S    
O24   Zn13  S    
C40   C46   A    
C91   H99   S    
C47   C98   S    
O21   Zn11  S    
O18   Zn1   S    
C120  H58   S    
C154  C158  A    
C3    C189  A    
O27   Zn16  S    
C121  H59   S    
C1    C167  S    
C99   H3    S    
C86   H95   S    
C24   C171  A    
C181  O45   A    
C131  C140  A    
C152  C156  A    
C169  C174  A    
C121  C147  A    
C151  C155  A    
C32   O42   A    
C13   C160  A    
C126  H65   S    
C141  C145  A    
C7    C15   A    
C80   H89   S    
C70   H81   S    
C21   C22   A    
O13   Zn4   S    
C25   H26   S    
C133  O18   A    
C2    C117  A    
C100  H4    S    
C15   C20   A    
O19   Zn9   S    
C5    C12   A    
C50   C160  A    
O36   Zn5   S    
O17   Zn8   S    
C17   C21   A    
C162  H12   S    
C186  C190  A    
C50   H41   S    
C19   C23   A    
C75   C76   A    
C66   H78   S    
O47   Zn10  S    
C7    H31   S    
C175  C176  A    
C4    H27   S    
C27   C187  S    
C39   H36   S    
C52   C58   A    
C26   O27   A    
C172  C179  A    
C29   C189  S    
C38   O39   A    
C56   H70   S    
O25   Zn14  S    
O48   Zn11  S    
C72   C73   A    
C156  H55   S    
C169  H15   S    
C48   C138  A    
O2    Zn6   S    
C3    C72   S    
C140  H8    S    
C109  H28   S    
O33   Zn14  S    
C18   C183  S    
C4    C14   A    
C69   C70   A    
C138  C182  A    
C157  H56   S    
C6    C16   A    
C178  C186  A    
C129  C137  A    
C88   C89   A    
C98   C99   A    
C20   C25   A    
C34   O36   A    
C41   C45   A    
C157  C162  A    
C161  C165  A    
O34   Zn11  S    
C6    H30   S    
C137  C142  A    
C23   H25   S    
C38   C106  S    
C127  C164  S    
C97   H104  S    
C163  C167  A    
C158  H57   S    
C32   C117  S    
C13   C118  A    
C85   C86   A    
C121  C125  A    
C45   C50   A    
C94   H101  S    
C78   C80   A    
C114  H53   S    
C13   C57   A    
C129  H50   S    
O6    Zn13  S    
C105  C166  S    
C29   O30   A    
C45   C92   S    
C123  H62   S    
C83   H92   S    
C139  C143  A    
C143  C165  A    
C28   O29   A    
O12   Zn2   S    
C89   C91   A    
C110  C114  A    
C145  C150  A    
C185  O26   A    
O44   Zn1   S    
C66   C67   A    
C123  C150  A    
C111  H49   S    
C14   C17   A    
C1    O14   A    
C124  H63   S    
C169  C177  A    
C92   C97   A    
C155  C159  A    
C95   H102  S    
C102  H5    S    
C127  O8    A    
O34   Zn8   S    
C122  H60   S    
C31   C118  S    
C170  H16   S    
C34   C79   S    
C83   C84   A    
C179  C189  A    
C184  O50   A    
O37   Zn6   S    
C158  C163  A    
C127  O17   A    
C156  C161  A    
C177  C178  A    
C122  C148  A    
C26   O52   A    
C44   C85   S    
O38   Zn7   S    
C115  C182  A    
C52   C53   A    
C36   C90   S    
C132  C141  A    
C54   C55   A    
C27   O28   A    
C28   O3    A    
C93   H100  S    
O49   Zn9   S    
C18   C22   A    
C107  C111  A    
O51   Zn11  S    
C8    H32   S    
C19   C184  S    
C57   C101  A    
C188  C192  A    
C30   O40   A    
C96   H103  S    
C90   C108  A    
C3    C192  A    
C105  O15   A    
C69   H80   S    
C37   C101  S    
C26   C186  S    
C137  H94   S    
O15   Zn6   S    
C35   C79   A    
C56   C58   A    
C61   C62   A    
C61   H74   S    
C48   H43   S    
C110  H39   S    
C146  C151  A    
C17   C181  S    
C59   C60   A    
C41   H38   S    
C11   H35   S    
C38   O48   A    
C32   O33   A    
C159  C164  A    
C9    H33   S    
C36   O46   A    
C40   H37   S    
O46   Zn9   S    
C134  O19   A    
C172  C176  A    
C42   H40   S    
C136  O13   A    
C55   C56   A    
O35   Zn15  S    
C160  H47   S    
C73   C74   A    
O26   Zn15  S    
O31   Zn12  S    
C183  O49   A    
C43   C78   S    
C33   O43   A    
C5    C9    A    
C190  C191  A    
C77   H88   S    
C31   O32   A    
O3    Zn7   S    
C49   H44   S    
C28   C188  S    
C142  C164  A    
C112  C117  A    
O8    Zn15  S    
C171  H48   S    
C73   H84   S    
C101  C109  A    
C138  H45   S    
O50   Zn10  S    
O23   Zn7   S    
C180  C188  A    
O34   Zn15  S    
C162  C166  A    
C37   O47   A    
C21   H23   S    
C70   C71   A    
C63   H76   S    
C31   O41   A    
C144  C148  A    
C67   H79   S    
C173  H19   S    
O23   Zn10  S    
C130  C139  A    
C108  H17   S    
O9    Zn16  S    
O22   Zn12  S    
C170  C175  A    
O12   Zn9   S    
C33   C115  S    
C75   H86   S    
C88   H97   S    
O34   Zn4   S    
C87   H96   S    
C86   C87   A    
C159  H10   S    
C47   C51   A    
C53   C54   A    
C132  H83   S    
C108  C112  A    
C144  C166  A    
C60   C61   A    
C103  H6    S    
C125  H64   S    
C143  C147  A    
C62   C63   A    
C136  C154  S    
C113  H52   S    
C134  C152  S    
C30   O31   A    
C79   C107  A    
C52   C190  S    
O1    Zn5   S    
C116  C165  S    
C145  C167  A    
C24   C119  A    
O42   Zn3   S    
C76   H87   S    
C33   O35   A    
C81   H90   S    
C140  C144  A    
O29   Zn3   S    
C6    C10   A    
C46   C90   A    
C181  O22   A    
O40   Zn16  S    
C177  C187  A    
O1    Zn12  S    
C183  O24   A    
C41   C57   A    
O41   Zn2   S    
C34   O44   A    
C16   C19   A    
O43   Zn4   S    
O12   Zn6   S    
C92   C93   A    
C124  C129  A    
C105  O6    A    
C153  C157  A    
C94   C95   A    
C64   H77   S    
C24   C68   A    
C179  C180  A    
C130  H61   S    
C135  O20   A    
C87   C88   A    
C82   C83   A    
C103  C104  A    
C185  O51   A    
O16   Zn7   S    
C134  O10   A    
O11   Zn3   S    
C44   C49   A    
C5    H29   S    
C93   C94   A    
C53   H67   S    
C22   H24   S    
C35   C39   A    
C95   C96   A    
C4    C8    A    
C81   C82   A    
C85   C91   A    
C135  O11   A    
C173  C174  A    
C2    C46   A    
C35   C182  A    
C7    C11   A    
C59   C64   A    
C51   H42   S    
C174  H20   S    
C175  H21   S    
C141  H9    S    
C172  H18   S    
C29   O4    A    
C168  C178  A    
C30   C119  S    
C15   C16   A    
O23   Zn3   S    
C71   H82   S    
C20   C185  S    
O45   Zn1   S    
C125  C130  A    
C112  H51   S    
O1    Zn1   S    
C8    C9    A    
O14   Zn5   S    
C37   O38   A    
C187  C191  A    
C139  H2    S    
C109  C113  A    
C2    C149  A    
C42   C68   A    
C27   O2    A    
C1    O5    A    
C102  C103  A    
C68   C106  A    
O20   Zn10  S    
C82   H91   S    
C128  C132  A    
O52   Zn5   S    
C149  H46   S    
C168  C173  A    
C74   C75   A    
C184  O25   A    
O39   Zn8   S    
C76   C77   A    
C10   C11   A    
O10   Zn2   S    
C39   C43   A    
C116  O7    A    
C65   C71   A    
C163  H13   S    
O28   Zn2   S    
C63   C64   A    
C170  C180  A    
C67   C69   A    
C128  H66   S    
C122  C126  A    
O30   Zn4   S    
C72   C77   A    
O5    Zn12  S    
C62   H75   S    
C99   C100  A    
C65   C192  S    
C40   C44   A    
C136  O21   A    
O7    Zn14  S    
C96   C97   A    
C100  C102  A    
O23   Zn14  S    
C133  O9    A    
C116  O16   A    
C12   C14   A    
O12   Zn13  S    
C36   O37   A    
C150  C154  A    
C104  H7    S    
C168  H14   S    
C107  H1    S    
C131  H72   S    
C43   C48   A    
C155  H54   S    
C55   H69   S    
C161  H11   S    
C114  C119  A    
C80   C81   A    
C135  C153  S    
C49   C149  A    
C51   C171  A    
C147  C152  A    
O4    Zn8   S    
C123  C128  A    
C126  C131  A    
C98   C104  A    
C176  H22   S    
C42   C47   A    
C23   C25   A    
C113  C118  A    
C78   C84   A    
C89   H98   S    
O32   Zn13  S    
C106  C110  A    
C65   C66   A    
C148  C153  A    
C12   C18   A    
C10   H34   S    
C111  C115  A    
C120  C124  A    
