data_mof_unit_15374.cif
_audit_creation_date              2012-12-10T17:02:18-0500
_audit_creation_method            fapswitch 2.2
_symmetry_space_group_name_H-M    P1
_symmetry_Int_Tables_number       1
_space_group_crystal_system       triclinic
_cell_length_a                    10.641989
_cell_length_b                    10.683631
_cell_length_c                    10.036142
_cell_angle_alpha                 91.092626
_cell_angle_beta                  90.025475
_cell_angle_gamma                 89.981196
_cell_volume                      1140.8523587

loop_
_atom_site_label
_atom_site_type_symbol
_atom_type_description
_atom_site_fract_x
_atom_site_fract_y
_atom_site_fract_z
_atom_type_partial_charge
C1    C     C_R   0.505313 0.262681 0.498368 0.948176
C2    C     C_2   0.509739 0.130044 0.493358 -0.336782
C3    C     C_2   0.573553 0.572154 0.925189 0.485811
C4    C     C_R   0.260761 0.502618 0.500044 0.862898
C5    C     C_2   0.580297 0.562894 0.076239 -0.248210
C6    C     C_R   0.506055 0.737417 0.501439 0.908079
C7    C     C_R   0.739403 0.499995 0.500077 0.862175
C8    C     C_R   0.128905 0.721537 0.409887 -0.172169
C9    C     C_R   0.062159 0.825486 0.366626 -0.110828
C10   C     C_R   0.931475 0.824090 0.366933 -0.113555
C11   C     C_R   0.867259 0.718719 0.410418 -0.165537
C12   C     C_R   0.064963 0.613657 0.453620 0.095768
C13   C     C_R   0.933485 0.611813 0.453974 0.099123
C14   C     C_2   0.873469 0.285004 0.597936 0.478174
C15   C     C_2   0.670531 0.117688 0.308158 0.429682
C16   C     C_R   0.128681 0.507990 0.500294 -0.131625
C17   C     C_R   0.067129 0.403961 0.549010 -0.181400
C18   C     C_R   0.937792 0.399590 0.549428 -0.027335
C19   C     C_R   0.872057 0.503697 0.500600 -0.162387
C20   C     C_2   0.560077 0.929746 0.396413 -0.287129
C21   C     C_2   0.532056 0.867939 0.506694 -0.312234
C22   C     C_2   0.578453 0.064192 0.403170 0.030165
H1    H     H_    0.121242 0.325093 0.584425 0.183549
H2    H     H_    0.569909 0.881647 0.300503 0.170360
H3    H     H_    0.535165 0.912353 0.604938 0.174731
H4    H     H_    0.697977 0.704533 0.928891 0.310999
H5    H     H_    0.772010 0.277028 0.595934 0.084859
H6    H     H_    0.698088 0.063164 0.220596 0.045682
H7    H     H_    0.444674 0.085702 0.560997 0.135410
H8    H     H_    0.451329 0.431776 0.897210 0.112655
H9    H     H_    0.654444 0.613785 0.128036 0.166252
H10   H     H_    0.425662 0.460343 0.101101 0.160258
H11   H     H_    0.230379 0.727094 0.410083 0.142361
H12   H     H_    0.111979 0.907601 0.333631 0.148265
H13   H     H_    0.879630 0.905114 0.334162 0.141714
H14   H     H_    0.765878 0.722654 0.410572 0.140750
N1    N     N_2   0.501340 0.501330 0.852150 -0.188453
N2    N     N_2   0.501380 0.501360 0.147810 -0.190904
O1    O     O_R   0.499980 0.319060 0.613040 -0.635142
O2    O     O_2   0.933566 0.196902 0.640488 -0.577334
O3    O     O_2   0.721411 0.218472 0.329150 -0.578329
O4    O     O_R   0.500020 0.319100 0.386900 -0.567543
O5    O     O_R   0.316750 0.499980 0.613090 -0.612802
O6    O     O_R   0.316790 0.500020 0.386950 -0.617113
O7    O     O_R   0.499980 0.680900 0.613100 -0.564584
O8    O     O_R   0.500020 0.680940 0.386960 -0.628762
O9    O     O_R   0.683210 0.499980 0.613050 -0.586601
O10   O     O_R   0.683250 0.500020 0.386910 -0.582762
O11   O     O_3   0.649048 0.656900 0.860927 -0.715326
Zn1   Zn    Zn3+2 0.499970 0.499970 0.650990 1.001053
Zn2   Zn    Zn3+2 0.500030 0.500030 0.349010 0.975896

loop_
_geom_bond_atom_site_label_1
_geom_bond_atom_site_label_2
_ccdc_geom_bond_type
C2    C22   D    
O5    Zn1   S    
C4    C16   S    
C10   H13   S    
C6    O7    A    
H10   N2    S    
C14   H5    S    
C4    O6    A    
C9    C10   A    
C14   C18   S    
O4    Zn2   S    
C8    C12   A    
C7    O10   A    
C17   C18   A    
C3    O11   S    
C5    N2    D    
C12   C13   A    
N1    Zn1   S    
C11   C13   A    
C3    N1    D    
C15   H6    S    
C17   H1    S    
O7    Zn1   S    
C2    H7    S    
O6    Zn2   S    
C11   H14   S    
C4    O5    A    
C20   C22   S    
C1    C2    S    
O9    Zn1   S    
C7    C19   S    
C8    H11   S    
O10   Zn2   S    
C9    H12   S    
C10   C11   A    
C1    O1    A    
C14   O2    D    
C12   C16   A    
C1    O4    A    
O1    Zn1   S    
C20   C21   D    
C15   O3    D    
C18   C19   A    
H4    O11   S    
C13   C19   A    
C16   C17   A    
C21   H3    S    
N2    Zn2   S    
C6    O8    A    
C3    C5    S    
C6    C21   S    
O8    Zn2   S    
C15   C22   S    
C20   H2    S    
H8    N1    S    
C8    C9    A    
C5    H9    S    
C7    O9    A    
