data_mof_unit_16087.cif
_audit_creation_date              2013-03-05T15:49:44-0500
_audit_creation_method            fapswitch 2.2
_symmetry_space_group_name_H-M    P1
_symmetry_Int_Tables_number       1
_space_group_crystal_system       triclinic
_cell_length_a                    12.044298
_cell_length_b                    12.839714
_cell_length_c                    13.058195
_cell_angle_alpha                 86.713878
_cell_angle_beta                  113.05859
_cell_angle_gamma                 94.041174
_cell_volume                      1852.45789438

loop_
_atom_site_label
_atom_site_type_symbol
_atom_site_description
_atom_site_fract_x
_atom_site_fract_y
_atom_site_fract_z
_atom_type_partial_charge
O1    O     O_R   0.579910 0.341070 0.505280 -0.633986
O2    O     O_R   0.388440 0.353740 0.492580 -0.568699
C1    C     C_R   0.477181 0.299605 0.498989 0.896938
O3    O     O_R   0.643280 0.490550 0.663120 -0.622462
O4    O     O_R   0.451810 0.503220 0.650420 -0.586935
C2    C     C_R   0.566909 0.500680 0.708436 0.885980
Zn1   Zn    Zn3+2 0.627850 0.491540 0.508480 0.991623
Zn2   Zn    Zn3+2 0.372150 0.508460 0.491520 1.056150
O5    O     O_R   0.611560 0.646260 0.507420 -0.631434
O6    O     O_R   0.420090 0.658930 0.494720 -0.591589
O7    O     O_R   0.548190 0.496780 0.349580 -0.588205
O8    O     O_R   0.356720 0.509450 0.336880 -0.566854
C3    C     C_R   0.522273 0.700513 0.499375 0.924865
C4    C     C_R   0.433713 0.506691 0.290833 0.919593
C5    C     C_R   0.292029 0.639082 0.006399 0.223531
H1    H     H_    0.302088 0.707728 0.808964 0.194559
C6    C     C_R   0.396548 0.530624 0.171373 -0.231624
C7    C     C_R   0.717063 0.459663 0.895921 -0.217115
C8    C     C_R   0.755956 0.458935 0.010911 -0.126055
C9    C     C_R   0.685345 0.500142 0.060491 0.293267
C10   C     C_R   0.571232 0.540086 0.991701 0.009779
C11   C     C_R   0.545548 0.559626 0.877972 0.065390
C12   C     C_R   0.479477 0.557823 0.030023 0.088448
C13   C     C_R   0.381819 0.620429 0.965930 -0.001214
C14   C     C_R   0.373751 0.658711 0.860808 -0.122420
C15   C     C_R   0.453316 0.627414 0.816674 -0.155766
C16   C     C_R   0.477375 0.506228 0.125683 -0.200466
C17   C     C_R   0.300174 0.594883 0.110334 0.223146
C18   C     C_R   0.611877 0.509471 0.828843 -0.107456
H2    H     H_    0.541643 0.447732 0.168301 0.196794
H3    H     H_    0.770155 0.422331 0.859417 0.191344
H4    H     H_    0.842043 0.426947 0.061533 0.213788
H5    H     H_    0.442001 0.657466 0.734305 0.159412
C19   C     C_R   0.536904 0.812151 0.499781 -0.193638
C20   C     C_R   0.461497 0.188381 0.494266 -0.048308
C21   C     C_R   0.339189 0.034329 0.416343 -0.092155
C22   C     C_R   0.348813 0.140747 0.432090 -0.144950
C23   C     C_R   0.564025 0.130597 0.543437 -0.193912
C24   C     C_R   0.555768 0.024840 0.527441 0.080063
C25   C     C_R   0.442497 0.976187 0.462919 0.028636
C26   C     C_R   0.434406 0.870085 0.447375 0.577494
C27   C     C_R   0.649745 0.860603 0.560493 -0.244625
C28   C     C_R   0.659274 0.967373 0.574107 -0.143403
H6    H     H_    0.729053 0.815496 0.600818 0.207070
H7    H     H_    0.251742 0.998236 0.366876 0.224301
H8    H     H_    0.746427 0.004507 0.622855 0.194141
H9    H     H_    0.269828 0.186227 0.392169 0.202410
H10   H     H_    0.650903 0.168525 0.592145 0.161969
N1    N     N_R   0.798200 0.480260 0.519790 -0.139722
N2    N     N_R   0.201820 0.519740 0.480210 -0.196227
C29   C     C_R   0.023926 0.618635 0.424998 0.627489
C30   C     C_R   0.139877 0.605104 0.428294 -0.086627
C31   C     C_R   0.151099 0.444515 0.530802 0.382888
C32   C     C_R   0.034519 0.456232 0.533019 -0.209867
C33   C     C_R   0.969998 0.544166 0.476979 -0.120911
C34   C     C_R   0.851947 0.554930 0.473048 0.134184
C35   C     C_R   0.859915 0.397094 0.577227 -0.048896
C36   C     C_R   0.978807 0.383903 0.587905 0.288847
H11   H     H_    0.801874 0.622278 0.431435 0.203801
H12   H     H_    0.817579 0.341742 0.618227 0.155592
H13   H     H_    0.180483 0.663312 0.388741 0.255019
N3    N     N_R   0.212983 0.618347 0.154203 0.242308
O9    O     O_R   0.140206 0.544226 0.167999 -0.348022
O10   O     O_R   0.194653 0.714974 0.165198 -0.264954
F1    F     F_    0.965088 0.704566 0.371362 -0.597053
N4    N     N_R   0.042293 0.301372 0.661117 0.240175
O11   O     O_R   0.127076 0.324588 0.756756 -0.319921
O12   O     O_R   0.995203 0.206291 0.646467 -0.336676
N5    N     N_R   0.212272 0.350425 0.573581 0.246967
O13   O     O_R   0.169440 0.263768 0.521897 -0.355985
O14   O     O_R   0.302944 0.348495 0.669462 -0.321269
N6    N     N_R   0.192559 0.702173 0.942770 0.222495
O15   O     O_R   0.082034 0.665206 0.918011 -0.321608
O16   O     O_R   0.212294 0.799980 0.919952 -0.332860
N7    N     N_R   0.737714 0.513920 0.178513 0.196637
O17   O     O_R   0.724384 0.600493 0.218558 -0.354334
O18   O     O_R   0.811985 0.447153 0.244186 -0.399485
F2    F     F_    0.326673 0.822979 0.382778 -0.639411

loop_
_geom_bond_atom_site_label_1
_geom_bond_atom_site_label_2
_geom_bond_distance
_ccdc_geom_bond_type
N4    O12   1.301093 A    
C33   C34   1.418836 A    
C11   C18   1.409201 A    
C8    C9    1.398712 A    
C19   C27   1.398570 A    
C31   N5    1.428309 S    
C35   C36   1.404903 A    
C31   C32   1.434276 A    
Zn1   O7    1.914178 S    
C5    N6    1.435875 S    
C21   C22   1.383445 A    
C20   C22   1.397137 A    
C30   H13   1.080101 S    
O4    C2    1.295235 A    
O7    C4    1.300287 A    
N1    C35   1.355960 A    
C7    C8    1.386447 A    
C29   F1    1.357528 S    
N5    O14   1.300009 A    
O5    C3    1.288975 A    
N3    O10   1.300941 A    
C36   N4    1.430734 S    
N2    C30   1.360657 A    
C12   C13   1.419550 A    
C12   C16   1.388318 A    
C22   H9    1.082909 S    
C23   H10   1.085801 S    
N4    O11   1.300797 A    
C10   C11   1.404458 A    
C16   H2    1.081456 S    
C4    C6    1.464809 S    
C19   C26   1.398197 A    
C27   H6    1.083565 S    
O3    Zn1   1.953400 S    
C8    H4    1.082922 S    
N2    C31   1.379260 A    
C29   C30   1.403083 A    
C6    C16   1.386066 A    
C21   C25   1.400530 A    
C20   C23   1.393218 A    
C13   C14   1.400088 A    
Zn1   N1    2.013582 S    
O3    C2    1.290449 A    
C26   F2    1.360702 S    
C35   H12   1.082079 S    
C24   C28   1.397472 A    
C14   C15   1.387580 A    
C9    N7    1.434689 S    
O1    C1    1.285941 A    
N7    O17   1.300916 A    
N3    O9    1.301139 A    
C15   H5    1.081381 S    
C1    C20   1.428940 S    
Zn2   O8    1.953401 S    
C21   H7    1.083469 S    
C7    C18   1.400696 A    
N7    O18   1.301316 A    
N6    O16   1.301095 A    
C25   C26   1.379893 A    
O8    C4    1.290960 A    
C10   C12   1.416085 A    
C27   C28   1.383449 A    
Zn2   N2    2.013343 S    
C24   C25   1.414613 A    
C32   C36   1.427919 A    
H1    C14   1.081387 S    
Zn1   O5    2.008672 S    
C32   C33   1.413377 A    
C5    C13   1.415932 A    
O1    Zn1   1.975060 S    
C6    C17   1.413590 A    
O2    Zn2   2.008673 S    
N6    O15   1.301263 A    
O6    C3    1.286841 A    
O4    Zn2   1.914178 S    
N1    C34   1.365919 A    
C34   H11   1.081515 S    
O2    C1    1.288605 A    
C3    C19   1.431868 S    
C5    C17   1.410302 A    
C23   C24   1.376443 A    
C29   C33   1.407224 A    
N5    O13   1.300792 A    
C28   H8    1.084077 S    
C2    C18   1.456999 S    
C9    C10   1.427717 A    
Zn2   O6    1.975057 S    
C11   C15   1.411435 A    
C7    H3    1.083519 S    
C17   N3    1.434353 S    
