data_mof_unit_64855.cif
_audit_creation_date              2012-10-26T21:08:42-0400
_audit_creation_method            fapswitch 2.2
_symmetry_space_group_name_H-M    P1
_symmetry_Int_Tables_number       1
_space_group_crystal_system       triclinic
_cell_length_a                    22.42079
_cell_length_b                    22.443069
_cell_length_c                    14.638488
_cell_angle_alpha                 89.964542
_cell_angle_beta                  90.529384
_cell_angle_gamma                 89.986079
_cell_volume                      7365.64430287

loop_
_atom_site_label
_atom_site_type_symbol
_atom_type_description
_atom_site_fract_x
_atom_site_fract_y
_atom_site_fract_z
_atom_type_partial_charge
C1    C     C_R   0.419902 0.919634 0.499713 0.546933
C2    C     C_1   0.661061 0.835823 0.502238 -0.009374
C3    C     C_R   0.140554 0.467213 0.141724 -0.053250
C4    C     C_R   0.650867 0.691645 0.581669 0.067300
C5    C     C_R   0.658144 0.630994 0.603264 -0.059700
C6    C     C_R   0.611888 0.598906 0.643577 -0.111304
C7    C     C_R   0.558077 0.627152 0.663543 -0.090327
C8    C     C_R   0.550595 0.687555 0.643529 -0.097046
C9    C     C_R   0.596633 0.719719 0.602621 -0.076223
C10   C     C_R   0.349333 0.308539 0.419195 0.067308
C11   C     C_R   0.342117 0.369243 0.397914 -0.059654
C12   C     C_R   0.388472 0.401420 0.358032 -0.111182
C13   C     C_1   0.660777 0.164470 0.501710 -0.007122
C14   C     C_R   0.442322 0.373212 0.338182 -0.090296
C15   C     C_R   0.449745 0.312759 0.357879 -0.097077
C16   C     C_R   0.403608 0.280505 0.398362 -0.076166
C17   C     C_R   0.357657 0.683649 0.480085 0.064730
C18   C     C_R   0.352681 0.621185 0.481227 -0.050919
C19   C     C_R   0.403100 0.585283 0.470493 -0.100144
C20   C     C_R   0.458927 0.611345 0.457520 -0.091637
C21   C     C_R   0.464301 0.673311 0.454932 -0.097208
C22   C     C_R   0.414048 0.709387 0.466429 -0.071293
C23   C     C_R   0.642404 0.316312 0.520880 0.064693
C24   C     C_1   0.339223 0.835530 0.498298 -0.007105
C25   C     C_R   0.647391 0.378779 0.520101 -0.050900
C26   C     C_R   0.597004 0.414661 0.531308 -0.100107
C27   C     C_R   0.541201 0.388574 0.544389 -0.091648
C28   C     C_R   0.535817 0.326602 0.546612 -0.097236
C29   C     C_R   0.586036 0.290549 0.534645 -0.071406
C30   C     C_R   0.150666 0.191460 0.580807 0.067307
C31   C     C_R   0.157881 0.130756 0.602087 -0.059653
C32   C     C_R   0.111527 0.098580 0.641970 -0.111182
C33   C     C_R   0.057677 0.126788 0.661823 -0.090295
C34   C     C_R   0.050255 0.187242 0.642128 -0.097078
C35   C     C_1   0.838941 0.664180 0.497761 -0.009377
C36   C     C_R   0.096391 0.219495 0.601643 -0.076170
C37   C     C_R   0.849137 0.808359 0.418329 0.067299
C38   C     C_R   0.841861 0.869009 0.396733 -0.059698
C39   C     C_R   0.888117 0.901096 0.356421 -0.111303
C40   C     C_R   0.941928 0.872850 0.336458 -0.090326
C41   C     C_R   0.949410 0.812448 0.356472 -0.097046
C42   C     C_R   0.903372 0.780284 0.397379 -0.076226
C43   C     C_R   0.857597 0.183687 0.479121 0.064694
C44   C     C_R   0.852610 0.121220 0.479898 -0.050900
C45   C     C_R   0.902996 0.085338 0.468693 -0.100108
C46   C     C_1   0.161056 0.335817 0.502223 -0.009332
C47   C     C_R   0.958800 0.111425 0.455615 -0.091649
C48   C     C_R   0.964184 0.173397 0.453393 -0.097236
C49   C     C_R   0.913965 0.209451 0.465360 -0.071406
C50   C     C_R   0.142343 0.816350 0.519918 0.064730
C51   C     C_R   0.147318 0.878815 0.518774 -0.050921
C52   C     C_R   0.096898 0.914716 0.529510 -0.100147
C53   C     C_R   0.041072 0.888654 0.542486 -0.091638
C54   C     C_R   0.035698 0.826688 0.545076 -0.097209
C55   C     C_R   0.085951 0.790613 0.533577 -0.071294
C56   C     C_1   0.160777 0.664470 0.501703 -0.007106
C57   C     C_1   0.839224 0.335530 0.498291 -0.007122
C58   C     C_1   0.500699 0.999900 0.194363 0.177696
C59   C     C_1   0.499306 0.000086 0.805638 0.177681
C60   C     C_1   0.000695 0.499915 0.194362 0.177682
C61   C     C_R   0.580097 0.080366 0.500287 0.546941
C62   C     C_1   0.999301 0.500099 0.805637 0.177696
C63   C     C_3   0.538755 0.040213 0.967952 0.086044
C64   C     C_3   0.461257 0.959752 0.032051 0.086065
C65   C     C_3   0.485514 0.054066 0.031891 0.083582
C66   C     C_3   0.514497 0.945899 0.968109 0.083610
C67   C     C_3   0.038754 0.540235 0.967946 0.086076
C68   C     C_3   0.961233 0.459800 0.032050 0.086055
C69   C     C_3   0.985520 0.554106 0.031888 0.083599
C70   C     C_3   0.014469 0.445928 0.968111 0.083571
C71   C     C_3   0.701766 0.724828 0.537692 -0.016571
C72   C     C_R   0.580131 0.919674 0.500321 0.545661
C73   C     C_3   0.298326 0.275258 0.462711 -0.016568
C74   C     C_3   0.302122 0.721082 0.491385 -0.021958
C75   C     C_3   0.697904 0.278900 0.509070 -0.021960
C76   C     C_3   0.201673 0.224741 0.537290 -0.016570
C77   C     C_3   0.798237 0.775175 0.462306 -0.016573
C78   C     C_3   0.802097 0.221100 0.490931 -0.021959
C79   C     C_3   0.197877 0.778918 0.508618 -0.021957
C80   C     C_3   0.232706 0.203143 0.449359 0.092368
C81   C     C_3   0.767410 0.796976 0.550291 0.092337
C82   C     C_3   0.758186 0.212738 0.570838 0.090852
C83   C     C_R   0.419869 0.080326 0.499679 0.545636
C84   C     C_3   0.241976 0.787088 0.428907 0.090887
C85   C     C_3   0.732594 0.703028 0.449707 0.092334
C86   C     C_3   0.267293 0.296856 0.550642 0.092366
C87   C     C_3   0.258024 0.712912 0.571095 0.090885
C88   C     C_3   0.741815 0.287261 0.429163 0.090851
C89   C     C_1   0.375867 0.125725 0.498815 0.006105
C90   C     C_1   0.624135 0.874277 0.501190 0.006082
C91   C     C_1   0.623970 0.125899 0.501028 0.011412
C92   C     C_1   0.376030 0.874101 0.498973 0.011411
C93   C     C_1   0.875867 0.625725 0.498809 0.006081
C94   C     C_R   0.919903 0.419634 0.499713 0.546942
C95   C     C_1   0.124132 0.374275 0.501186 0.006104
C96   C     C_1   0.123970 0.625899 0.501027 0.011411
C97   C     C_1   0.876030 0.374101 0.498972 0.011413
C98   C     C_3   0.263084 0.231624 0.585011 0.096892
C99   C     C_3   0.736717 0.768179 0.414958 0.096854
C100  C     C_3   0.749466 0.218735 0.422038 0.094076
C101  C     C_3   0.250348 0.781455 0.577782 0.094083
C102  C     C_3   0.763286 0.731824 0.585040 0.096855
C103  C     C_3   0.236915 0.268375 0.414990 0.096895
C104  C     C_3   0.249651 0.718545 0.422220 0.094084
C105  C     C_R   0.080098 0.580365 0.500287 0.546933
C106  C     C_3   0.750534 0.281264 0.577963 0.094077
C107  C     C_3   0.293794 0.210484 0.497064 -0.006669
C108  C     C_3   0.706213 0.789523 0.502960 -0.006679
C109  C     C_3   0.705881 0.210831 0.501909 -0.010853
C110  C     C_3   0.294120 0.789168 0.498108 -0.010849
C111  C     C_3   0.793790 0.710481 0.497038 -0.006681
C112  C     C_3   0.206205 0.289515 0.502937 -0.006670
C113  C     C_3   0.205879 0.710832 0.501894 -0.010851
C114  C     C_3   0.794119 0.289169 0.498092 -0.010854
C115  C     C_3   0.555271 0.985825 0.028438 -0.027238
C116  C     C_R   0.080131 0.419674 0.500320 0.545636
C117  C     C_3   0.444740 0.014138 0.971566 -0.027270
C118  C     C_3   0.055255 0.485845 0.028434 -0.027270
C119  C     C_3   0.944734 0.514191 0.971562 -0.027239
C120  C     C_3   0.502099 0.999642 0.092022 -0.042790
C121  C     C_3   0.497912 0.000324 0.907980 -0.042778
C122  C     C_3   0.002089 0.499678 0.092020 -0.042778
C123  C     C_3   0.997901 0.500356 0.907978 -0.042789
C124  C     C_R   0.380770 0.030121 0.948854 0.057594
C125  C     C_R   0.341153 0.042196 0.020415 -0.043588
C126  C     C_R   0.281710 0.057023 0.001814 -0.070066
C127  C     C_R   0.919869 0.580326 0.499679 0.545661
C128  C     C_R   0.261093 0.059694 0.911602 -0.068060
C129  C     C_R   0.299895 0.047444 0.839957 -0.071496
C130  C     C_R   0.359445 0.032784 0.858275 -0.053250
C131  C     C_R   0.619232 0.969809 0.051160 0.057634
C132  C     C_R   0.658871 0.957801 0.979601 -0.043579
C133  C     C_R   0.718299 0.942922 0.998212 -0.070063
C134  C     C_R   0.738879 0.940121 0.088434 -0.068216
C135  C     C_R   0.700054 0.952293 0.160081 -0.071656
C136  C     C_R   0.640519 0.967010 0.141751 -0.053218
C137  C     C_R   0.880776 0.530221 0.948839 0.057633
C138  C     C_1   0.338943 0.164182 0.497778 -0.009331
C139  C     C_R   0.841145 0.542258 0.020396 -0.043584
C140  C     C_R   0.781720 0.557151 0.001783 -0.070064
C141  C     C_R   0.761136 0.559935 0.911562 -0.068211
C142  C     C_R   0.799953 0.547732 0.839918 -0.071657
C143  C     C_R   0.859485 0.533001 0.858249 -0.053219
C144  C     C_R   0.119222 0.469849 0.051146 0.057594
C145  C     C_R   0.158830 0.457738 0.979588 -0.043594
C146  C     C_R   0.218269 0.442898 0.998189 -0.070067
C147  C     C_R   0.238892 0.440251 0.088400 -0.068052
C148  C     C_R   0.200101 0.452540 0.160043 -0.071496
Cu1   Cu    Cu3+1 0.500000 0.000000 0.590220 1.040589
Cu2   Cu    Cu3+1 0.500000 0.000000 0.409780 1.040677
Cu3   Cu    Cu3+1 0.000000 0.500000 0.590220 1.040676
Cu4   Cu    Cu3+1 1.000000 0.500000 0.409780 1.040590
H1    H     H_    0.356355 0.040110 0.090792 0.149879
H2    H     H_    0.611959 0.976245 0.198727 0.129976
H3    H     H_    0.856325 0.540097 0.090779 0.149869
H4    H     H_    0.751622 0.566469 0.057370 0.151515
H5    H     H_    0.715120 0.571453 0.897145 0.139275
H6    H     H_    0.783909 0.549728 0.769996 0.134535
H7    H     H_    0.888037 0.523740 0.801276 0.129974
H8    H     H_    0.143623 0.459807 0.909211 0.149879
H9    H     H_    0.248349 0.433519 0.942603 0.151547
H10   H     H_    0.284920 0.428776 0.102809 0.139464
H11   H     H_    0.216177 0.450659 0.229956 0.134785
H12   H     H_    0.251623 0.066372 0.057403 0.151538
H13   H     H_    0.112025 0.476558 0.198694 0.129977
H14   H     H_    0.699723 0.608488 0.588700 0.137730
H15   H     H_    0.617825 0.552155 0.659448 0.116451
H16   H     H_    0.522225 0.602292 0.694643 0.136987
H17   H     H_    0.508900 0.709444 0.659226 0.141513
H18   H     H_    0.589342 0.766224 0.588186 0.119972
H19   H     H_    0.300510 0.391721 0.412390 0.137821
H20   H     H_    0.382582 0.448210 0.342401 0.116591
H21   H     H_    0.478250 0.398141 0.307415 0.137055
H22   H     H_    0.491470 0.290899 0.342269 0.141425
H23   H     H_    0.215063 0.071158 0.897194 0.139451
H24   H     H_    0.410856 0.233963 0.412562 0.119936
H25   H     H_    0.309632 0.600244 0.490397 0.142060
H26   H     H_    0.398835 0.537248 0.471971 0.115799
H27   H     H_    0.497972 0.583565 0.449162 0.128135
H28   H     H_    0.507525 0.693465 0.444102 0.136530
H29   H     H_    0.419796 0.756990 0.463576 0.118154
H30   H     H_    0.690423 0.399736 0.510850 0.142068
H31   H     H_    0.601277 0.462699 0.530111 0.115787
H32   H     H_    0.502181 0.416340 0.553108 0.128149
H33   H     H_    0.492611 0.306427 0.557513 0.136581
H34   H     H_    0.283824 0.049346 0.770042 0.134790
H35   H     H_    0.580283 0.242938 0.537215 0.118164
H36   H     H_    0.199488 0.108278 0.587609 0.137821
H37   H     H_    0.117416 0.051789 0.657600 0.116587
H38   H     H_    0.021749 0.101860 0.692592 0.137053
H39   H     H_    0.008531 0.209102 0.657739 0.141427
H40   H     H_    0.089144 0.266038 0.587444 0.119936
H41   H     H_    0.800282 0.891515 0.411296 0.137730
H42   H     H_    0.882181 0.947847 0.340549 0.116448
H43   H     H_    0.977781 0.897710 0.305357 0.136985
H44   H     H_    0.991105 0.790558 0.340777 0.141514
H45   H     H_    0.387983 0.023472 0.801303 0.129979
H46   H     H_    0.910662 0.733779 0.411817 0.119970
H47   H     H_    0.809577 0.100264 0.489148 0.142069
H48   H     H_    0.898723 0.037300 0.469888 0.115787
H49   H     H_    0.997820 0.083660 0.446897 0.128148
H50   H     H_    0.007390 0.193572 0.442495 0.136580
H51   H     H_    0.919718 0.257061 0.462791 0.118163
H52   H     H_    0.190367 0.899755 0.509603 0.142061
H53   H     H_    0.101163 0.962751 0.528031 0.115798
H54   H     H_    0.002027 0.916434 0.550845 0.128137
H55   H     H_    0.992475 0.806534 0.555908 0.136530
H56   H     H_    0.643694 0.959974 0.909217 0.149869
H57   H     H_    0.080205 0.743009 0.536431 0.118155
H58   H     H_    0.748403 0.933627 0.942624 0.151508
H59   H     H_    0.784898 0.928613 0.102850 0.139263
H60   H     H_    0.716094 0.950282 0.230004 0.134536
I1    I     I_    0.207108 0.128868 0.365702 -0.328316
I2    I     I_    0.285894 0.202644 0.720472 -0.315574
I3    I     I_    0.252859 0.831787 0.702234 -0.269694
I4    I     I_    0.746657 0.168714 0.297302 -0.269133
I5    I     I_    0.214105 0.297354 0.279529 -0.315574
I6    I     I_    0.786412 0.703152 0.720536 -0.315306
I7    I     I_    0.753343 0.331285 0.702698 -0.269120
I8    I     I_    0.247141 0.668213 0.297768 -0.269686
I9    I     I_    0.464462 0.140938 0.083125 -0.261935
I10   I     I_    0.535557 0.859033 0.916863 -0.262373
I11   I     I_    0.599613 0.105469 0.916412 -0.213464
I12   I     I_    0.793201 0.871448 0.633397 -0.328227
I13   I     I_    0.400400 0.894498 0.083597 -0.213310
I14   I     I_    0.964490 0.640980 0.083129 -0.262391
I15   I     I_    0.035491 0.359048 0.916882 -0.261959
I16   I     I_    0.099635 0.605466 0.916396 -0.213288
I17   I     I_    0.900354 0.394565 0.083595 -0.213442
I18   I     I_    0.768492 0.154339 0.685858 -0.252744
I19   I     I_    0.231937 0.845199 0.313494 -0.252423
I20   I     I_    0.706803 0.628556 0.366601 -0.328231
I21   I     I_    0.292890 0.371131 0.634300 -0.328324
I22   I     I_    0.268062 0.654801 0.686508 -0.252394
I23   I     I_    0.731509 0.345660 0.314143 -0.252720
I24   I     I_    0.713591 0.796853 0.279463 -0.315298
N1    N     N_1   0.499980 0.000000 0.274190 -0.177861
N2    N     N_1   0.500020 0.000000 0.725810 -0.177875
N3    N     N_1   0.999980 0.500000 0.274190 -0.177875
N4    N     N_1   0.000020 0.500000 0.725810 -0.177860
O1    O     O_R   0.439540 0.939530 0.576170 -0.491446
O2    O     O_R   0.560470 0.060470 0.576200 -0.477868
O3    O     O_R   0.560470 0.939530 0.576200 -0.482503
O4    O     O_R   0.439530 0.060470 0.423800 -0.482457
O5    O     O_R   0.939530 0.439530 0.423800 -0.477865
O6    O     O_R   0.060470 0.560470 0.576200 -0.477838
O7    O     O_R   0.060470 0.439530 0.576200 -0.482460
O8    O     O_R   0.939530 0.560470 0.423800 -0.482505
O9    O     O_R   0.560460 0.060470 0.423830 -0.491398
O10   O     O_R   0.560460 0.939530 0.423830 -0.494970
O11   O     O_R   0.439540 0.060470 0.576170 -0.494966
O12   O     O_R   0.939540 0.439530 0.576170 -0.491399
O13   O     O_R   0.060460 0.560470 0.423830 -0.491448
O14   O     O_R   0.060460 0.439530 0.423830 -0.494963
O15   O     O_R   0.939540 0.560470 0.576170 -0.494970
O16   O     O_R   0.439530 0.939530 0.423800 -0.477840

loop_
_geom_bond_atom_site_label_1
_geom_bond_atom_site_label_2
_ccdc_geom_bond_type
Cu1   O1    S    
Cu1   O11   S    
C7    H16   S    
C49   H51   S    
C11   H19   S    
C46   C112  S    
C41   C42   A    
C6    C7    A    
C147  C148  A    
C105  O13   A    
C8    H17   S    
C66   I10   S    
C69   I14   S    
Cu3   O6    S    
C65   I9    S    
C145  C146  A    
C9    H18   S    
C135  C136  A    
C12   H20   S    
C116  O14   A    
C53   C54   A    
C51   H52   S    
C45   H48   S    
Cu3   N4    S    
C137  C139  A    
C80   C107  S    
C26   C27   A    
C37   C38   A    
C87   I22   S    
C50   C79   S    
C106  C114  S    
C127  O15   A    
C23   C29   A    
C74   C104  S    
C28   C29   A    
C117  C124  S    
C70   C118  S    
C146  C147  A    
C41   H44   S    
C118  C144  S    
C68   C119  S    
Cu3   O7    S    
C5    C6    A    
C63   C65   S    
C10   C73   S    
C73   C107  S    
C76   C98   S    
C15   C16   A    
C48   H50   S    
C62   N4    T    
C47   H49   S    
C77   C111  S    
C18   C19   A    
C118  C122  S    
C2    C108  S    
C37   C42   A    
C2    C90   T    
C84   I19   S    
C117  C121  S    
C27   H32   S    
C104  I8    S    
C13   C109  S    
Cu1   N2    S    
C21   C22   A    
C87   C101  S    
C141  C142  A    
C70   C123  S    
C21   H28   S    
C100  I4    S    
C46   C95   T    
C31   C32   A    
C18   H25   S    
C132  C133  A    
C31   H36   S    
C44   C45   A    
C56   C113  S    
C139  H3    S    
C74   C87   S    
C82   C106  S    
C58   N1    T    
C1    O16   A    
C76   C112  S    
C63   C115  S    
C26   H31   S    
C16   H24   S    
C35   C93   T    
C135  H60   S    
C98   I2    S    
C81   C108  S    
C3    C148  A    
C25   H30   S    
C71   C108  S    
C128  C129  A    
C133  H58   S    
C72   O3    A    
C102  C111  S    
C78   C114  S    
C85   I20   S    
C136  H2    S    
C142  H6    S    
C126  H12   S    
C24   C92   T    
C73   C103  S    
C62   C123  S    
C63   C121  S    
C125  H1    S    
Cu2   O10   S    
C20   H27   S    
C81   C102  S    
C45   C47   A    
C38   C39   A    
C83   C89   S    
C39   H42   S    
C75   C109  S    
C86   I21   S    
C87   C113  S    
C66   C115  S    
C80   C103  S    
C51   C52   A    
C119  C137  S    
C82   C109  S    
C63   I11   S    
C42   H46   S    
C59   N2    T    
C24   C110  S    
C70   I15   S    
C89   C138  T    
C131  C136  A    
Cu3   O12   S    
C68   C122  S    
C39   C40   A    
C145  H8    S    
Cu1   O2    S    
C115  C131  S    
C94   C97   S    
C50   C51   A    
C101  C110  S    
C37   C77   S    
C83   O4    A    
C69   C119  S    
C40   C41   A    
C84   C110  S    
C64   C117  S    
C52   H53   S    
C94   O12   A    
C103  C112  S    
C43   C78   S    
C64   C66   S    
C86   C112  S    
C43   C44   A    
C93   C127  S    
C79   C84   S    
C85   C99   S    
C75   C106  S    
C55   H57   S    
C133  C134  A    
C72   C90   S    
C78   C82   S    
Cu2   O16   S    
C47   C48   A    
C14   C15   A    
C116  O7    A    
C77   C81   S    
C95   C116  S    
Cu1   O3    S    
Cu2   N1    S    
C57   C97   T    
C58   C120  S    
C17   C18   A    
C8    C9    A    
C66   C121  S    
C124  C130  A    
C60   N3    T    
C5    H14   S    
C140  C141  A    
C60   C122  S    
C4    C5    A    
C19   H26   S    
Cu4   O5    S    
C88   C100  S    
C105  O6    A    
C28   H33   S    
C140  H4    S    
C146  H9    S    
C1    O1    A    
C141  H5    S    
C48   C49   A    
C86   C98   S    
C71   C102  S    
C99   C108  S    
C67   C118  S    
C132  H56   S    
C1    C92   S    
C6    H15   S    
Cu2   O9    S    
C79   C113  S    
C78   C100  S    
C125  C126  A    
C84   C104  S    
C106  I7    S    
C23   C75   S    
C30   C76   S    
C131  C132  A    
C130  H45   S    
C137  C143  A    
C35   C111  S    
C68   I17   S    
C3    H13   S    
C96   C105  S    
Cu3   O15   S    
C129  C130  A    
C61   O2    A    
C56   C96   T    
C81   I12   S    
C54   C55   A    
C34   H39   S    
C128  H23   S    
C126  C128  A    
C134  H59   S    
C15   H22   S    
C83   O11   A    
C17   C74   S    
C36   H40   S    
C148  H11   S    
C67   I16   S    
C43   C49   A    
C3    C144  A    
C76   C80   S    
C12   C14   A    
C144  C145  A    
C85   C111  S    
C147  H10   S    
C67   C123  S    
C74   C110  S    
C107  C138  S    
C139  C140  A    
C115  C120  S    
C143  H7    S    
C57   C114  S    
C82   I18   S    
C119  C123  S    
C14   H21   S    
C80   I1    S    
C17   C22   A    
C64   C120  S    
C38   H41   S    
C30   C36   A    
C72   O10   A    
C32   C33   A    
C19   C20   A    
C25   C26   A    
C64   I13   S    
C10   C16   A    
Cu1   Cu2   S    
Cu4   O14   S    
C99   I24   S    
C30   C31   A    
Cu4   O13   S    
Cu4   N3    S    
C79   C101  S    
C69   C122  S    
C101  I3    S    
C71   C85   S    
C50   C55   A    
C53   H54   S    
Cu2   O4    S    
C65   C120  S    
C33   C34   A    
C32   H37   S    
C77   C99   S    
C34   C36   A    
C22   H29   S    
C23   C25   A    
C88   C114  S    
C134  C135  A    
C94   O5    A    
C73   C86   S    
Cu4   O8    S    
C7    C8    A    
C10   C11   A    
C102  I6    S    
C104  C113  S    
C88   I23   S    
C29   H35   S    
C75   C88   S    
C100  C109  S    
C20   C21   A    
C44   H47   S    
C61   O9    A    
C54   H55   S    
C27   C28   A    
C68   C70   S    
C65   C117  S    
C142  C143  A    
C33   H38   S    
C103  I5    S    
C127  O8    A    
C67   C69   S    
C4    C9    A    
C129  H34   S    
C59   C121  S    
Cu3   Cu4   S    
C4    C71   S    
C13   C91   T    
C61   C91   S    
C11   C12   A    
C52   C53   A    
C124  C125  A    
C98   C107  S    
C40   H43   S    
