data_mof_unit_42935.cif
_audit_creation_date              2012-12-10T18:49:21-0500
_audit_creation_method            fapswitch 2.2
_symmetry_space_group_name_H-M    P1
_symmetry_Int_Tables_number       1
_space_group_crystal_system       triclinic
_cell_length_a                    9.969188
_cell_length_b                    10.642518
_cell_length_c                    13.646191
_cell_angle_alpha                 90.750919
_cell_angle_beta                  84.143214
_cell_angle_gamma                 89.504957
_cell_volume                      1440.06982095

loop_
_atom_site_label
_atom_site_type_symbol
_atom_type_description
_atom_site_fract_x
_atom_site_fract_y
_atom_site_fract_z
_atom_type_partial_charge
C1    C     C_R   0.499219 0.739165 0.502246 0.933849
C2    C     C_R   0.500872 0.260770 0.498772 0.959612
C3    C     C_R   0.503455 0.128109 0.498250 -0.258824
C4    C     C_R   0.498658 0.871727 0.502453 -0.257866
C5    C     C_R   0.476826 0.500595 0.685032 0.911669
C6    C     C_R   0.523271 0.497699 0.315008 0.889504
C7    C     C_R   0.937874 0.439864 0.426745 0.464155
C8    C     C_R   0.061939 0.560840 0.572934 0.473401
C9    C     C_R   0.081350 0.443138 0.425320 -0.187526
C10   C     C_R   0.918415 0.557484 0.574398 -0.186491
C11   C     C_1   0.540411 0.491212 0.212137 -0.133152
C12   C     C_1   0.460355 0.502475 0.788005 -0.123939
C13   C     C_2   0.558236 0.485225 0.021136 -0.041695
C14   C     C_2   0.443694 0.503605 0.979043 -0.041995
C15   C     C_1   0.448446 0.503679 0.875280 -0.006255
C16   C     C_1   0.553278 0.486828 0.124899 -0.023530
C17   C     C_R   0.528635 0.938053 0.586900 -0.183007
C18   C     C_R   0.472873 0.061746 0.414076 -0.177586
C19   C     C_R   0.536808 0.067943 0.583275 0.423528
C20   C     C_R   0.473245 0.931814 0.415611 0.429154
N1    N     N_R   0.142790 0.500030 0.500020 -0.155996
N2    N     N_R   0.857210 0.499970 0.499980 -0.157414
O1    O     O_R   0.385380 0.683250 0.500010 -0.594061
O2    O     O_R   0.614620 0.316750 0.499990 -0.624052
O3    O     O_R   0.614710 0.683220 0.500000 -0.636857
O4    O     O_R   0.385290 0.316780 0.500000 -0.617814
O5    O     O_R   0.368830 0.499990 0.640350 -0.558763
O6    O     O_R   0.631170 0.500010 0.359650 -0.567516
O7    O     O_R   0.598160 0.499960 0.640350 -0.624444
O8    O     O_R   0.401840 0.500040 0.359650 -0.607354
Zn1   Zn    Zn3+2 0.346870 0.500020 0.500000 1.007444
Zn2   Zn    Zn3+2 0.653130 0.499980 0.500000 0.976945
O9    O     O_3   0.878955 0.384432 0.349808 -0.572806
C21   C     C_3   0.879876 0.252503 0.360571 0.108533
H1    H     H_    0.834739 0.224556 0.434815 0.133016
H2    H     H_    0.983766 0.212862 0.348828 0.124929
C22   C     C_3   0.798717 0.193938 0.283776 -0.770955
H3    H     H_    0.849375 0.210221 0.208770 0.258173
H4    H     H_    0.789701 0.091268 0.295758 0.183485
H5    H     H_    0.696690 0.237253 0.289471 0.256103
O10   O     O_3   0.120683 0.618870 0.648802 -0.576082
C23   C     C_3   0.119151 0.750448 0.635571 0.092562
H6    H     H_    0.014965 0.789691 0.643714 0.115070
H7    H     H_    0.167487 0.776437 0.561669 0.165064
C24   C     C_3   0.195423 0.812073 0.713846 -0.753879
H8    H     H_    0.295547 0.766209 0.714093 0.260653
H9    H     H_    0.208767 0.913672 0.698482 0.206679
H10   H     H_    0.138759 0.801216 0.787596 0.252652
C25   C     C_1   0.160135 0.391832 0.339934 0.320906
N3    N     N_1   0.219784 0.350721 0.269497 -0.180176
C26   C     C_1   0.838894 0.611922 0.658324 0.307600
N4    N     N_1   0.778221 0.655954 0.727251 -0.193001
C27   C     C_1   0.313855 0.524732 0.035183 0.218812
N5    N     N_1   0.210185 0.541769 0.079965 -0.173992
C28   C     C_1   0.688683 0.467110 0.965226 0.211393
N6    N     N_1   0.793060 0.452916 0.920794 -0.187729
C29   C     C_1   0.542014 0.875607 0.679050 0.203920
N7    N     N_1   0.551369 0.827155 0.753478 -0.201408
C30   C     C_1   0.449269 0.124321 0.323836 0.213982
N8    N     N_1   0.432626 0.172488 0.250515 -0.199547
O11   O     O_3   0.562642 0.137781 0.665723 -0.602946
C31   C     C_3   0.703284 0.138256 0.672272 0.097943
H11   H     H_    0.758709 0.176628 0.604481 0.133522
H12   H     H_    0.742437 0.042069 0.684262 0.140241
C32   C     C_3   0.732976 0.220716 0.759103 -0.756350
H13   H     H_    0.679448 0.184769 0.828327 0.258217
H14   H     H_    0.843079 0.220413 0.765721 0.207373
H15   H     H_    0.699370 0.318659 0.748050 0.264449
O12   O     O_3   0.438929 0.863619 0.334774 -0.598221
C33   C     C_3   0.555904 0.840507 0.269165 0.085172
H16   H     H_    0.610869 0.757254 0.293669 0.149770
H17   H     H_    0.626264 0.921617 0.263358 0.128014
C34   C     C_3   0.514093 0.814064 0.166823 -0.767533
H18   H     H_    0.468964 0.900074 0.138000 0.261037
H19   H     H_    0.603503 0.784988 0.116089 0.211063
H20   H     H_    0.438354 0.738018 0.169761 0.261164

loop_
_geom_bond_atom_site_label_1
_geom_bond_atom_site_label_2
_ccdc_geom_bond_type
O1    Zn1   S    
C33   H17   S    
C28   N6    T    
O2    Zn2   S    
C3    C19   A    
C33   H16   S    
C22   H5    S    
C21   C22   S    
N1    Zn1   S    
O10   C23   S    
C18   C20   A    
O11   C31   S    
C12   C15   T    
C32   H13   S    
C1    C4    S    
C13   C28   S    
C32   H15   S    
O3    Zn2   S    
C2    C3    S    
C23   H7    S    
C30   N8    T    
C2    O4    A    
C5    O5    A    
C27   N5    T    
C10   N2    A    
C1    O3    A    
C7    O9    S    
C34   H19   S    
C9    N1    A    
C29   N7    T    
O12   C33   S    
N2    Zn2   S    
C19   O11   S    
C7    N2    A    
C10   C26   S    
C8    C10   A    
C17   C19   A    
C22   H3    S    
O9    C21   S    
C1    O1    A    
O7    Zn2   S    
C21   H2    S    
C24   H9    S    
C2    O2    A    
O8    Zn1   S    
C21   H1    S    
C34   H20   S    
C20   O12   S    
C24   H10   S    
C11   C16   T    
C23   H6    S    
C4    C17   A    
O5    Zn1   S    
C26   N4    T    
C4    C20   A    
C5    O7    A    
C24   H8    S    
C18   C30   S    
O6    Zn2   S    
C14   C27   S    
C9    C25   S    
C8    O10   S    
C3    C18   A    
C22   H4    S    
C25   N3    T    
C34   H18   S    
C13   C16   S    
C5    C12   S    
C6    C11   S    
C7    C9    A    
C14   C15   S    
C31   H12   S    
C31   C32   S    
C6    O8    A    
C13   C14   D    
C33   C34   S    
O4    Zn1   S    
C6    O6    A    
C31   H11   S    
C17   C29   S    
C32   H14   S    
C23   C24   S    
C8    N1    A    
