data_mof_unit_14098.cif
_audit_creation_date              2012-12-10T17:11:31-0500
_audit_creation_method            fapswitch 2.2
_symmetry_space_group_name_H-M    P1
_symmetry_Int_Tables_number       1
_space_group_crystal_system       triclinic
_cell_length_a                    14.998917
_cell_length_b                    13.008595
_cell_length_c                    11.817992
_cell_angle_alpha                 99.053527
_cell_angle_beta                  93.747809
_cell_angle_gamma                 92.830701
_cell_volume                      2268.09909679

loop_
_atom_site_label
_atom_site_type_symbol
_atom_type_description
_atom_site_fract_x
_atom_site_fract_y
_atom_site_fract_z
_atom_type_partial_charge
C1    C     C_R   0.498933 0.299871 0.479620 0.890087
C2    C     C_R   0.501068 0.700129 0.520380 0.890086
C3    C     C_R   0.030689 0.316000 0.406097 0.436713
C4    C     C_R   0.969316 0.683945 0.594035 0.436816
C5    C     C_R   0.507461 0.812905 0.529481 -0.129769
C6    C     C_R   0.492541 0.187095 0.470518 -0.129771
C7    C     C_R   0.414386 0.023406 0.387429 -0.146791
C8    C     C_R   0.585618 0.976593 0.612567 -0.146783
C9    C     C_R   0.428550 0.129823 0.391072 -0.189554
C10   C     C_R   0.571454 0.870177 0.608924 -0.189554
C11   C     C_R   0.543963 0.137677 0.547581 0.434300
C12   C     C_R   0.456039 0.862323 0.452418 0.434313
C13   C     C_R   0.532842 0.028792 0.540337 0.002955
C14   C     C_R   0.467161 0.971208 0.459660 0.002959
C15   C     C_R   0.403178 0.414332 0.026610 0.405010
C16   C     C_R   0.596821 0.585671 0.973390 0.405019
C17   C     C_R   0.417632 0.416249 0.145705 0.395054
C18   C     C_R   0.582366 0.583753 0.854295 0.395053
C19   C     C_R   0.540335 0.540256 0.156014 0.473023
C20   C     C_R   0.459665 0.459743 0.843986 0.473023
C21   C     C_R   0.535014 0.531953 0.032998 -0.297342
C22   C     C_R   0.464986 0.468048 0.967002 -0.297350
C23   C     C_R   0.329271 0.498978 0.500121 0.886045
C24   C     C_R   0.670729 0.501024 0.499880 0.886034
C25   C     C_R   0.818974 0.597019 0.533481 0.392375
C26   C     C_R   0.181034 0.402958 0.466560 0.392468
C27   C     C_R   0.767202 0.503297 0.499894 -0.136938
C28   C     C_R   0.232799 0.496691 0.500114 -0.136949
C29   C     C_R   0.806559 0.410346 0.465046 -0.241566
C30   C     C_R   0.193437 0.589634 0.534983 -0.241616
C31   C     C_R   0.899066 0.408919 0.459672 -0.022443
C32   C     C_R   0.100933 0.591048 0.540398 -0.022439
C33   C     C_R   0.953149 0.501123 0.500631 -0.100454
C34   C     C_R   0.046854 0.498837 0.499449 -0.100450
C35   C     C_R   0.913359 0.595251 0.543335 -0.131471
C36   C     C_R   0.086646 0.404708 0.456748 -0.131480
C37   C     C_R   0.937778 0.317030 0.412109 0.410984
C38   C     C_R   0.062223 0.682925 0.588004 0.410934
Cu1   Cu    Cu3+1 0.506660 0.507730 0.615930 1.058654
Cu2   Cu    Cu3+1 0.493340 0.492270 0.384070 1.058654
H1    H     H_    0.763848 0.339783 0.438695 0.187907
H2    H     H_    0.236144 0.660203 0.561329 0.187958
H3    H     H_    0.613093 0.831905 0.665688 0.245092
H4    H     H_    0.386912 0.168094 0.334307 0.245083
H5    H     H_    0.361495 0.982884 0.328149 0.195900
H6    H     H_    0.638510 0.017115 0.671846 0.195914
N1    N     N_R   0.516670 0.519360 0.790130 -0.281763
N2    N     N_R   0.483330 0.480640 0.209870 -0.281771
O1    O     O_R   0.504720 0.354460 0.582000 -0.530197
O2    O     O_R   0.495280 0.645540 0.418000 -0.530205
O3    O     O_R   0.493480 0.341410 0.386200 -0.562235
O4    O     O_R   0.506520 0.658590 0.613800 -0.562220
O5    O     O_R   0.375880 0.506510 0.597910 -0.546346
O6    O     O_R   0.624120 0.493490 0.402090 -0.546344
O7    O     O_R   0.364640 0.493450 0.402110 -0.540403
O8    O     O_R   0.635360 0.506550 0.597890 -0.540424
Cl1   Cl    Cl    0.763317 0.715086 0.547175 -0.518166
Cl2   Cl    Cl    0.236716 0.284909 0.452837 -0.518185
O9    O     O_3   0.328276 0.357868 0.970401 -0.492232
C39   C     C_3   0.256192 0.423910 0.973973 -0.178251
H7    H     H_    0.270727 0.492663 0.931207 0.144585
H8    H     H_    0.238971 0.450147 0.063703 0.143395
H9    H     H_    0.196479 0.379516 0.926635 0.196607
O10   O     O_3   0.671720 0.642140 0.029599 -0.492235
C40   C     C_3   0.743810 0.576106 0.026021 -0.178286
H10   H     H_    0.761029 0.549873 0.936290 0.143372
H11   H     H_    0.729283 0.507351 0.068787 0.144612
H12   H     H_    0.803521 0.620506 0.073356 0.196603
O11   O     O_3   0.885487 0.225208 0.377413 -0.526906
C41   C     C_3   0.849226 0.220970 0.263214 -0.268082
H13   H     H_    0.840677 0.298803 0.236839 0.117901
H14   H     H_    0.781976 0.179783 0.254391 0.193257
H15   H     H_    0.891378 0.174441 0.203251 0.191038
O12   O     O_3   0.114516 0.774749 0.622697 -0.526904
C42   C     C_3   0.150744 0.778992 0.736908 -0.268073
H16   H     H_    0.217823 0.820604 0.745901 0.193436
H17   H     H_    0.159670 0.701147 0.763086 0.118047
H18   H     H_    0.108361 0.825117 0.796906 0.190858
O13   O     O_3   0.064704 0.227440 0.348056 -0.492827
C43   C     C_3   0.082925 0.245498 0.236670 -0.179452
H19   H     H_    0.140423 0.303303 0.239587 0.197923
H20   H     H_    0.023919 0.272554 0.190160 0.089555
H21   H     H_    0.101080 0.171228 0.186114 0.206249
O14   O     O_3   0.935301 0.772468 0.652160 -0.492868
C44   C     C_3   0.917001 0.754278 0.763479 -0.179669
H22   H     H_    0.975932 0.727009 0.809939 0.089402
H23   H     H_    0.859410 0.696581 0.760443 0.198158
H24   H     H_    0.898953 0.828538 0.814162 0.206222
O15   O     O_3   0.391047 0.804410 0.376248 -0.591901
C45   C     C_3   0.421794 0.785794 0.264416 -0.222107
H25   H     H_    0.406989 0.702262 0.228160 0.190392
H26   H     H_    0.494965 0.803562 0.260371 0.193632
H27   H     H_    0.384337 0.831615 0.207730 0.149769
O16   O     O_3   0.608955 0.195590 0.623751 -0.591904
C46   C     C_3   0.578206 0.214205 0.735582 -0.222095
H28   H     H_    0.505034 0.196447 0.739624 0.193638
H29   H     H_    0.593020 0.297735 0.771844 0.190385
H30   H     H_    0.615656 0.168375 0.792267 0.149773
Cl3   Cl    Cl    0.383342 0.367769 0.757302 -0.519628
Cl4   Cl    Cl    0.616659 0.632229 0.242698 -0.519627
Cl5   Cl    Cl    0.652649 0.666929 0.790829 -0.581637
Cl6   Cl    Cl    0.347344 0.333078 0.209171 -0.581560

loop_
_geom_bond_atom_site_label_1
_geom_bond_atom_site_label_2
_ccdc_geom_bond_type
C8    C13   A    
C37   O11   S    
C27   C29   A    
C46   H28   S    
C24   C27   S    
C42   H16   S    
C3    O13   S    
C18   N1    A    
C6    C9    A    
C46   H30   S    
C15   C22   A    
C44   H22   S    
C16   C21   A    
C39   H9    S    
C7    H5    S    
C19   C21   A    
C24   O6    A    
C39   H8    S    
Cu2   N2    S    
C2    O2    A    
C7    C14   A    
C40   H11   S    
C17   N2    A    
C41   H13   S    
C32   C38   A    
C40   H12   S    
Cu1   O4    S    
C4    C35   A    
O9    C39   S    
C21   C22   A    
O11   C41   S    
C25   Cl1   S    
C43   H21   S    
C23   O5    A    
C44   H23   S    
O12   C42   S    
C1    C6    S    
C12   O15   S    
O14   C44   S    
C5    C12   A    
C43   H20   S    
C6    C11   A    
C19   N2    A    
C31   C37   A    
C39   H7    S    
C18   Cl5   S    
C32   C34   A    
C17   Cl6   S    
C42   H17   S    
C45   H26   S    
Cu1   O8    S    
C4    O14   S    
Cu2   O7    S    
C41   H15   S    
C31   C33   A    
C33   C34   A    
C16   C18   A    
C23   C28   S    
C26   Cl2   S    
C2    O4    A    
C25   C35   A    
C11   O16   S    
C26   C36   A    
Cu1   O1    S    
C20   C22   A    
Cu2   O6    S    
C2    C5    S    
C25   C27   A    
Cu1   Cu2   S    
C45   H27   S    
Cu1   N1    S    
C38   O12   S    
C44   H24   S    
C15   C17   A    
C9    H4    S    
C29   H1    S    
C10   H3    S    
C15   O9    S    
C4    C38   A    
C43   H19   S    
C19   Cl4   S    
C46   H29   S    
C23   O7    A    
C24   O8    A    
Cu2   O3    S    
C26   C28   A    
C1    O3    A    
O10   C40   S    
C28   C30   A    
C12   C14   A    
C5    C10   A    
C29   C31   A    
C30   C32   A    
C11   C13   A    
C45   H25   S    
Cu1   O5    S    
C20   Cl3   S    
C3    C36   A    
Cu2   O2    S    
C33   C35   A    
C34   C36   A    
O16   C46   S    
C42   H18   S    
C8    H6    S    
C20   N1    A    
O13   C43   S    
C7    C9    A    
C3    C37   A    
C8    C10   A    
C40   H10   S    
C30   H2    S    
C41   H14   S    
C16   O10   S    
O15   C45   S    
C13   C14   A    
C1    O1    A    
