data_mof_unit_50407.cif
_audit_creation_date              2012-10-26T17:12:25-0400
_audit_creation_method            fapswitch 2.2
_symmetry_space_group_name_H-M    P1
_symmetry_Int_Tables_number       1
_space_group_crystal_system       triclinic
_cell_length_a                    16.731793
_cell_length_b                    16.731793
_cell_length_c                    16.731793
_cell_angle_alpha                 67.765818
_cell_angle_beta                  67.765813
_cell_angle_gamma                 67.765826
_cell_volume                      3859.24851846

loop_
_atom_site_label
_atom_site_type_symbol
_atom_type_description
_atom_site_fract_x
_atom_site_fract_y
_atom_site_fract_z
_atom_type_partial_charge
C1    C     C_R   0.029083 0.827971 0.564284 0.590464
C2    C     C_R   0.029083 0.564284 0.827971 0.590465
C3    C     C_R   0.172029 0.970917 0.435716 0.590464
C4    C     C_R   0.827971 0.029083 0.564284 0.590464
C5    C     C_R   0.449500 0.069716 0.704465 0.264414
C6    C     C_R   0.550499 0.930285 0.295535 0.264414
C7    C     C_R   0.069715 0.704465 0.449500 0.264414
C8    C     C_R   0.930284 0.295535 0.550500 0.264414
C9    C     C_R   0.704465 0.449501 0.069714 0.264414
C10   C     C_R   0.295535 0.550500 0.930284 0.264414
C11   C     C_R   0.295535 0.930285 0.550500 0.264414
C12   C     C_R   0.970917 0.172029 0.435716 0.590464
C13   C     C_R   0.704465 0.069716 0.449500 0.264414
C14   C     C_R   0.550500 0.295535 0.930283 0.264413
C15   C     C_R   0.449501 0.704465 0.069715 0.264414
C16   C     C_R   0.930284 0.550500 0.295535 0.264414
C17   C     C_R   0.069715 0.449500 0.704465 0.264414
C18   C     C_R   0.542427 0.024395 0.542427 0.013915
C19   C     C_R   0.457573 0.975605 0.457573 0.013915
C20   C     C_R   0.024395 0.542427 0.542427 0.013915
C21   C     C_R   0.975605 0.457573 0.457573 0.013915
C22   C     C_R   0.542427 0.542427 0.024394 0.013915
C23   C     C_R   0.827971 0.564284 0.029083 0.590464
C24   C     C_R   0.457573 0.457573 0.975604 0.013915
C25   C     C_R   0.585763 0.014762 0.454682 -0.006105
C26   C     C_R   0.414237 0.985239 0.545318 -0.006105
C27   C     C_R   0.014761 0.454682 0.585763 -0.006105
C28   C     C_R   0.985238 0.545318 0.414237 -0.006105
C29   C     C_R   0.454682 0.585763 0.014760 -0.006105
C30   C     C_R   0.545318 0.414238 0.985237 -0.006105
C31   C     C_R   0.545318 0.985239 0.414237 -0.006105
C32   C     C_R   0.454682 0.014762 0.585763 -0.006105
C33   C     C_R   0.414237 0.545318 0.985238 -0.006105
C34   C     C_R   0.172029 0.435716 0.970917 0.590464
C35   C     C_R   0.585763 0.454682 0.014760 -0.006105
C36   C     C_R   0.985238 0.414237 0.545318 -0.006105
C37   C     C_R   0.014760 0.585763 0.454682 -0.006105
C38   C     C_R   0.407026 0.043954 0.663705 -0.132129
C39   C     C_R   0.592973 0.956047 0.336295 -0.132129
C40   C     C_R   0.043953 0.663705 0.407027 -0.132129
C41   C     C_R   0.956046 0.336295 0.592973 -0.132129
C42   C     C_R   0.663706 0.407027 0.043952 -0.132129
C43   C     C_R   0.336295 0.592973 0.956046 -0.132129
C44   C     C_R   0.336295 0.956046 0.592973 -0.132129
C45   C     C_R   0.564284 0.029083 0.827971 0.590465
C46   C     C_R   0.663705 0.043954 0.407027 -0.132129
C47   C     C_R   0.592973 0.336295 0.956045 -0.132129
C48   C     C_R   0.407027 0.663705 0.043953 -0.132129
C49   C     C_R   0.956045 0.592973 0.336295 -0.132130
C50   C     C_R   0.043953 0.407027 0.663705 -0.132129
C51   C     C_R   0.544290 0.052602 0.675375 0.049820
C52   C     C_R   0.455710 0.947399 0.324625 0.049820
C53   C     C_R   0.052601 0.675375 0.544290 0.049820
C54   C     C_R   0.947398 0.324625 0.455710 0.049820
C55   C     C_R   0.675375 0.544290 0.052601 0.049820
C56   C     C_R   0.435716 0.970917 0.172029 0.590464
C57   C     C_R   0.324625 0.455710 0.947398 0.049820
C58   C     C_R   0.324625 0.947398 0.455710 0.049820
C59   C     C_R   0.675375 0.052602 0.544289 0.049820
C60   C     C_R   0.455710 0.324625 0.947398 0.049820
C61   C     C_R   0.544290 0.675375 0.052601 0.049820
C62   C     C_R   0.947398 0.455710 0.324625 0.049820
C63   C     C_R   0.052601 0.544290 0.675375 0.049820
C64   C     C_R   0.597213 0.047002 0.728414 -0.000271
C65   C     C_R   0.402787 0.952998 0.271586 -0.000272
C66   C     C_R   0.047001 0.728414 0.597213 -0.000272
C67   C     C_R   0.435716 0.172029 0.970917 0.590465
C68   C     C_R   0.952998 0.271586 0.402787 -0.000272
C69   C     C_R   0.728414 0.597213 0.047002 -0.000272
C70   C     C_R   0.271586 0.402787 0.952998 -0.000272
C71   C     C_R   0.271586 0.952998 0.402787 -0.000271
C72   C     C_R   0.728414 0.047002 0.597213 -0.000272
C73   C     C_R   0.402787 0.271586 0.952998 -0.000271
C74   C     C_R   0.597213 0.728414 0.047002 -0.000272
C75   C     C_R   0.952998 0.402787 0.271586 -0.000271
C76   C     C_R   0.047002 0.597213 0.728414 -0.000271
C77   C     C_R   0.687992 0.044393 0.687992 -0.178367
C78   C     C_R   0.564284 0.827971 0.029083 0.590464
C79   C     C_R   0.312008 0.955607 0.312008 -0.178367
C80   C     C_R   0.044393 0.687992 0.687992 -0.178367
C81   C     C_R   0.955607 0.312008 0.312008 -0.178367
C82   C     C_R   0.687992 0.687992 0.044393 -0.178367
C83   C     C_R   0.312008 0.312008 0.955607 -0.178367
C84   C     C_R   0.587637 0.042674 0.587637 -0.050846
C85   C     C_R   0.412363 0.957326 0.412363 -0.050846
C86   C     C_R   0.042673 0.587637 0.587637 -0.050846
C87   C     C_R   0.957326 0.412363 0.412363 -0.050846
C88   C     C_R   0.587637 0.587637 0.042673 -0.050846
C89   C     C_R   0.970917 0.435716 0.172029 0.590465
C90   C     C_R   0.412363 0.412363 0.957326 -0.050846
Cu1   Cu    Cu3+1 0.995180 0.995180 0.424630 0.992164
Cu2   Cu    Cu3+1 0.004820 0.004820 0.575370 0.992164
Cu3   Cu    Cu3+1 0.995180 0.424630 0.995180 0.992162
Cu4   Cu    Cu3+1 0.004820 0.575370 0.004820 0.992167
Cu5   Cu    Cu3+1 0.424630 0.995180 0.995180 0.992163
Cu6   Cu    Cu3+1 0.575370 0.004820 0.004820 0.992165
H1    H     H_    0.334133 0.128771 0.775220 0.310931
H2    H     H_    0.334133 0.775218 0.128772 0.310933
H3    H     H_    0.871222 0.665867 0.224786 0.310932
H4    H     H_    0.128772 0.334133 0.775218 0.310932
H5    H     H_    0.335236 0.053448 0.689608 0.086758
H6    H     H_    0.664763 0.946553 0.310392 0.086759
H7    H     H_    0.053446 0.689608 0.335237 0.086759
H8    H     H_    0.946552 0.310392 0.664763 0.086759
H9    H     H_    0.689608 0.335238 0.053446 0.086759
H10   H     H_    0.310393 0.664763 0.946552 0.086759
H11   H     H_    0.310392 0.946553 0.664763 0.086759
H12   H     H_    0.665867 0.871228 0.224781 0.310932
H13   H     H_    0.689607 0.053448 0.335237 0.086759
H14   H     H_    0.664763 0.310393 0.946550 0.086759
H15   H     H_    0.335237 0.689607 0.053447 0.086759
H16   H     H_    0.946551 0.664763 0.310393 0.086759
H17   H     H_    0.053447 0.335237 0.689608 0.086759
H18   H     H_    0.728883 0.036685 0.728883 0.163447
H19   H     H_    0.271117 0.963315 0.271117 0.163447
H20   H     H_    0.036685 0.728883 0.728883 0.163447
H21   H     H_    0.963315 0.271117 0.271117 0.163447
H22   H     H_    0.728883 0.728883 0.036685 0.163447
H23   H     H_    0.128770 0.775220 0.334133 0.310931
H24   H     H_    0.271117 0.271117 0.963316 0.163447
H25   H     H_    0.871228 0.224781 0.665867 0.310932
H26   H     H_    0.775222 0.334133 0.128767 0.310931
H27   H     H_    0.224781 0.665867 0.871227 0.310932
H28   H     H_    0.224780 0.871228 0.665867 0.310932
H29   H     H_    0.775219 0.128773 0.334133 0.310933
H30   H     H_    0.665867 0.224783 0.871225 0.310934
O1    O     O_R   0.124540 0.978640 0.385460 -0.512517
O2    O     O_R   0.124540 0.385460 0.978640 -0.512517
O3    O     O_R   0.021360 0.875460 0.614540 -0.512517
O4    O     O_R   0.978640 0.124540 0.385460 -0.512517
O5    O     O_R   0.013780 0.867370 0.487190 -0.461721
O6    O     O_R   0.986220 0.132630 0.512810 -0.461720
O7    O     O_R   0.867370 0.487190 0.013780 -0.461722
O8    O     O_R   0.132630 0.512810 0.986220 -0.461720
O9    O     O_R   0.487190 0.013780 0.867370 -0.461721
O10   O     O_R   0.512810 0.986220 0.132630 -0.461720
O11   O     O_R   0.512810 0.132630 0.986220 -0.461720
O12   O     O_R   0.875460 0.021360 0.614540 -0.512517
O13   O     O_R   0.487190 0.867370 0.013780 -0.461720
O14   O     O_R   0.986220 0.512810 0.132630 -0.461718
O15   O     O_R   0.013780 0.487190 0.867370 -0.461721
O16   O     O_R   0.132630 0.986220 0.512810 -0.461721
O17   O     O_R   0.867370 0.013780 0.487190 -0.461720
O18   O     O_3   0.398819 0.121266 0.763986 -0.659801
O19   O     O_3   0.601181 0.878735 0.236014 -0.659803
O20   O     O_3   0.121265 0.763986 0.398819 -0.659802
O21   O     O_3   0.878734 0.236014 0.601181 -0.659803
O22   O     O_3   0.763986 0.398819 0.121265 -0.659801
O23   O     O_R   0.978640 0.385460 0.124540 -0.512518
O24   O     O_3   0.236014 0.601181 0.878734 -0.659803
O25   O     O_3   0.236014 0.878735 0.601181 -0.659803
O26   O     O_3   0.763986 0.121265 0.398819 -0.659803
O27   O     O_3   0.601181 0.236014 0.878734 -0.659806
O28   O     O_3   0.398819 0.763986 0.121265 -0.659803
O29   O     O_3   0.878734 0.601181 0.236014 -0.659804
O30   O     O_3   0.121265 0.398819 0.763986 -0.659802
O31   O     O_R   0.021360 0.614540 0.875460 -0.512517
O32   O     O_R   0.385460 0.124540 0.978640 -0.512517
O33   O     O_R   0.614540 0.875460 0.021360 -0.512517
O34   O     O_R   0.614540 0.021360 0.875460 -0.512517
O35   O     O_R   0.385460 0.978640 0.124540 -0.512517
O36   O     O_R   0.875460 0.614540 0.021360 -0.512516

loop_
_geom_bond_atom_site_label_1
_geom_bond_atom_site_label_2
_ccdc_geom_bond_type
C25   C31   A    
C21   C87   A    
C26   C32   A    
Cu3   Cu4   S    
C65   C79   A    
C22   C29   A    
C79   H19   S    
Cu5   O32   S    
Cu4   O14   S    
C64   C77   A    
C23   C69   S    
Cu3   O23   S    
Cu5   Cu6   S    
C3    O16   A    
C2    C76   S    
Cu2   O12   S    
C78   O13   A    
C4    O17   A    
C71   C79   A    
C26   C44   A    
C66   C80   A    
Cu6   O10   S    
Cu1   O4    S    
C45   O34   A    
H23   O20   S    
C22   C35   A    
C12   C68   S    
C9    C42   A    
Cu1   O1    S    
C30   C35   A    
C68   C81   A    
C52   C85   A    
Cu2   O6    S    
C9    O22   S    
C38   H5    S    
Cu3   O7    S    
Cu5   O35   S    
C54   C87   A    
C3    O1    A    
C58   C71   A    
Cu1   O5    S    
C63   C76   A    
C34   O8    A    
C56   C65   S    
C81   H21   S    
C60   C73   A    
C55   C88   A    
C19   C26   A    
C35   C42   A    
C15   O28   S    
C69   C82   A    
C80   H20   S    
C29   C33   A    
C20   C86   A    
C18   C84   A    
C7    C40   A    
H25   O21   S    
C53   C86   A    
C67   C73   S    
C32   C38   A    
C57   C70   A    
C11   C58   A    
Cu2   O16   S    
Cu4   O36   S    
Cu1   Cu2   S    
C27   C50   A    
C59   C72   A    
C7    O20   S    
H4    O30   S    
C89   O23   A    
H27   O24   S    
C19   C31   A    
C5    C38   A    
C36   C41   A    
C18   C25   A    
C16   C62   A    
C15   C48   A    
C74   C82   A    
C56   O10   A    
C24   C33   A    
Cu1   O17   S    
C45   O9    A    
C57   C90   A    
C23   O7    A    
C29   C48   A    
C33   C43   A    
C30   C47   A    
C10   C57   A    
C8    C41   A    
C8    C54   A    
Cu6   O11   S    
C21   C36   A    
C6    O19   S    
C75   C81   A    
C5    O18   S    
C1    O5    A    
C20   C37   A    
C56   O35   A    
H3    O29   S    
C43   H10   S    
C83   H24   S    
C3    C71   S    
H1    O18   S    
C72   C77   A    
C70   C83   A    
C61   C88   A    
C28   C49   A    
C89   O14   A    
Cu6   O33   S    
C16   O29   S    
Cu5   O9    S    
C1    C66   S    
C15   C61   A    
C11   C44   A    
C16   C49   A    
C53   C66   A    
C55   C69   A    
C12   O4    A    
C49   H16   S    
C9    C55   A    
C11   O25   S    
Cu6   O34   S    
H28   O25   S    
Cu4   O31   S    
C22   C88   A    
C14   O27   S    
C61   C74   A    
C62   C75   A    
C8    O21   S    
C18   C32   A    
C82   H22   S    
C77   H18   S    
C58   C85   A    
C4    C72   S    
Cu3   O15   S    
C39   H6    S    
H12   O19   S    
C44   H11   S    
C34   C70   S    
H29   O26   S    
C12   O6    A    
C10   C43   A    
Cu5   O13   S    
C21   C28   A    
C51   C64   A    
C76   C80   A    
C13   O26   S    
C19   C85   A    
C24   C90   A    
C17   C50   A    
C14   C47   A    
C13   C59   A    
C20   C27   A    
C60   C90   A    
C27   C36   A    
C37   C40   A    
C47   H14   S    
C14   C60   A    
C62   C87   A    
C45   C64   S    
C1    O3    A    
C59   C84   A    
C41   H8    S    
C50   H17   S    
C23   O36   A    
Cu2   O3    S    
Cu3   O2    S    
C63   C86   A    
C10   O24   S    
C40   H7    S    
H2    O28   S    
C13   C46   A    
C28   C37   A    
C2    O31   A    
C51   C84   A    
Cu4   O8    S    
C31   C39   A    
C67   O32   A    
C67   O11   A    
C42   H9    S    
C24   C30   A    
C75   C89   S    
C4    O12   A    
H26   O22   S    
H30   O27   S    
C78   O33   A    
C48   H15   S    
C54   C68   A    
C34   O2    A    
C74   C78   S    
C46   H13   S    
C2    O15   A    
C7    C53   A    
C6    C39   A    
C5    C51   A    
C6    C52   A    
C17   O30   S    
C25   C46   A    
C73   C83   A    
C17   C63   A    
C52   C65   A    
