data_mof_unit_6090.cif
_audit_creation_date              2012-12-10T17:00:41-0500
_audit_creation_method            fapswitch 2.2
_symmetry_space_group_name_H-M    P1
_symmetry_Int_Tables_number       1
_space_group_crystal_system       triclinic
_cell_length_a                    27.725303
_cell_length_b                    10.959399
_cell_length_c                    9.749529
_cell_angle_alpha                 89.145043
_cell_angle_beta                  91.153941
_cell_angle_gamma                 90.138863
_cell_volume                      2961.48309598

loop_
_atom_site_label
_atom_site_type_symbol
_atom_type_description
_atom_site_fract_x
_atom_site_fract_y
_atom_site_fract_z
_atom_type_partial_charge
C1    C     C_R   0.499759 0.265733 0.500685 0.807490
C2    C     C_R   0.278255 0.419822 0.580465 0.255261
C3    C     C_R   0.253022 0.505967 0.499069 0.090871
C4    C     C_R   0.101501 0.505930 0.522189 -0.089778
C5    C     C_R   0.124398 0.450155 0.411409 -0.063259
C6    C     C_R   0.096567 0.398551 0.305705 -0.114125
C7    C     C_R   0.129259 0.566657 0.623932 -0.148066
C8    C     C_R   0.354364 0.501320 0.497372 -0.257941
C9    C     C_R   0.645528 0.501228 0.505319 -0.311314
C10   C     C_R   0.973949 0.410784 0.457078 -0.031814
C11   C     C_R   0.975897 0.580585 0.616929 0.055931
C12   C     C_R   0.407542 0.500341 0.498967 0.922775
C13   C     C_R   0.949522 0.495089 0.538303 0.016859
C14   C     C_R   0.949453 0.303331 0.414443 0.447044
C15   C     C_R   0.898729 0.294988 0.432965 0.197050
C16   C     C_R   0.873025 0.398168 0.477728 -0.141140
C17   C     C_R   0.898733 0.494441 0.539884 -0.158476
C18   C     C_R   0.873846 0.588498 0.606322 -0.091680
C19   C     C_R   0.823076 0.585392 0.605066 0.591215
C20   C     C_R   0.822335 0.406671 0.468199 0.713278
C21   C     C_R   0.720289 0.413468 0.597217 0.388919
C22   C     C_R   0.669935 0.409871 0.582551 0.313007
C23   C     C_R   0.503565 0.733871 0.499266 0.821493
C24   C     C_R   0.672223 0.591179 0.434472 0.094082
C25   C     C_R   0.722985 0.591591 0.444828 0.422974
C26   C     C_R   0.746843 0.501718 0.525064 0.046535
C27   C     C_R   0.023568 0.431943 0.433208 0.051233
C28   C     C_R   0.050667 0.501524 0.529413 0.010069
C29   C     C_R   0.026781 0.568196 0.630501 -0.025237
C30   C     C_R   0.046547 0.393682 0.313259 0.296252
C31   C     C_R   0.105292 0.618012 0.737215 0.293102
C32   C     C_R   0.950885 0.678871 0.672472 -0.221041
C33   C     C_R   0.900393 0.682237 0.671600 0.497592
C34   C     C_R   0.592419 0.501604 0.501227 0.879969
C35   C     C_R   0.054394 0.616575 0.741387 0.203228
C36   C     C_2   0.506785 0.938477 0.394417 0.115041
C37   C     C_2   0.518012 0.862034 0.499864 0.263928
C38   C     C_2   0.518160 0.068810 0.405164 0.406533
C39   C     C_2   0.495573 0.134191 0.500990 0.065341
C40   C     C_2   0.464956 0.541125 0.920147 0.683669
C41   C     C_2   0.461629 0.499125 0.070725 0.299818
C42   C     C_R   0.174723 0.452044 0.405327 0.664776
C43   C     C_R   0.180081 0.569570 0.609264 0.679960
C44   C     C_R   0.278085 0.589830 0.416682 0.277539
C45   C     C_R   0.328745 0.587936 0.415713 0.180329
C46   C     C_R   0.328843 0.417754 0.580785 0.182921
Cu1   Cu    Cu3+1 0.500010 0.500020 0.638630 1.088690
Cu2   Cu    Cu3+1 0.499990 0.499980 0.361370 1.122196
H1    H     H_    0.970365 0.756746 0.712086 0.195024
H2    H     H_    0.113409 0.367166 0.213357 0.225048
N1    N     N_R   0.201295 0.510188 0.503808 -0.442290
N2    N     N_R   0.798680 0.498524 0.532097 -0.420537
N3    N     N_2   0.499480 0.498660 0.846910 -0.035969
N4    N     N_2   0.499460 0.498630 0.153040 -0.068586
O1    O     O_R   0.500010 0.321960 0.617040 -0.546052
O2    O     O_2   0.796749 0.326878 0.391788 -0.480201
O3    O     O_2   0.208577 0.631151 0.697814 -0.433153
O4    O     O_2   0.798069 0.667167 0.677107 -0.526898
O5    O     O_R   0.499990 0.321920 0.382900 -0.521367
O6    O     O_R   0.430270 0.500040 0.617060 -0.516999
O7    O     O_R   0.430260 0.500000 0.382910 -0.547383
O8    O     O_R   0.500010 0.678080 0.617100 -0.543123
O9    O     O_R   0.499990 0.678040 0.382960 -0.542393
O10   O     O_R   0.569740 0.500000 0.617090 -0.626227
O11   O     O_R   0.569730 0.499960 0.382940 -0.511772
O12   O     O_2   0.197119 0.395978 0.302058 -0.461469
Br1   Br    Br    0.362345 0.298567 0.694526 -0.249259
Br2   Br    Br    0.242261 0.708699 0.308825 -0.256883
Br3   Br    Br    0.139963 0.685698 0.893483 -0.221449
Br4   Br    Br    0.640462 0.715228 0.324299 -0.510849
O13   O     O_3   0.877267 0.782549 0.724298 -0.534501
C47   C     C_3   0.882105 0.779435 0.868676 -0.152039
H3    H     H_    0.869979 0.690390 0.912773 0.162533
H4    H     H_    0.858788 0.851394 0.910689 0.197464
H5    H     H_    0.919797 0.799473 0.902350 0.168342
O14   O     O_3   0.749959 0.672376 0.366982 -0.550281
C48   C     C_3   0.750325 0.789533 0.426243 -0.105620
H6    H     H_    0.729822 0.797105 0.523188 0.149365
H7    H     H_    0.735140 0.856464 0.350669 0.189099
H8    H     H_    0.788265 0.816551 0.448205 0.208666
Br5   Br    Br    0.024374 0.654249 0.913911 -0.419121
Br6   Br    Br    0.471782 0.894228 0.230033 -0.365094
O15   O     O_3   0.540640 0.907925 0.616997 -0.563077
C49   C     C_3   0.587597 0.859572 0.630811 -0.270060
H9    H     H_    0.609734 0.884508 0.541026 0.153348
H10   H     H_    0.587234 0.759012 0.647016 0.178140
H11   H     H_    0.605340 0.900037 0.722459 0.207130
O16   O     O_3   0.545699 0.129033 0.306505 -0.569067
C50   C     C_3   0.584490 0.056575 0.263996 -0.226777
H12   H     H_    0.571733 0.981108 0.197657 0.232754
H13   H     H_    0.606048 0.020664 0.352950 0.134412
H14   H     H_    0.608849 0.114627 0.201896 0.187709
Br7   Br    Br    0.242580 0.304941 0.690865 -0.271624
Br8   Br    Br    0.450848 0.064953 0.630636 -0.293159
O17   O     O_3   0.431622 0.618991 0.855696 -0.587639
C51   C     C_3   0.406065 0.689121 0.949682 -0.160077
H15   H     H_    0.430505 0.731446 0.027115 0.197439
H16   H     H_    0.377685 0.633525 0.999463 0.211150
H17   H     H_    0.387655 0.764432 0.892418 0.238492
O18   O     O_3   0.516921 0.392445 0.900782 -0.515707
C52   C     C_3   0.566374 0.383753 0.874991 0.045549
H18   H     H_    0.584644 0.473758 0.863451 0.155104
H19   H     H_    0.571541 0.325342 0.785163 0.205034
H20   H     H_    0.584079 0.336503 0.963869 0.140865
Br9   Br    Br    0.406354 0.401739 0.114888 -0.317200
Br10  Br    Br    0.549648 0.606737 0.100696 -0.370002
O19   O     O_3   0.644668 0.317677 0.647444 -0.592764
C53   C     C_3   0.638374 0.220724 0.555323 -0.272787
H21   H     H_    0.673645 0.180550 0.527726 0.205265
H22   H     H_    0.618030 0.250298 0.461115 0.167038
H23   H     H_    0.616913 0.148021 0.606005 0.185222
O20   O     O_3   0.744027 0.324214 0.673888 -0.531869
C54   C     C_3   0.746561 0.361690 0.811523 -0.195270
H24   H     H_    0.709968 0.371235 0.855028 0.174035
H25   H     H_    0.767116 0.448523 0.822033 0.163564
H26   H     H_    0.766022 0.290804 0.873113 0.197362
Br11  Br    Br    0.867069 0.137127 0.434832 -0.423133
O21   O     O_3   0.977451 0.200845 0.388798 -0.560473
C55   C     C_3   0.961896 0.136943 0.270697 -0.115703
H27   H     H_    0.935266 0.187306 0.204108 0.166400
H28   H     H_    0.947024 0.046834 0.301501 0.198995
H29   H     H_    0.993807 0.117403 0.207900 0.206003
Br12  Br    Br    0.012130 0.374093 0.142022 -0.460312
Br13  Br    Br    0.362486 0.710579 0.310993 -0.353432

loop_
_geom_bond_atom_site_label_1
_geom_bond_atom_site_label_2
_ccdc_geom_bond_type
C10   C27   A    
C21   C26   A    
C52   H18   S    
O17   C51   S    
C49   H11   S    
C20   O2    S    
Cu1   O8    S    
C35   Br5   S    
C24   Br4   S    
C46   Br1   S    
C48   H6    S    
C2    C46   A    
Cu2   N4    S    
C41   Br9   S    
Cu2   O5    S    
C36   C37   D    
C49   H10   S    
C1    O5    A    
C5    C6    A    
C9    C22   A    
C48   H8    S    
C15   C16   A    
C51   H17   S    
C53   H21   S    
C18   C19   A    
O21   C55   S    
Cu1   O6    S    
C8    C45   A    
C49   H9    S    
C23   O8    A    
Cu1   Cu2   S    
C36   Br6   S    
C16   C17   A    
C14   O21   S    
C51   H16   S    
O19   C53   S    
C7    C43   A    
Cu2   O11   S    
C50   H13   S    
C8    C12   S    
C42   N1    A    
Cu1   N3    S    
C54   H26   S    
O16   C50   S    
C23   O9    A    
N3    O18   S    
C21   C22   A    
C27   C30   A    
C47   H5    S    
C19   N2    A    
C34   O11   A    
O20   C54   S    
C4    C28   A    
C55   H28   S    
C19   O4    S    
C41   N4    D    
C3    C44   A    
C7    C31   A    
N4    Br10  S    
C24   C25   A    
C47   H4    S    
C10   C14   A    
Cu1   O10   S    
C33   O13   S    
C47   H3    S    
Cu2   O9    S    
C4    C7    A    
C25   C26   A    
C23   C37   S    
C6    H2    S    
C15   Br11  S    
C38   O16   S    
C39   Br8   S    
C26   N2    S    
C1    C39   S    
O15   C49   S    
C16   C20   A    
C51   H15   S    
C34   O10   A    
C17   C18   A    
C48   H7    S    
O14   C48   S    
C50   H14   S    
C40   C41   S    
C6    C30   A    
C11   C32   A    
C52   H20   S    
C9    C34   S    
C31   C35   A    
C44   Br2   S    
C40   O17   S    
C21   O20   S    
C44   C45   A    
C5    C42   A    
Cu1   O1    S    
C54   H24   S    
C55   H29   S    
C28   C29   A    
C3    N1    S    
C2    Br7   S    
C4    C5    A    
C10   C13   A    
C55   H27   S    
C9    C24   A    
C29   C35   A    
C53   H23   S    
C13   C17   A    
C25   O14   S    
C32   C33   A    
C36   C38   S    
C2    C3    A    
C1    O1    A    
O13   C47   S    
C20   N2    A    
C12   O7    A    
C11   C13   A    
C43   N1    A    
C45   Br13  S    
C38   C39   D    
O18   C52   S    
C53   H22   S    
C18   C33   A    
C8    C46   A    
C32   H1    S    
C43   O3    S    
C12   O6    A    
C31   Br3   S    
C30   Br12  S    
C11   C29   A    
C52   H19   S    
C40   N3    D    
Cu2   O7    S    
C27   C28   A    
C42   O12   S    
C14   C15   A    
C37   O15   S    
C50   H12   S    
C22   O19   S    
C54   H25   S    
