data_mof_unit_36851.cif
_audit_creation_date              2012-12-10T19:11:04-0500
_audit_creation_method            fapswitch 2.2
_symmetry_space_group_name_H-M    P1
_symmetry_Int_Tables_number       1
_space_group_crystal_system       triclinic
_cell_length_a                    10.754226
_cell_length_b                    9.090049
_cell_length_c                    7.784882
_cell_angle_alpha                 89.999804
_cell_angle_beta                  90.0
_cell_angle_gamma                 90.000014
_cell_volume                      761.022360233

loop_
_atom_site_label
_atom_site_type_symbol
_atom_type_description
_atom_site_fract_x
_atom_site_fract_y
_atom_site_fract_z
_atom_type_partial_charge
C1    C     C_R   0.500000 0.220039 0.500000 0.924703
C2    C     C_R   0.259641 0.492168 0.500000 0.875860
C3    C     C_R   0.740359 0.492168 0.500000 0.875860
C4    C     C_R   0.500000 0.779975 0.500000 0.832385
C5    C     C_1   0.500000 0.065405 0.500000 -0.058184
C6    C     C_3   0.072274 0.405779 0.665874 0.239924
C7    C     C_3   0.072274 0.405750 0.334147 0.239928
C8    C     C_3   0.927726 0.405779 0.665873 0.239925
C9    C     C_3   0.927726 0.405750 0.334147 0.239929
C10   C     C_1   0.500000 0.934644 0.500000 -0.109185
C11   C     C_3   0.071622 0.643724 0.499981 -0.527866
C12   C     C_3   0.928379 0.643724 0.499981 -0.527866
C13   C     C_3   0.122089 0.483712 0.500001 -0.156011
C14   C     C_3   0.877911 0.483712 0.500001 -0.156013
Cu1   Cu    Cu3+1 0.500000 0.500010 0.669080 1.075058
Cu2   Cu    Cu3+1 0.500000 0.500010 0.330920 1.075051
H1    H     H_    0.102126 0.472466 0.778666 0.099708
H2    H     H_    0.102127 0.472418 0.221338 0.099718
H3    H     H_    0.897874 0.472466 0.778666 0.099708
H4    H     H_    0.897874 0.472418 0.221338 0.099718
H5    H     H_    0.105952 0.704239 0.614968 0.228386
H6    H     H_    0.105952 0.704219 0.384980 0.228385
H7    H     H_    0.894048 0.704239 0.614968 0.228386
H8    H     H_    0.894048 0.704220 0.384980 0.228385
N1    N     N_1   0.500000 0.499970 0.076820 -0.026688
N2    N     N_1   0.500000 0.499970 0.923180 -0.026686
O1    O     O_R   0.500000 0.288400 0.642760 -0.556147
O2    O     O_R   0.500000 0.288400 0.357240 -0.556150
O3    O     O_R   0.317700 0.499990 0.642790 -0.581407
O4    O     O_R   0.317700 0.499990 0.357210 -0.581415
O5    O     O_R   0.682300 0.499990 0.642790 -0.581407
O6    O     O_R   0.682300 0.499990 0.357210 -0.581415
O7    O     O_R   0.500000 0.711620 0.642810 -0.581658
O8    O     O_R   0.500000 0.711620 0.357190 -0.581656
Cl1   Cl    Cl    0.141853 0.228401 0.704212 -0.435312
Cl2   Cl    Cl    0.141854 0.228367 0.295852 -0.435320
Cl3   Cl    Cl    0.858147 0.228401 0.704212 -0.435312
Cl4   Cl    Cl    0.858146 0.228367 0.295852 -0.435320

loop_
_geom_bond_atom_site_label_1
_geom_bond_atom_site_label_2
_ccdc_geom_bond_type
Cu2   O2    S    
C1    O2    A    
C6    C8    S    
C9    C14   S    
Cu1   O5    S    
Cu2   O6    S    
C7    Cl2   S    
C12   H8    S    
C11   H6    S    
Cu1   O1    S    
C2    O4    A    
C7    H2    S    
C5    C10   T    
C6    C13   S    
C3    O5    A    
C11   C13   S    
C12   H7    S    
C3    C14   S    
C2    O3    A    
C1    C5    S    
C9    Cl4   S    
C12   C14   S    
Cu1   O3    S    
C3    O6    A    
C4    O8    A    
C8    H3    S    
C8    Cl3   S    
Cu2   O4    S    
Cu1   Cu2   S    
C6    H1    S    
C7    C13   S    
C6    Cl1   S    
C7    C9    S    
Cu2   N1    S    
C1    O1    A    
C2    C13   S    
C4    O7    A    
Cu1   N2    S    
C8    C14   S    
C9    H4    S    
Cu2   O8    S    
N1    N2    T    
C4    C10   S    
C11   H5    S    
C11   C12   S    
Cu1   O7    S    
