data_mof_unit_61313.cif
_audit_creation_date              2012-12-10T21:00:59-0500
_audit_creation_method            fapswitch 2.2
_symmetry_space_group_name_H-M    P1
_symmetry_Int_Tables_number       1
_space_group_crystal_system       triclinic
_cell_length_a                    15.845959
_cell_length_b                    15.097785
_cell_length_c                    10.561164
_cell_angle_alpha                 89.530654
_cell_angle_beta                  89.981809
_cell_angle_gamma                 89.99225
_cell_volume                      2526.55614753

loop_
_atom_site_label
_atom_site_type_symbol
_atom_type_description
_atom_site_fract_x
_atom_site_fract_y
_atom_site_fract_z
_atom_type_partial_charge
C1    C     C_R   0.338908 0.500004 0.500022 0.906686
C2    C     C_R   0.661092 0.499996 0.499978 0.906693
C3    C     C_1   0.824339 0.499992 0.500025 -0.057959
C4    C     C_1   0.175661 0.500008 0.499976 -0.057970
C5    C     C_R   0.956234 0.579834 0.515241 -0.165221
C6    C     C_R   0.043766 0.420166 0.484761 -0.165224
C7    C     C_R   0.043738 0.579838 0.515212 -0.173690
C8    C     C_R   0.956263 0.420162 0.484789 -0.173684
C9    C     C_R   0.913133 0.499996 0.500029 0.161782
C10   C     C_R   0.086867 0.500004 0.499973 0.161779
C11   C     C_R   0.500274 0.500429 0.257075 0.974092
C12   C     C_R   0.499725 0.499571 0.742924 0.974105
C13   C     C_1   0.250506 0.500009 0.499995 -0.137849
C14   C     C_1   0.749494 0.499991 0.500006 -0.137837
C15   C     C_R   0.489567 0.953116 0.385853 0.278492
C16   C     C_R   0.510420 0.046885 0.614154 0.278501
C17   C     C_R   0.509089 0.951817 0.614426 0.271470
C18   C     C_R   0.490897 0.048185 0.385581 0.271465
C19   C     C_R   0.500936 0.905182 0.499829 -0.118598
C20   C     C_R   0.499053 0.094819 0.500177 -0.118601
C21   C     C_3   0.501248 0.583487 0.037627 0.418013
C22   C     C_3   0.498749 0.416514 0.962372 0.418154
C23   C     C_3   0.568921 0.539520 0.957050 0.379053
C24   C     C_3   0.431077 0.460483 0.042948 0.379078
C25   C     C_3   0.429637 0.543736 0.957102 -0.443761
C26   C     C_3   0.570361 0.456267 0.042896 -0.443597
C27   C     C_3   0.498952 0.498821 0.876847 -0.170704
C28   C     C_3   0.501046 0.501181 0.123152 -0.170714
C29   C     C_1   0.500338 0.807064 0.499946 0.339309
C30   C     C_1   0.499657 0.192937 0.500055 0.339324
H1    H     H_    0.373083 0.578608 0.919782 0.190978
H2    H     H_    0.626916 0.421393 0.080217 0.190987
H3    H     H_    0.077657 0.641558 0.526980 0.150831
H4    H     H_    0.922343 0.358442 0.473021 0.150831
H5    H     H_    0.922296 0.641551 0.527027 0.153565
H6    H     H_    0.077704 0.358449 0.472974 0.153568
N1    N     N_1   0.500000 0.270550 0.500000 -0.091225
N2    N     N_1   0.500000 0.729450 0.500000 -0.091228
O1    O     O_R   0.378020 0.573650 0.500040 -0.622403
O2    O     O_R   0.621980 0.426350 0.499960 -0.622403
O3    O     O_R   0.621980 0.573650 0.499960 -0.605824
O4    O     O_R   0.378020 0.426350 0.500040 -0.605817
O5    O     O_R   0.499980 0.573650 0.313960 -0.577405
O6    O     O_R   0.500020 0.426350 0.686040 -0.577410
O7    O     O_R   0.500020 0.573650 0.686040 -0.609175
O8    O     O_R   0.499980 0.426350 0.313960 -0.609172
Zn1   Zn    Zn3+2 0.500000 0.598370 0.500000 1.044558
Zn2   Zn    Zn3+2 0.500000 0.401630 0.500000 1.044570
O9    O     O_3   0.486534 0.097284 0.274839 -0.751539
H7    H     H_    0.510305 0.061875 0.204911 0.354137
O10   O     O_3   0.513450 0.902716 0.725168 -0.751567
H8    H     H_    0.489681 0.938120 0.795097 0.354145
O11   O     O_3   0.524797 0.094742 0.722961 -0.732671
H9    H     H_    0.559626 0.058628 0.781555 0.354273
O12   O     O_3   0.475191 0.905262 0.277045 -0.732657
H10   H     H_    0.440352 0.941379 0.218458 0.354260
O13   O     O_3   0.504698 0.670587 0.081265 -0.698299
H11   H     H_    0.503155 0.708348 0.004081 0.361666
O14   O     O_3   0.495299 0.329416 0.918736 -0.698240
H12   H     H_    0.496853 0.291652 0.995920 0.361679
O15   O     O_3   0.639704 0.582212 0.906392 -0.732197
H13   H     H_    0.673236 0.601235 0.980555 0.349402
O16   O     O_3   0.360293 0.417793 0.093607 -0.732154
H14   H     H_    0.326651 0.398965 0.019444 0.349349

loop_
_geom_bond_atom_site_label_1
_geom_bond_atom_site_label_2
_ccdc_geom_bond_type
C29   N2    T    
C25   H1    S    
C7    C10   A    
C15   C19   A    
O12   H10   S    
C11   O5    A    
C3    C9    S    
C23   C27   S    
C15   C18   A    
C26   C28   S    
C16   C20   A    
C17   O10   S    
O7    Zn1   S    
O3    Zn1   S    
O14   H12   S    
C12   O6    A    
O6    Zn2   S    
C8    H4    S    
O11   H9    S    
C20   C30   S    
N1    Zn2   S    
C21   O13   S    
C7    H3    S    
N2    Zn1   S    
O4    Zn2   S    
C3    C14   T    
C21   C25   S    
C11   C28   S    
C5    H5    S    
C17   C19   A    
C21   C28   S    
C6    H6    S    
C22   O14   S    
C24   O16   S    
C18   C20   A    
C22   C27   S    
C21   C23   S    
O15   H13   S    
C2    C14   S    
C22   C24   S    
C25   C27   S    
C6    C10   A    
C1    O1    A    
C12   C27   S    
C4    C10   S    
O10   H8    S    
C19   C29   S    
O8    Zn2   S    
C2    O2    A    
C1    O4    A    
C23   O15   S    
C1    C13   S    
C24   C25   S    
C18   O9    S    
C8    C9    A    
O1    Zn1   S    
O9    H7    S    
C22   C26   S    
C23   C26   S    
C4    C13   T    
C5    C7    A    
O2    Zn2   S    
C16   O11   S    
C12   O7    A    
C11   O8    A    
C6    C8    A    
C2    O3    A    
O13   H11   S    
O16   H14   S    
O5    Zn1   S    
C26   H2    S    
C24   C28   S    
C30   N1    T    
C5    C9    A    
C16   C17   A    
C15   O12   S    
