data_mof_unit_35385.cif
_audit_creation_date              2012-12-10T16:45:20-0500
_audit_creation_method            fapswitch 2.2
_symmetry_space_group_name_H-M    P1
_symmetry_Int_Tables_number       1
_space_group_crystal_system       triclinic
_cell_length_a                    7.415319
_cell_length_b                    8.691952
_cell_length_c                    15.766507
_cell_angle_alpha                 94.6691
_cell_angle_beta                  75.018864
_cell_angle_gamma                 103.229772
_cell_volume                      955.347494681

loop_
_atom_site_label
_atom_site_type_symbol
_atom_type_description
_atom_site_fract_x
_atom_site_fract_y
_atom_site_fract_z
_atom_type_partial_charge
C1    C     C_R   0.545291 0.800302 0.502513 0.865388
C2    C     C_R   0.454347 0.199697 0.497996 0.896282
C3    C     C_R   0.298601 0.346135 0.072939 -0.170841
C4    C     C_R   0.725085 0.565118 0.915053 -0.295692
C5    C     C_R   0.173523 0.293332 0.019385 -0.180969
C6    C     C_R   0.859766 0.597395 0.964542 -0.195882
C7    C     C_2   0.571895 0.968140 0.502307 -0.390623
C8    C     C_2   0.427525 0.031880 0.498729 -0.364281
C9    C     C_R   0.383268 0.484224 0.666257 0.860546
C10   C     C_R   0.616851 0.514736 0.333419 0.826947
C11   C     C_R   0.310643 0.448475 0.760080 -0.227139
C12   C     C_R   0.689476 0.533744 0.237456 -0.231396
C13   C     C_R   0.098578 0.278492 0.876326 0.384634
C14   C     C_R   0.940902 0.618252 0.105692 0.362352
C15   C     C_R   0.140908 0.335638 0.790751 0.337851
C16   C     C_R   0.880938 0.606145 0.197720 0.345088
C17   C     C_R   0.432065 0.507304 0.815279 -0.365710
C18   C     C_R   0.559419 0.481662 0.185330 -0.310571
C19   C     C_R   0.396518 0.448385 0.899715 0.064370
C20   C     C_R   0.613345 0.497810 0.093909 0.024755
C21   C     C_R   0.220888 0.341161 0.932405 -0.000438
C22   C     C_R   0.805697 0.570471 0.054519 -0.000658
C23   C     C_R   0.533377 0.489632 0.951416 0.126562
C24   C     C_R   0.480340 0.445257 0.040713 0.155882
Cu1   Cu    Cu3+1 0.322120 0.483240 0.490330 0.951205
Cu2   Cu    Cu3+1 0.677880 0.516760 0.509670 0.935666
H1    H     H_    0.038512 0.213922 0.046731 0.158135
H2    H     H_    0.006123 0.649671 0.932177 0.178065
H3    H     H_    0.413198 0.433317 0.218294 0.196049
H4    H     H_    0.556502 0.598166 0.789744 0.175550
H5    H     H_    0.252221 0.299549 0.138153 0.123493
H6    H     H_    0.778270 0.593359 0.846767 0.132827
H7    H     H_    0.711809 0.039458 0.504384 0.173467
H8    H     H_    0.287622 0.960462 0.496789 0.176348
H9    H     H_    0.003863 0.615411 0.569270 0.220799
H10   H     H_    0.996041 0.384461 0.430804 0.230533
N1    N     N_2   0.945180 0.542040 0.524240 -0.224455
N2    N     N_2   0.054820 0.457960 0.475760 -0.215114
O1    O     O_R   0.384450 0.714270 0.493720 -0.587855
O2    O     O_R   0.615550 0.285730 0.506280 -0.596920
O3    O     O_R   0.684880 0.742590 0.510050 -0.590426
O4    O     O_R   0.315120 0.257410 0.489950 -0.580003
O5    O     O_R   0.265540 0.477900 0.617090 -0.558490
O6    O     O_R   0.734460 0.522100 0.382910 -0.550598
O7    O     O_R   0.565970 0.506210 0.633420 -0.595646
O8    O     O_R   0.434030 0.493790 0.366580 -0.580829
O9    O     O_3   0.012751 0.660688 0.247327 -0.546500
C25   C     C_3   0.989756 0.811401 0.284018 0.084814
H11   H     H_    0.850587 0.803980 0.333017 0.147234
H12   H     H_    0.996096 0.895387 0.233165 0.083797
C26   C     C_3   0.147989 0.879196 0.330255 -0.748678
H13   H     H_    0.289743 0.892999 0.282539 0.231486
H14   H     H_    0.130377 0.996582 0.360366 0.188708
H15   H     H_    0.141491 0.798565 0.382615 0.267373
O10   O     O_3   0.038973 0.258051 0.731799 -0.569551
C27   C     C_3   0.864499 0.306694 0.746463 0.117153
H16   H     H_    0.891564 0.432482 0.728400 0.132449
H17   H     H_    0.780050 0.290795 0.815784 0.180631
C28   C     C_3   0.745362 0.206223 0.688586 -0.721804
H18   H     H_    0.605338 0.240154 0.700515 0.208460
H19   H     H_    0.822036 0.223896 0.618490 0.259386
H20   H     H_    0.719452 0.079275 0.703665 0.226052
O11   O     O_3   0.939827 0.157149 0.903082 -0.595296
C29   C     C_3   0.997132 0.010967 0.897193 0.046369
H21   H     H_    0.887586 0.930901 0.945504 0.170358
H22   H     H_    0.135783 0.020850 0.914431 0.128340
C30   C     C_3   0.008230 0.933602 0.806032 -0.767398
H23   H     H_    0.126866 0.003522 0.756500 0.260371
H24   H     H_    0.038668 0.814440 0.805723 0.174738
H25   H     H_    0.870736 0.922281 0.787743 0.257747
O12   O     O_3   0.134481 0.658931 0.064858 -0.553792
C31   C     C_3   0.197839 0.824879 0.060371 0.062954
H26   H     H_    0.246300 0.871414 0.120148 0.181132
H27   H     H_    0.085968 0.885803 0.052922 0.090658
C32   C     C_3   0.370250 0.865206 0.982495 -0.798551
H28   H     H_    0.332188 0.816094 0.920639 0.238186
H29   H     H_    0.489042 0.815249 0.991327 0.261869
H30   H     H_    0.419526 0.995590 0.977525 0.213046

loop_
_geom_bond_atom_site_label_1
_geom_bond_atom_site_label_2
_ccdc_geom_bond_type
O10   C27   S    
C9    O7    A    
C31   H27   S    
C14   O12   S    
Cu1   O5    S    
Cu2   O6    S    
C7    C8    D    
C19   C21   A    
C6    C22   A    
C27   H16   S    
Cu2   O7    S    
C5    H1    S    
C11   C15   A    
C25   C26   S    
C6    H2    S    
C20   C24   A    
C10   O8    A    
C23   C24   A    
C25   H12   S    
C28   H18   S    
C17   H4    S    
C7    H7    S    
C3    C24   A    
C31   C32   S    
C16   O9    S    
C9    O5    A    
C28   H19   S    
C10   O6    A    
C30   H23   S    
C29   C30   S    
C12   C16   A    
C4    C6    A    
C4    C23   A    
Cu1   Cu2   S    
C26   H13   S    
C30   H24   S    
C29   H22   S    
C19   C23   A    
C32   H28   S    
N1    N2    D    
Cu1   N2    S    
C9    C11   S    
O9    C25   S    
C13   O11   S    
C13   C21   A    
C18   H3    S    
C8    H8    S    
C3    H5    S    
C32   H29   S    
C4    H6    S    
C10   C12   S    
C1    O3    A    
C25   H11   S    
C20   C22   A    
C13   C15   A    
C14   C22   A    
C14   C16   A    
C11   C17   A    
C28   H20   S    
H9    N1    S    
C1    C7    S    
C2    C8    S    
C31   H26   S    
C3    C5    A    
Cu1   O4    S    
Cu2   N1    S    
C27   C28   S    
C30   H25   S    
C29   H21   S    
C26   H15   S    
H10   N2    S    
O12   C31   S    
Cu1   O1    S    
Cu2   O2    S    
C2    O4    A    
C17   C19   A    
C27   H17   S    
C18   C20   A    
C32   H30   S    
C1    O1    A    
O11   C29   S    
C2    O2    A    
C5    C21   A    
C12   C18   A    
C26   H14   S    
Cu1   O8    S    
Cu2   O3    S    
C15   O10   S    
