data_mof_unit_18974.cif
_audit_creation_date              2012-12-10T17:20:21-0500
_audit_creation_method            fapswitch 2.2
_symmetry_space_group_name_H-M    P1
_symmetry_Int_Tables_number       1
_space_group_crystal_system       triclinic
_cell_length_a                    11.630339
_cell_length_b                    10.836516
_cell_length_c                    9.808281
_cell_angle_alpha                 86.24235
_cell_angle_beta                  90.58206
_cell_angle_gamma                 95.64265
_cell_volume                      1227.51768077

loop_
_atom_site_label
_atom_site_type_symbol
_atom_type_description
_atom_site_fract_x
_atom_site_fract_y
_atom_site_fract_z
_atom_type_partial_charge
C1    C     C_R   0.509440 0.263224 0.504630 0.767962
C2    C     C_R   0.462282 0.995585 0.875541 -0.010984
C3    C     C_R   0.384313 0.893312 0.841098 0.382748
C4    C     C_R   0.382118 0.857953 0.707916 -0.185685
C5    C     C_R   0.452081 0.925591 0.607845 -0.068681
C6    C     C_R   0.494757 0.047859 0.630431 0.041878
C7    C     C_R   0.525710 0.128731 0.513630 -0.038590
C8    C     C_R   0.555953 0.075604 0.393748 -0.217949
C9    C     C_R   0.543665 0.947246 0.385657 -0.182623
C10   C     C_R   0.489135 0.871302 0.491343 -0.067337
C11   C     C_R   0.650781 0.684478 0.113463 0.368652
C12   C     C_R   0.284863 0.500562 0.499680 0.777257
C13   C     C_R   0.700174 0.777782 0.016192 0.150748
C14   C     C_R   0.705354 0.748999 0.878041 0.227621
C15   C     C_R   0.684647 0.624219 0.852744 0.226272
C16   C     C_R   0.588999 0.562237 0.922708 -0.003005
C17   C     C_R   0.580753 0.578301 0.066710 0.039425
C18   C     C_R   0.411179 0.437913 0.078186 0.177602
C19   C     C_R   0.408189 0.442295 0.929780 0.219061
C20   C     C_R   0.495161 0.736729 0.496223 0.814530
C21   C     C_R   0.715217 0.500197 0.500362 0.854804
C22   C     C_1   0.162982 0.501428 0.499997 -0.197244
C23   C     C_1   0.060143 0.501258 0.500485 -0.001271
C24   C     C_1   0.940031 0.500448 0.500556 0.005408
C25   C     C_1   0.837161 0.499974 0.500539 -0.177780
C26   C     C_R   0.514970 0.076911 0.767826 0.328220
Cu1   Cu    Cu3+1 0.499990 0.499990 0.640660 0.976859
Cu2   Cu    Cu3+1 0.500010 0.500010 0.359340 0.974798
H1    H     H_    0.589484 0.133493 0.306054 0.181077
H2    H     H_    0.330154 0.773274 0.684655 0.181117
H3    H     H_    0.576057 0.907799 0.297023 0.196892
N1    N     N_R   0.501070 0.501210 0.147910 -0.179760
N2    N     N_R   0.501110 0.501290 0.852040 -0.183812
O1    O     O_R   0.499990 0.319640 0.618810 -0.534575
O2    O     O_R   0.500000 0.319660 0.381240 -0.616376
O3    O     O_R   0.337190 0.500000 0.618790 -0.583448
O4    O     O_R   0.337200 0.500030 0.381210 -0.575502
O5    O     O_R   0.500000 0.680340 0.618760 -0.566976
O6    O     O_R   0.500010 0.680360 0.381190 -0.522383
O7    O     O_R   0.662800 0.499970 0.618790 -0.569320
O8    O     O_R   0.662810 0.500000 0.381210 -0.514485
O9    O     O_3   0.753857 0.830800 0.776283 -0.719300
H4    H     H_    0.732443 0.914672 0.793414 0.343405
C27   C     C_3   0.797067 0.561722 0.852468 -0.375674
C28   C     C_3   0.785093 0.421162 0.886885 -0.808612
H5    H     H_    0.750776 0.399060 0.991845 0.238588
H6    H     H_    0.727576 0.372677 0.813148 0.310231
H7    H     H_    0.871322 0.385884 0.881893 0.239448
H8    H     H_    0.839873 0.582875 0.752274 0.232556
H9    H     H_    0.858506 0.602740 0.928960 0.191590
C29   C     C_3   0.294942 0.387757 0.862251 -0.295568
C30   C     C_3   0.302201 0.268549 0.789666 -0.765586
H10   H     H_    0.229756 0.197286 0.819540 0.202807
H11   H     H_    0.296584 0.282953 0.677420 0.254057
H12   H     H_    0.381873 0.229494 0.821738 0.267683
H13   H     H_    0.225028 0.357880 0.931953 0.165972
H14   H     H_    0.247823 0.460468 0.810037 0.213431
O10   O     O_3   0.594701 0.175698 0.793196 -0.732642
H15   H     H_    0.582165 0.203229 0.885417 0.326722
C31   C     C_3   0.492273 0.010914 0.024226 -0.381697
C32   C     C_3   0.412965 0.095592 0.086381 -0.933802
H16   H     H_    0.452917 0.192623 0.074062 0.252123
H17   H     H_    0.326335 0.088450 0.037185 0.258163
H18   H     H_    0.399571 0.069640 0.196390 0.267099
H19   H     H_    0.484183 0.918814 0.081800 0.227691
H20   H     H_    0.584101 0.046806 0.037684 0.240830
O11   O     O_3   0.317467 0.818675 0.935418 -0.740335
H21   H     H_    0.303708 0.866653 0.014996 0.337966
C33   C     C_3   0.308544 0.368551 0.157194 -0.353427
C34   C     C_3   0.203824 0.446102 0.165697 -0.751881
H22   H     H_    0.232151 0.545827 0.176785 0.278174
H23   H     H_    0.144448 0.443256 0.077251 0.208316
H24   H     H_    0.149556 0.408048 0.253665 0.236291
H25   H     H_    0.279482 0.278893 0.114673 0.161337
H26   H     H_    0.333727 0.332489 0.258500 0.247871
O12   O     O_3   0.673062 0.697262 0.249216 -0.675479
H27   H     H_    0.737033 0.762823 0.262258 0.350805
O13   O     O_3   0.749010 0.889401 0.061403 -0.764408
H28   H     H_    0.805659 0.929339 0.993652 0.350111

loop_
_geom_bond_atom_site_label_1
_geom_bond_atom_site_label_2
_ccdc_geom_bond_type
C27   H8    S    
C7    C8    A    
C28   H5    S    
C27   C28   S    
C8    H1    S    
C15   C27   S    
C18   C19   A    
C11   O12   S    
C5    C6    A    
C2    C31   S    
Cu1   O5    S    
C15   C16   A    
C12   C22   S    
Cu2   O8    S    
C29   H13   S    
C12   O4    A    
C32   H17   S    
Cu2   O2    S    
C10   C20   S    
C16   C17   A    
C23   C24   S    
C34   H22   S    
C29   H14   S    
C12   O3    A    
C9    C10   A    
C30   H12   S    
C14   O9    S    
C18   C33   S    
C31   H20   S    
C13   C14   A    
C33   C34   S    
C30   H11   S    
C1    O1    A    
C28   H6    S    
Cu1   O1    S    
O11   H21   S    
Cu2   N1    S    
C24   C25   T    
C19   N2    A    
C20   O6    A    
O13   H28   S    
C8    C9    A    
Cu2   O6    S    
O10   H15   S    
Cu1   N2    S    
C29   C30   S    
C31   C32   S    
C32   H18   S    
C16   N2    A    
C20   O5    A    
C14   C15   A    
Cu1   O7    S    
C34   H24   S    
C33   H25   S    
C2    C26   A    
O12   H27   S    
C26   O10   S    
C21   O8    A    
C31   H19   S    
C18   N1    A    
O9    H4    S    
C3    C4    A    
C30   H10   S    
C1    O2    A    
C28   H7    S    
C27   H9    S    
C21   C25   S    
C13   O13   S    
C11   C17   A    
C1    C7    S    
C3    O11   S    
C4    C5    A    
C6    C7    A    
Cu1   O3    S    
C2    C3    A    
C5    C10   A    
C11   C13   A    
C6    C26   A    
C21   O7    A    
Cu2   O4    S    
C33   H26   S    
C32   H16   S    
C9    H3    S    
C19   C29   S    
Cu1   Cu2   S    
C17   N1    A    
C22   C23   T    
C34   H23   S    
C4    H2    S    
