data_mof_unit_24686.cif
_audit_creation_date              2012-10-26T20:43:58-0400
_audit_creation_method            fapswitch 2.2
_symmetry_space_group_name_H-M    P1
_symmetry_Int_Tables_number       1
_space_group_crystal_system       triclinic
_cell_length_a                    10.834577
_cell_length_b                    9.504438
_cell_length_c                    19.348744
_cell_angle_alpha                 90.000945
_cell_angle_beta                  90.162748
_cell_angle_gamma                 89.999321
_cell_volume                      1992.45916262

loop_
_atom_site_label
_atom_site_type_symbol
_atom_type_description
_atom_site_fract_x
_atom_site_fract_y
_atom_site_fract_z
_atom_type_partial_charge
C1    C     C_R   0.871806 0.499999 0.500056 0.017016
C2    C     C_R   0.737989 0.499999 0.500047 0.544511
C3    C     C_R   0.499948 0.500000 0.367907 0.542289
C4    C     C_R   0.500053 0.500002 0.632093 0.542295
C5    C     C_R   0.063846 0.372138 0.499962 -0.144245
C6    C     C_R   0.936154 0.627862 0.500040 -0.144190
C7    C     C_R   0.936157 0.372137 0.500034 -0.144230
C8    C     C_R   0.063843 0.627863 0.499963 -0.144173
C9    C     C_R   0.388957 0.483636 0.742880 -0.130096
C10   C     C_R   0.388707 0.515494 0.256779 -0.136801
C11   C     C_R   0.611170 0.484535 0.257130 -0.130069
C12   C     C_R   0.128194 0.500001 0.499944 0.017017
C13   C     C_R   0.611217 0.516406 0.743214 -0.136795
C14   C     C_R   0.388854 0.484415 0.814895 -0.131096
C15   C     C_R   0.388598 0.514783 0.184761 -0.130947
C16   C     C_R   0.611282 0.485279 0.185115 -0.131060
C17   C     C_R   0.611353 0.515654 0.815232 -0.130985
C18   C     C_R   0.500110 0.500045 0.851245 0.031758
C19   C     C_R   0.499943 0.500040 0.148757 0.031768
C20   C     C_R   0.420998 0.074466 0.458283 0.012285
C21   C     C_R   0.579000 0.925533 0.541717 0.012473
C22   C     C_R   0.579001 0.074466 0.541717 0.012285
C23   C     C_R   0.499772 0.630263 0.963354 0.024326
C24   C     C_R   0.421000 0.925532 0.458282 0.012475
C25   C     C_R   0.500078 0.500009 0.707102 0.029552
C26   C     C_R   0.499938 0.500002 0.292899 0.029574
C27   C     C_3   0.497479 0.768680 0.922927 -0.269276
C28   C     C_3   0.365414 0.817229 0.908777 -0.441840
C29   C     C_3   0.498670 0.231399 0.077075 -0.268937
C30   C     C_3   0.366821 0.182009 0.090741 -0.442688
C31   C     C_3   0.501250 0.768683 0.077085 -0.269281
C32   C     C_3   0.633063 0.818079 0.091261 -0.441842
C33   C     C_3   0.502780 0.231410 0.922930 -0.268977
C34   C     C_R   0.500352 0.369825 0.036649 0.024349
C35   C     C_3   0.634879 0.182893 0.909284 -0.442735
C36   C     C_R   0.499657 0.630261 0.036651 0.024324
C37   C     C_R   0.500383 0.369825 0.963351 0.024343
C38   C     C_R   0.499964 0.500043 0.072570 0.009820
C39   C     C_R   0.500108 0.500045 0.927431 0.009844
C40   C     C_R   0.262011 0.500000 0.499953 0.544512
Cu1   Cu    Cu3+1 0.500000 0.640660 0.500000 0.932384
Cu2   Cu    Cu3+1 0.500000 0.359340 0.500000 0.931926
H1    H     H_    0.357774 0.130699 0.424877 0.107206
H2    H     H_    0.302424 0.527469 0.284332 0.098698
H3    H     H_    0.697456 0.472561 0.284952 0.104007
H4    H     H_    0.697416 0.529083 0.715655 0.098735
H5    H     H_    0.302627 0.471991 0.842426 0.101574
H6    H     H_    0.302293 0.526549 0.156963 0.101552
H7    H     H_    0.697590 0.473526 0.157592 0.101546
H8    H     H_    0.697591 0.528087 0.843024 0.101574
H9    H     H_    0.316416 0.739976 0.875659 0.158870
H10   H     H_    0.313351 0.829927 0.957680 0.138939
H11   H     H_    0.367143 0.919989 0.881491 0.131429
H12   H     H_    0.642222 0.869298 0.575126 0.106423
H13   H     H_    0.548619 0.853188 0.950006 0.135103
H14   H     H_    0.546638 0.759635 0.873014 0.149800
H15   H     H_    0.317246 0.259140 0.123499 0.158006
H16   H     H_    0.315031 0.168557 0.041635 0.139249
H17   H     H_    0.369017 0.079491 0.118232 0.130311
H18   H     H_    0.550280 0.147225 0.050187 0.135198
H19   H     H_    0.547701 0.240765 0.127172 0.150274
H20   H     H_    0.685013 0.831396 0.042365 0.138891
H21   H     H_    0.630802 0.920675 0.118677 0.131525
H22   H     H_    0.682513 0.741016 0.124270 0.158847
H23   H     H_    0.642226 0.130700 0.575123 0.107219
H24   H     H_    0.449703 0.852861 0.050003 0.135126
H25   H     H_    0.452112 0.759302 0.126989 0.149761
H26   H     H_    0.683951 0.260205 0.876396 0.158046
H27   H     H_    0.686814 0.170113 0.958386 0.139320
H28   H     H_    0.633234 0.080183 0.881950 0.130204
H29   H     H_    0.451589 0.146897 0.949807 0.135184
H30   H     H_    0.453734 0.240447 0.872827 0.150323
H31   H     H_    0.357778 0.869297 0.424874 0.106444
H32   H     H_    0.111881 0.272176 0.499925 0.126021
H33   H     H_    0.888119 0.727824 0.500080 0.126056
H34   H     H_    0.888124 0.272175 0.500067 0.126028
H35   H     H_    0.111876 0.727825 0.499927 0.126061
H36   H     H_    0.302741 0.470959 0.715065 0.104057
N1    N     N_R   0.500000 0.852070 0.500000 -0.222901
N2    N     N_R   0.500000 0.147930 0.500000 -0.223214
O1    O     O_R   0.319640 0.618740 0.500000 -0.510080
O2    O     O_R   0.680360 0.381260 0.500000 -0.510163
O3    O     O_R   0.680360 0.618740 0.500000 -0.510105
O4    O     O_R   0.319640 0.381260 0.500000 -0.510189
O5    O     O_R   0.500020 0.618830 0.400190 -0.497817
O6    O     O_R   0.499980 0.381170 0.599810 -0.498098
O7    O     O_R   0.499980 0.618830 0.599810 -0.497816
O8    O     O_R   0.500020 0.381170 0.400190 -0.498081

loop_
_geom_bond_atom_site_label_1
_geom_bond_atom_site_label_2
_ccdc_geom_bond_type
C31   H24   S    
Cu2   N2    S    
C3    O5    A    
C34   C37   A    
Cu1   Cu2   S    
C14   C18   A    
Cu2   O2    S    
C9    C14   A    
C4    C25   S    
C9    C25   A    
C6    H33   S    
C4    O7    A    
C31   H25   S    
C10   C15   A    
C13   H4    S    
C28   H9    S    
C27   H13   S    
C24   H31   S    
C4    O6    A    
Cu1   O3    S    
C30   H15   S    
C1    C2    S    
C5    H32   S    
C40   O4    A    
C33   H30   S    
C20   C24   A    
C35   H28   S    
Cu2   O6    S    
C23   C27   S    
C10   C26   A    
C1    C7    A    
C21   C22   A    
C13   C25   A    
C2    O3    A    
C15   H6    S    
Cu1   O7    S    
C29   H19   S    
C20   N2    A    
C10   H2    S    
C1    C6    A    
Cu2   O4    S    
C16   H7    S    
C32   H22   S    
C5    C12   A    
C5    C7    A    
C27   H14   S    
C6    C8    A    
C11   C26   A    
C29   C34   S    
C33   C37   S    
C12   C40   S    
C15   C19   A    
C18   C39   S    
C22   H23   S    
C29   C30   S    
C19   C38   S    
C11   C16   A    
C24   N1    A    
C31   C32   S    
C29   H18   S    
C8    C12   A    
Cu1   O1    S    
C30   H17   S    
C21   N1    A    
C17   C18   A    
C14   H5    S    
C8    H35   S    
C11   H3    S    
Cu2   O8    S    
C20   H1    S    
C3    O8    A    
C34   C38   A    
C40   O1    A    
C3    C26   S    
C32   H21   S    
C17   H8    S    
Cu1   N1    S    
C28   H11   S    
C7    H34   S    
Cu1   O5    S    
C13   C17   A    
C36   C38   A    
C32   H20   S    
C37   C39   A    
C28   H10   S    
C21   H12   S    
C35   H26   S    
C16   C19   A    
C23   C39   A    
C30   H16   S    
C33   C35   S    
C9    H36   S    
C2    O2    A    
C33   H29   S    
C22   N2    A    
C35   H27   S    
C23   C36   A    
C27   C28   S    
C31   C36   S    
