data_mof_unit_17680.cif
_audit_creation_date              2012-10-26T19:10:23-0400
_audit_creation_method            fapswitch 2.2
_symmetry_space_group_name_H-M    P1
_symmetry_Int_Tables_number       1
_space_group_crystal_system       triclinic
_cell_length_a                    10.726034
_cell_length_b                    9.411621
_cell_length_c                    19.325608
_cell_angle_alpha                 89.930055
_cell_angle_beta                  90.388157
_cell_angle_gamma                 90.261556
_cell_volume                      1950.84141435

loop_
_atom_site_label
_atom_site_type_symbol
_atom_type_description
_atom_site_fract_x
_atom_site_fract_y
_atom_site_fract_z
_atom_type_partial_charge
C1    C     C_R   0.259728 0.499482 0.500401 0.550249
C2    C     C_3   0.071113 0.345443 0.510597 -0.263166
C3    C     C_3   0.928514 0.587863 0.562094 -0.242058
C4    C     C_3   0.928641 0.346508 0.511914 -0.280412
C5    C     C_3   0.073522 0.553289 0.428939 -0.147726
C6    C     C_3   0.121884 0.498354 0.499930 -0.004196
C7    C     C_3   0.877980 0.500382 0.499383 0.081837
C8    C     C_R   0.501578 0.500110 0.367446 0.560014
C9    C     C_3   0.929236 0.571987 0.430455 0.510877
C10   C     C_3   0.613155 0.084241 0.536111 -0.103988
C11   C     C_3   0.612577 0.916685 0.536670 -0.108292
C12   C     C_R   0.521580 0.503096 0.070048 0.324298
C13   C     C_3   0.390771 0.083170 0.538575 -0.104026
C14   C     C_3   0.390525 0.915534 0.538390 -0.103650
C15   C     C_3   0.497014 0.083817 0.430322 -0.101119
C16   C     C_3   0.496654 0.916747 0.430347 -0.100227
C17   C     C_R   0.740074 0.500178 0.499900 0.577708
C18   C     C_R   0.500621 0.500016 0.632472 0.553538
C19   C     C_R   0.511783 0.629697 0.255165 -0.149901
C20   C     C_R   0.509914 0.372167 0.254696 -0.148836
C21   C     C_R   0.517683 0.630435 0.183212 -0.130635
C22   C     C_R   0.516472 0.372902 0.182716 -0.130904
C23   C     C_R   0.557896 0.622094 0.815851 0.225021
C24   C     C_R   0.519494 0.502078 0.146254 0.034131
C25   C     C_R   0.507138 0.500593 0.291506 0.015018
C26   C     C_R   0.517824 0.504173 0.929743 0.380620
C27   C     C_3   0.838162 0.787729 0.384169 0.069640
C28   C     C_3   0.914566 0.812565 0.318157 -0.248767
C29   C     C_3   0.829790 0.824088 0.254663 -0.475479
C30   C     C_3   0.872487 0.375671 0.353583 -0.023629
C31   C     C_3   0.858455 0.357259 0.275389 -0.255646
C32   C     C_3   0.839744 0.201921 0.255835 -0.486092
C33   C     C_3   0.585573 0.867711 0.827752 0.030620
C34   C     C_R   0.456591 0.388317 0.818040 0.213927
C35   C     C_3   0.697467 0.940743 0.793649 -0.271572
C36   C     C_3   0.663891 0.088452 0.767056 -0.474895
C37   C     C_3   0.278919 0.266424 0.848830 0.005218
C38   C     C_3   0.218113 0.360989 0.903521 -0.258385
C39   C     C_3   0.076402 0.345929 0.901978 -0.477496
C40   C     C_R   0.554029 0.617940 0.743163 -0.152423
C41   C     C_R   0.456615 0.385886 0.745633 -0.153257
C42   C     C_R   0.503336 0.501085 0.708203 -0.074044
C43   C     C_R   0.511742 0.504321 0.853458 0.049531
C44   C     C_3   0.072367 0.594329 0.559210 -0.240001
Cu1   Cu    Cu3+1 0.499860 0.642410 0.500030 0.873293
Cu2   Cu    Cu3+1 0.499860 0.357590 0.500030 0.864119
H1    H     H_    0.510919 0.730393 0.282224 0.107945
H2    H     H_    0.577874 0.878668 0.400506 0.090589
H3    H     H_    0.302933 0.120318 0.513892 0.112896
H4    H     H_    0.302734 0.878307 0.513365 0.115927
H5    H     H_    0.520780 0.731726 0.156635 0.134906
H6    H     H_    0.517900 0.272196 0.155711 0.134250
H7    H     H_    0.594141 0.703937 0.713477 0.121424
H8    H     H_    0.418676 0.294222 0.718772 0.122361
H9    H     H_    0.102364 0.706325 0.550698 0.136587
H10   H     H_    0.102864 0.274552 0.468202 0.117403
H11   H     H_    0.111957 0.559400 0.609797 0.108104
H12   H     H_    0.507407 0.270994 0.281421 0.110329
H13   H     H_    0.107210 0.300790 0.560193 0.125275
H14   H     H_    0.898988 0.538040 0.611682 0.093890
H15   H     H_    0.897604 0.308078 0.563595 0.118823
H16   H     H_    0.890280 0.697538 0.562687 0.154154
H17   H     H_    0.891158 0.266221 0.475591 0.100456
H18   H     H_    0.119143 0.656885 0.416822 0.127446
H19   H     H_    0.103886 0.481233 0.386966 0.077691
H20   H     H_    0.808206 0.893322 0.403258 0.090245
H21   H     H_    0.750362 0.727598 0.373973 0.193632
H22   H     H_    0.970228 0.911663 0.324050 0.122378
H23   H     H_    0.620262 0.124762 0.590041 0.115497
H24   H     H_    0.981379 0.724809 0.309370 0.196811
H25   H     H_    0.785592 0.719482 0.243656 0.173422
H26   H     H_    0.885476 0.856583 0.209038 0.150720
H27   H     H_    0.755487 0.903658 0.263298 0.128421
H28   H     H_    0.790695 0.324858 0.378552 0.159509
H29   H     H_    0.959947 0.322898 0.369893 0.111515
H30   H     H_    0.777012 0.419215 0.256607 0.190792
H31   H     H_    0.943130 0.399213 0.249375 0.162341
H32   H     H_    0.922246 0.139036 0.271944 0.145087
H33   H     H_    0.827859 0.192629 0.198902 0.158843
H34   H     H_    0.617680 0.877706 0.590985 0.106579
H35   H     H_    0.754947 0.158871 0.281203 0.133622
H36   H     H_    0.412679 0.122471 0.402380 0.112556
H37   H     H_    0.411970 0.877771 0.402583 0.113314
H38   H     H_    0.558867 0.930799 0.873855 0.186660
H39   H     H_    0.502618 0.869117 0.792570 0.108901
H40   H     H_    0.774716 0.950341 0.832019 0.177379
H41   H     H_    0.731393 0.876028 0.749716 0.147807
H42   H     H_    0.586006 0.081832 0.728981 0.139829
H43   H     H_    0.745916 0.136910 0.741227 0.133413
H44   H     H_    0.636544 0.157541 0.810847 0.201607
H45   H     H_    0.698481 0.120835 0.509013 0.109376
H46   H     H_    0.250213 0.154590 0.858403 0.151603
H47   H     H_    0.243220 0.294040 0.796215 0.106520
H48   H     H_    0.253358 0.330962 0.955723 0.194964
H49   H     H_    0.243009 0.473952 0.893800 0.158062
H50   H     H_    0.039017 0.377633 0.850510 0.147203
H51   H     H_    0.035223 0.415824 0.941945 0.163339
H52   H     H_    0.048634 0.234376 0.913018 0.150128
H53   H     H_    0.698381 0.878979 0.510967 0.130527
H54   H     H_    0.389671 0.122430 0.592830 0.107175
H55   H     H_    0.388663 0.875458 0.592544 0.112377
H56   H     H_    0.579169 0.122617 0.400784 0.102623
N1    N     N_R   0.536298 0.380636 0.034074 -0.245436
N2    N     N_R   0.505662 0.626185 0.034485 -0.239854
N3    N     N_R   0.534636 0.381218 0.965260 -0.181567
N4    N     N_R   0.503665 0.626681 0.965687 -0.193210
N5    N     N_3   0.500250 0.143650 0.501520 -0.220548
N6    N     N_3   0.500250 0.856350 0.501520 -0.223187
O1    O     O_R   0.317570 0.620260 0.500040 -0.514833
O2    O     O_3   0.870866 0.522324 0.367710 -0.598015
O3    O     O_3   0.620252 0.730417 0.851086 -0.553066
O4    O     O_3   0.410568 0.272640 0.854442 -0.566802
O5    O     O_R   0.317570 0.379740 0.500040 -0.511382
O6    O     O_R   0.499870 0.620300 0.400170 -0.517414
O7    O     O_R   0.499870 0.379700 0.400170 -0.513532
O8    O     O_R   0.682190 0.620260 0.500020 -0.496391
O9    O     O_R   0.682190 0.379740 0.500020 -0.528620
O10   O     O_R   0.499890 0.620220 0.599880 -0.509651
O11   O     O_R   0.499890 0.379780 0.599880 -0.505791
O12   O     O_3   0.910691 0.722852 0.437050 -0.594770

loop_
_geom_bond_atom_site_label_1
_geom_bond_atom_site_label_2
_ccdc_geom_bond_type
C36   H43   S    
Cu1   O10   S    
C34   O4    S    
C41   C42   A    
C35   C36   S    
C44   H9    S    
C13   N5    S    
C16   H2    S    
N2    N4    A    
C14   H4    S    
Cu1   Cu2   S    
C36   H42   S    
C32   H35   S    
C4    H17   S    
Cu2   O7    S    
C30   O2    S    
C28   C29   S    
C28   H22   S    
C12   N2    A    
C3    C7    S    
C18   C42   S    
C30   C31   S    
C30   H28   S    
C35   H40   S    
Cu1   O1    S    
C39   H51   S    
C29   H27   S    
C20   C25   A    
C23   C40   A    
C23   C43   A    
C11   H53   S    
C15   N5    S    
C33   H39   S    
C37   O4    S    
C8    O7    A    
C1    O1    A    
C35   H41   S    
Cu1   O6    S    
C7    C17   S    
C38   H49   S    
C33   O3    S    
C18   O10   A    
C37   H46   S    
Cu1   N6    S    
C8    O6    A    
C29   H26   S    
C3    H14   S    
C11   N6    S    
C40   C42   A    
C6    C44   S    
C13   C14   S    
C8    C25   S    
C26   N4    A    
C10   N5    S    
C2    C6    S    
C34   C41   A    
C1    O5    A    
C4    C7    S    
C26   N3    A    
C26   C43   S    
C31   H31   S    
C15   H36   S    
C38   C39   S    
C41   H8    S    
C3    C44   S    
C1    C6    S    
C12   N1    A    
C5    H19   S    
C11   H34   S    
C2    H13   S    
C14   H55   S    
C27   O12   S    
C4    H15   S    
C16   H37   S    
Cu2   O9    S    
C2    C4    S    
C5    C9    S    
C37   C38   S    
C31   C32   S    
C44   H11   S    
Cu2   N5    S    
C38   H48   S    
C37   H47   S    
N1    N3    A    
C13   H3    S    
C20   C22   A    
C10   H45   S    
C22   C24   A    
C20   H12   S    
C21   H5    S    
C22   H6    S    
C3    H16   S    
C36   H44   S    
C9    O2    S    
C7    C9    S    
Cu2   O5    S    
C19   C21   A    
C28   H24   S    
C34   C43   A    
C39   H52   S    
C17   O9    A    
C23   O3    S    
C12   C24   S    
C13   H54   S    
C27   H20   S    
C2    H10   S    
C32   H33   S    
C30   H29   S    
Cu1   O8    S    
C31   H30   S    
C5    C6    S    
C14   N6    S    
C33   C35   S    
Cu2   O11   S    
C19   H1    S    
C15   H56   S    
C19   C25   A    
C33   H38   S    
C39   H50   S    
C27   H21   S    
C10   C11   S    
C16   N6    S    
C32   H32   S    
C10   H23   S    
C5    H18   S    
C40   H7    S    
C21   C24   A    
C27   C28   S    
C9    O12   S    
C18   O11   A    
C15   C16   S    
C17   O8    A    
C29   H25   S    
