data_mof_unit_7199.cif
_audit_creation_date              2012-10-26T17:10:32-0400
_audit_creation_method            fapswitch 2.2
_symmetry_space_group_name_H-M    P1
_symmetry_Int_Tables_number       1
_space_group_crystal_system       triclinic
_cell_length_a                    16.907616
_cell_length_b                    16.889247
_cell_length_c                    16.911745
_cell_angle_alpha                 66.907775
_cell_angle_beta                  66.895564
_cell_angle_gamma                 66.690662
_cell_volume                      3915.61229677

loop_
_atom_site_label
_atom_site_type_symbol
_atom_type_description
_atom_site_fract_x
_atom_site_fract_y
_atom_site_fract_z
_atom_type_partial_charge
C1    C     C_R   0.596933 0.013303 0.604669 -0.038758
C2    C     C_R   0.399304 0.977555 0.405417 -0.046387
C3    C     C_R   0.017201 0.602486 0.595745 -0.081196
C4    C     C_R   0.985447 0.404876 0.394078 0.022606
C5    C     C_R   0.603563 0.593162 0.020564 -0.004899
C6    C     C_R   0.404355 0.394690 0.985886 0.028362
C7    C     C_R   0.030912 0.828731 0.563965 0.846453
C8    C     C_R   0.981412 0.169578 0.430839 0.879626
C9    C     C_R   0.828553 0.563323 0.032851 0.767176
C10   C     C_R   0.169577 0.430820 0.981354 0.907064
C11   C     C_R   0.563695 0.031659 0.828612 0.807836
C12   C     C_R   0.430689 0.982393 0.169116 0.889246
C13   C     C_R   0.436562 0.171513 0.967519 0.777440
C14   C     C_R   0.569092 0.830274 0.018879 0.893687
C15   C     C_R   0.967641 0.436559 0.171433 0.769786
C16   C     C_R   0.017677 0.569248 0.830870 0.890131
C17   C     C_R   0.171229 0.968807 0.436098 0.856344
C18   C     C_R   0.830628 0.018405 0.569176 0.882155
C19   C     C_R   0.547758 0.001347 0.553467 -0.047331
C20   C     C_R   0.451535 0.984248 0.457039 -0.047189
C21   C     C_R   0.006260 0.552580 0.544713 -0.135096
C22   C     C_R   0.995008 0.455353 0.445452 -0.054010
C23   C     C_R   0.551281 0.541578 0.013990 -0.098337
C24   C     C_R   0.454617 0.445521 0.996647 -0.058477
C25   C     C_R   0.586645 0.002393 0.461956 0.249412
C26   C     C_R   0.408999 0.998869 0.542687 0.228992
C27   C     C_R   0.015274 0.459299 0.579283 0.274536
C28   C     C_R   0.005875 0.542789 0.404377 0.418781
C29   C     C_R   0.458176 0.578250 0.019459 0.207158
C30   C     C_R   0.540590 0.402516 0.011002 0.291372
C31   C     C_R   0.544049 0.979121 0.419729 0.262050
C32   C     C_R   0.462084 0.987104 0.595832 0.232948
C33   C     C_R   0.417577 0.538009 0.992445 0.321470
C34   C     C_R   0.593861 0.455503 0.999511 0.331964
C35   C     C_R   0.990470 0.417831 0.537630 0.213614
C36   C     C_R   0.990911 0.595655 0.458832 0.215491
C37   C     C_R   0.550433 0.050765 0.678790 0.384817
C38   C     C_R   0.423473 0.006189 0.309693 0.357748
C39   C     C_R   0.052122 0.678046 0.550865 0.284319
C40   C     C_R   0.011468 0.308937 0.418668 0.316497
C41   C     C_R   0.677731 0.547863 0.057088 0.423911
C42   C     C_R   0.308573 0.419276 0.011414 0.305632
C43   C     C_R   0.322742 0.944059 0.449625 0.366792
C44   C     C_R   0.692665 0.986761 0.581491 0.339455
C45   C     C_R   0.450819 0.321864 0.947284 0.405355
C46   C     C_R   0.578880 0.689139 0.993116 0.230051
C47   C     C_R   0.946489 0.450979 0.321690 0.397119
C48   C     C_R   0.991704 0.576664 0.691408 0.385312
C49   C     C_R   0.599586 0.048982 0.730214 -0.238247
C50   C     C_R   0.388661 0.978902 0.264340 -0.206580
C51   C     C_R   0.045792 0.730951 0.600963 -0.134081
C52   C     C_R   0.977298 0.265396 0.388416 -0.157801
C53   C     C_R   0.729569 0.598142 0.053403 -0.334253
C54   C     C_R   0.265395 0.388748 0.977039 -0.163359
C55   C     C_R   0.269000 0.953247 0.399046 -0.157191
C56   C     C_R   0.735290 0.021853 0.611605 -0.156402
C57   C     C_R   0.401608 0.270585 0.947850 -0.335215
C58   C     C_R   0.610941 0.733994 0.024211 -0.151513
C59   C     C_R   0.948194 0.401409 0.270190 -0.339147
C60   C     C_R   0.020490 0.611217 0.735842 -0.212324
C61   C     C_R   0.687750 0.053678 0.687296 0.231628
C62   C     C_R   0.308310 0.955625 0.309299 0.201647
C63   C     C_R   0.044518 0.691233 0.690387 0.210284
C64   C     C_R   0.945068 0.312645 0.312862 0.274341
C65   C     C_R   0.686944 0.687204 0.055779 0.273988
C66   C     C_R   0.313016 0.313529 0.944204 0.270425
Cu1   Cu    Cu3+1 0.995180 0.995180 0.424630 1.111825
Cu2   Cu    Cu3+1 0.004820 0.004820 0.575370 1.116875
Cu3   Cu    Cu3+1 0.995180 0.424630 0.995180 1.098402
Cu4   Cu    Cu3+1 0.004820 0.575370 0.004820 1.085171
Cu5   Cu    Cu3+1 0.424630 0.995180 0.995180 1.097664
Cu6   Cu    Cu3+1 0.575370 0.004820 0.004820 1.093349
O1    O     O_R   0.124540 0.978640 0.385460 -0.570750
O2    O     O_R   0.875460 0.021360 0.614540 -0.542540
O3    O     O_R   0.978640 0.385460 0.124540 -0.569910
O4    O     O_R   0.021360 0.614540 0.875460 -0.575488
O5    O     O_R   0.385460 0.124540 0.978640 -0.566420
O6    O     O_R   0.614540 0.875460 0.021360 -0.532237
O7    O     O_R   0.614540 0.021360 0.875460 -0.587301
O8    O     O_R   0.385460 0.978640 0.124540 -0.577295
O9    O     O_R   0.875460 0.614540 0.021360 -0.571239
O10   O     O_R   0.124540 0.385460 0.978640 -0.534281
O11   O     O_R   0.021360 0.875460 0.614540 -0.573225
O12   O     O_R   0.978640 0.124540 0.385460 -0.543020
O13   O     O_R   0.013780 0.867370 0.487190 -0.534910
O14   O     O_R   0.986220 0.132630 0.512810 -0.532546
O15   O     O_R   0.867370 0.487190 0.013780 -0.552732
O16   O     O_R   0.132630 0.512810 0.986220 -0.523595
O17   O     O_R   0.487190 0.013780 0.867370 -0.515762
O18   O     O_R   0.512810 0.986220 0.132630 -0.519875
O19   O     O_R   0.512810 0.132630 0.986220 -0.555913
O20   O     O_R   0.487190 0.867370 0.013780 -0.532880
O21   O     O_R   0.986220 0.512810 0.132630 -0.550025
O22   O     O_R   0.013780 0.487190 0.867370 -0.516838
O23   O     O_R   0.132630 0.986220 0.512810 -0.527708
O24   O     O_R   0.867370 0.013780 0.487190 -0.538831
O25   O     O_3   0.431805 0.960827 0.688255 -0.661853
H1    H     H_    0.380670 0.936488 0.706701 0.351632
O26   O     O_3   0.590828 0.950997 0.343209 -0.671083
H2    H     H_    0.634113 0.985873 0.303957 0.355068
O27   O     O_3   0.961646 0.687807 0.425737 -0.661107
H3    H     H_    0.927148 0.713472 0.477164 0.356229
O28   O     O_3   0.960908 0.342349 0.585976 -0.666707
H4    H     H_    0.943451 0.336500 0.650795 0.350436
O29   O     O_3   0.686409 0.425659 0.970761 -0.650258
H5    H     H_    0.704363 0.374154 0.946859 0.345301
O30   O     O_3   0.340880 0.587019 0.964678 -0.652174
H6    H     H_    0.328523 0.651491 0.957774 0.386227
O31   O     O_3   0.316410 0.026685 0.572475 -0.666359
H7    H     H_    0.298067 0.051381 0.623435 0.349624
O32   O     O_3   0.664059 0.028412 0.414822 -0.675030
H8    H     H_    0.705911 0.986236 0.379005 0.354626
O33   O     O_3   0.570378 0.309822 0.038718 -0.652827
H9    H     H_    0.622049 0.291354 0.062442 0.346721
O34   O     O_3   0.404785 0.652265 0.050569 -0.663964
H10   H     H_    0.429241 0.653119 0.094632 0.351420
O35   O     O_3   0.030747 0.575423 0.312078 -0.640458
H11   H     H_    0.042878 0.633706 0.294604 0.379048
O36   O     O_3   0.048919 0.409822 0.652229 -0.664434
H12   H     H_    0.068848 0.345187 0.655703 0.346410
O37   O     O_3   0.459780 0.094262 0.699777 -0.656305
H13   H     H_    0.442207 0.123398 0.643283 0.333218
O38   O     O_3   0.474683 0.065180 0.259075 -0.665617
H14   H     H_    0.467588 0.101776 0.296372 0.333757
O39   O     O_3   0.094414 0.700868 0.460266 -0.647096
H15   H     H_    0.124777 0.644865 0.441556 0.347482
O40   O     O_3   0.071742 0.256353 0.468493 -0.653427
H16   H     H_    0.109708 0.292388 0.460889 0.334694
O41   O     O_3   0.695125 0.457012 0.100627 -0.655555
H17   H     H_    0.736825 0.440417 0.136261 0.318194
O42   O     O_3   0.255759 0.468838 0.071907 -0.645221
H18   H     H_    0.291742 0.461085 0.110048 0.340916
O43   O     O_3   0.300975 0.898227 0.539338 -0.638810
H19   H     H_    0.357317 0.866635 0.557267 0.339998
O44   O     O_3   0.745904 0.923377 0.535321 -0.686466
H20   H     H_    0.709764 0.884935 0.544255 0.332303
O45   O     O_3   0.541846 0.305067 0.905133 -0.653421
H21   H     H_    0.559416 0.264777 0.867661 0.322616
O46   O     O_3   0.525279 0.740348 0.936203 -0.651597
H22   H     H_    0.531530 0.703718 0.899343 0.347276
O47   O     O_3   0.901945 0.541677 0.306155 -0.641828
H23   H     H_    0.865214 0.558717 0.265361 0.322619
O48   O     O_3   0.935299 0.522842 0.743047 -0.649220
H24   H     H_    0.896802 0.530005 0.707712 0.335481
O49   O     O_3   0.728494 0.087030 0.718901 -0.663491
H25   H     H_    0.681318 0.130673 0.751039 0.333086
O50   O     O_3   0.266818 0.936373 0.266272 -0.643912
H26   H     H_    0.238375 0.995176 0.228849 0.349514
O51   O     O_3   0.065905 0.731860 0.732590 -0.644701
H27   H     H_    0.007888 0.761219 0.770222 0.348677
O52   O     O_3   0.912764 0.271059 0.281099 -0.663843
H28   H     H_    0.869341 0.317800 0.248496 0.333202
O53   O     O_3   0.719312 0.729527 0.086664 -0.663291
H29   H     H_    0.751766 0.683346 0.130399 0.334590
O54   O     O_3   0.271788 0.282083 0.911204 -0.662369
H30   H     H_    0.318668 0.249173 0.868129 0.346865

loop_
_geom_bond_atom_site_label_1
_geom_bond_atom_site_label_2
_ccdc_geom_bond_type
C25   C31   A    
C15   O3    A    
C26   C32   A    
O27   H3    S    
C39   O39   S    
C6    C45   A    
C29   C33   A    
Cu2   O14   S    
C7    O11   A    
O50   H26   S    
C33   O30   S    
C57   C66   A    
Cu4   O16   S    
O49   H25   S    
O51   H27   S    
O38   H14   S    
C21   C36   A    
C22   C35   A    
C10   O16   A    
C59   C64   A    
O39   H15   S    
C60   C63   A    
C23   C29   A    
C12   O18   A    
O41   H17   S    
Cu6   O7    S    
C35   O28   S    
C28   O35   S    
C66   O54   S    
C13   C57   S    
Cu2   O2    S    
O48   H24   S    
C55   C62   A    
O25   H1    S    
C3    C48   A    
Cu6   O18   S    
C32   O25   S    
C16   C60   S    
C43   O43   S    
Cu4   O9    S    
C11   O17   A    
C63   O51   S    
C65   O53   S    
Cu3   O10   S    
C1    C44   A    
C54   C66   A    
C39   C51   A    
Cu5   O20   S    
O32   H8    S    
C5    C23   S    
Cu6   O6    S    
O30   H6    S    
C42   O42   S    
Cu1   O1    S    
C31   O26   S    
C53   C65   A    
C8    C52   S    
C38   O38   S    
Cu3   O15   S    
C1    C37   A    
C44   O44   S    
C4    C22   S    
C21   C27   A    
C3    C39   A    
Cu1   O12   S    
C18   O2    A    
C16   O4    A    
C46   C58   A    
C17   O1    A    
Cu2   O11   S    
C10   C54   S    
C19   C32   A    
Cu5   O8    S    
C48   C60   A    
O54   H30   S    
C14   C58   S    
O46   H22   S    
C13   O5    A    
Cu1   O13   S    
Cu2   O23   S    
C1    C19   S    
C30   C34   A    
C64   O52   S    
C2    C20   S    
Cu1   Cu2   S    
C20   C31   A    
C4    C40   A    
O44   H20   S    
Cu4   O21   S    
C49   C61   A    
Cu3   O22   S    
C52   C64   A    
Cu6   O19   S    
C17   O23   A    
C27   C35   A    
C40   C52   A    
C40   O40   S    
C10   O10   A    
C48   O48   S    
C36   O27   S    
C11   C49   S    
O43   H19   S    
C37   C49   A    
C44   C56   A    
C58   C65   A    
O26   H2    S    
Cu5   O17   S    
C2    C43   A    
O52   H28   S    
C23   C34   A    
C45   C57   A    
C45   O45   S    
C51   C63   A    
C18   C56   S    
C26   O31   S    
C41   C53   A    
O37   H13   S    
C5    C46   A    
C11   O7    A    
C37   O37   S    
C43   C55   A    
C14   O20   A    
C62   O50   S    
Cu4   O4    S    
Cu1   O24   S    
C50   C62   A    
C3    C21   S    
C9    C53   S    
O42   H18   S    
Cu5   O5    S    
O33   H9    S    
O29   H5    S    
C5    C41   A    
C8    O12   A    
C34   O29   S    
C15   C59   S    
C18   O24   A    
C15   O21   A    
C12   C50   S    
O36   H12   S    
C6    C24   S    
C38   C50   A    
C27   O36   S    
O45   H21   S    
C47   O47   S    
C16   O22   A    
C24   C33   A    
C42   C54   A    
C2    C38   A    
C7    C51   S    
Cu5   Cu6   S    
O35   H11   S    
C9    O15   A    
C41   O41   S    
O34   H10   S    
C7    O13   A    
C20   C26   A    
C17   C55   S    
C12   O8    A    
C61   O49   S    
Cu3   O3    S    
C8    O14   A    
C14   O6    A    
C29   O34   S    
Cu3   Cu4   S    
C19   C25   A    
C24   C30   A    
C25   O32   S    
C47   C59   A    
C28   C36   A    
C6    C42   A    
O31   H7    S    
O28   H4    S    
C56   C61   A    
C22   C28   A    
O53   H29   S    
O47   H23   S    
C4    C47   A    
C13   O19   A    
O40   H16   S    
C9    O9    A    
C46   O46   S    
C30   O33   S    
