data_mof_unit_21557.cif
_audit_creation_date              2012-12-11T15:46:51-0500
_audit_creation_method            fapswitch 2.2
_symmetry_space_group_name_H-M    P1
_symmetry_Int_Tables_number       1
_space_group_crystal_system       triclinic
_cell_length_a                    11.538528
_cell_length_b                    11.534267
_cell_length_c                    19.577874
_cell_angle_alpha                 90.466603
_cell_angle_beta                  90.062391
_cell_angle_gamma                 59.915787
_cell_volume                      2254.50087006

loop_
_atom_site_label
_atom_site_type_symbol
_atom_type_description
_atom_site_fract_x
_atom_site_fract_y
_atom_site_fract_z
_atom_type_partial_charge
C1    C     C_R   0.640417 0.117267 0.599332 0.548831
C2    C     C_1   0.641220 0.704078 0.668071 0.006319
C3    C     C_1   0.126544 0.198878 0.859235 0.007508
C4    C     C_1   0.171633 0.170272 0.727740 -0.028217
C5    C     C_1   0.150089 0.182355 0.798927 -0.027790
C6    C     C_1   0.195502 0.160840 0.667455 0.007115
C7    C     C_1   0.678671 0.191387 0.860711 0.007300
C8    C     C_1   0.658550 0.167128 0.729052 -0.028404
C9    C     C_1   0.665747 0.180939 0.800315 -0.027705
C10   C     C_1   0.652931 0.149537 0.668707 0.007354
C11   C     C_R   0.647983 0.690168 0.187290 -0.001566
C12   C     C_R   0.612453 0.746099 0.598708 0.546611
C13   C     C_R   0.532945 0.712439 0.222709 0.057098
C14   C     C_R   0.526947 0.726264 0.292003 -0.034216
C15   C     C_R   0.737320 0.722843 0.292658 -0.166114
C16   C     C_R   0.743355 0.710573 0.221485 -0.174773
C17   C     C_3   0.463787 0.631167 0.225962 0.141500
C18   C     C_3   0.455054 0.650649 0.302408 -0.198329
C19   C     C_R   0.634015 0.718044 0.328515 0.005761
C20   C     C_R   0.153401 0.194179 0.189486 -0.021555
C21   C     C_R   0.166465 0.288413 0.228673 0.082879
C22   C     C_R   0.189398 0.270493 0.297339 0.036363
C23   C     C_R   0.241145 0.145233 0.598263 0.545953
C24   C     C_R   0.209436 0.052887 0.289836 -0.102984
C25   C     C_R   0.184148 0.071512 0.219489 -0.148983
C26   C     C_3   0.071581 0.435418 0.238413 0.104260
C27   C     C_3   0.098625 0.414897 0.314281 -0.215572
C28   C     C_R   0.202627 0.157678 0.330121 0.009443
C29   C     C_R   0.668630 0.175804 0.190040 -0.043979
C30   C     C_R   0.758754 0.055193 0.222067 -0.058613
C31   C     C_R   0.750196 0.038743 0.290616 -0.028183
C32   C     C_R   0.547864 0.253604 0.297148 0.336922
C33   C     C_R   0.555435 0.269541 0.226694 -0.121353
C34   C     C_R   0.642834 0.111311 0.401420 0.590141
C35   C     C_3   0.909216 0.976614 0.223895 -0.165198
C36   C     C_3   0.898303 0.958929 0.299635 0.258120
C37   C     C_R   0.652860 0.141165 0.330622 0.059171
C38   C     C_R   0.081653 0.231216 0.928529 0.546497
C39   C     C_R   0.683962 0.604291 0.929434 0.542706
C40   C     C_R   0.708433 0.206739 0.930063 0.545126
C41   C     C_R   0.084338 0.235481 0.124740 0.541713
C42   C     C_R   0.680586 0.615533 0.124076 0.535028
C43   C     C_R   0.707558 0.209664 0.126126 0.547190
C44   C     C_R   0.613931 0.745027 0.400557 0.547678
C45   C     C_R   0.246599 0.139282 0.400541 0.557602
C46   C     C_1   0.670420 0.646283 0.860069 0.007338
C47   C     C_1   0.654741 0.683774 0.728463 -0.028755
C48   C     C_1   0.663444 0.666576 0.799678 -0.028149
Cr1   Cr    Cr6+3 0.404720 0.198220 0.499960 1.085152
Cr2   Cr    Cr6+3 0.698290 0.897110 0.500380 1.047556
Cr3   Cr    Cr6+3 0.396970 0.904720 0.499610 1.056708
Cr4   Cr    Cr6+3 0.926290 0.152010 0.028150 1.056933
Cr5   Cr    Cr6+3 0.921440 0.451830 0.027490 1.077223
Cr6   Cr    Cr6+3 0.626370 0.446880 0.028730 1.083864
H1    H     H_    0.815483 0.730226 0.319424 0.138668
H2    H     H_    0.154134 0.462606 0.335581 0.229160
H3    H     H_    0.009535 0.432557 0.344485 0.096451
H4    H     H_    0.478376 0.358932 0.202286 0.198067
H5    H     H_    0.955553 0.038604 0.212638 0.188701
H6    H     H_    0.950848 0.881079 0.194485 0.163496
H7    H     H_    0.935495 0.853654 0.315078 0.143634
H8    H     H_    0.829109 0.702531 0.194664 0.173600
H9    H     H_    0.529384 0.524885 0.210862 0.143621
H10   H     H_    0.351713 0.715405 0.322293 0.194587
H11   H     H_    0.515911 0.555864 0.330827 0.154757
H12   H     H_    0.230398 0.959276 0.312656 0.183036
H13   H     H_    0.179544 0.994662 0.189725 0.193147
H14   H     H_    0.967160 0.465107 0.224416 0.125835
O1    O     O_R   0.267750 0.231960 0.575440 -0.506376
O2    O     O_R   0.685950 0.784660 0.430010 -0.513053
O3    O     O_R   0.502510 0.767000 0.423980 -0.513014
O4    O     O_R   0.288320 0.026340 0.429250 -0.496264
O5    O     O_3   0.499990 0.000020 0.499980 -0.279671
O6    O     O_R   0.821590 0.119350 0.952850 -0.500414
O7    O     O_R   0.037230 0.162540 0.957390 -0.491673
O8    O     O_R   0.056530 0.344750 0.951370 -0.496940
O9    O     O_R   0.798000 0.560370 0.957490 -0.494722
O10   O     O_R   0.596230 0.579400 0.952760 -0.495174
O11   O     O_R   0.639160 0.321170 0.958690 -0.490178
O12   O     O_R   0.527290 0.186640 0.570530 -0.495970
O13   O     O_R   0.821370 0.124220 0.104400 -0.513777
O14   O     O_R   0.037020 0.167050 0.097880 -0.507910
O15   O     O_R   0.056310 0.349620 0.102920 -0.472433
O16   O     O_R   0.797790 0.564880 0.097980 -0.502201
O17   O     O_R   0.596000 0.584270 0.104310 -0.487975
O18   O     O_R   0.638950 0.325690 0.099180 -0.498353
O19   O     O_3   0.824700 0.350240 0.028120 -0.274696
O20   O     O_R   0.728110 0.003450 0.576380 -0.498642
O21   O     O_R   0.682980 0.789190 0.570500 -0.494744
O22   O     O_R   0.499300 0.771880 0.575540 -0.499982
O23   O     O_R   0.285350 0.030870 0.569740 -0.490298
O24   O     O_R   0.270960 0.227070 0.423890 -0.490948
O25   O     O_R   0.530270 0.182120 0.430040 -0.443547
O26   O     O_R   0.731320 0.998570 0.424830 -0.502481
Cl1   Cl    Cl    0.134207 0.533661 0.200904 -0.544254
F1    F     F_    0.441456 0.350501 0.332266 -0.620988
F2    F     F_    0.946402 0.025966 0.338991 -0.632142
Cl2   Cl    Cl    0.304703 0.712555 0.184920 -0.564466

loop_
_geom_bond_atom_site_label_1
_geom_bond_atom_site_label_2
_ccdc_geom_bond_type
C21   C26   S    
C33   H4    S    
C34   C37   S    
C14   C18   S    
C35   C36   S    
C25   H13   S    
C34   O25   A    
Cr4   O7    S    
C2    C12   S    
C20   C41   S    
C38   O8    A    
C18   H11   S    
C15   C19   A    
C26   C27   S    
C16   H8    S    
C30   C35   S    
C11   C42   S    
Cr5   O16   S    
C39   O9    A    
C12   O22   A    
Cr4   O6    S    
Cr3   O22   S    
Cr6   O19   S    
C20   C25   A    
C6    C23   S    
C15   C16   A    
C41   O15   A    
C29   C33   A    
C44   O3    A    
C35   H5    S    
C45   O24   A    
C23   O1    A    
Cr3   O23   S    
C3    C38   S    
C8    C9    S    
C7    C40   S    
C44   O2    A    
C36   F2    S    
C24   C28   A    
C17   Cl2   S    
C24   H12   S    
C1    O20   A    
Cr1   O1    S    
C21   C22   A    
C29   C43   S    
C45   O4    A    
Cr3   O3    S    
C38   O7    A    
C46   C48   T    
C28   C45   S    
C39   O10   A    
Cr3   O5    S    
C12   O21   A    
C42   O16   A    
C24   C25   A    
C4    C6    T    
C27   H3    S    
Cr2   O5    S    
Cr6   O18   S    
C27   H2    S    
Cr2   O26   S    
C31   C37   A    
C35   H6    S    
C15   H1    S    
Cr5   O9    S    
C29   C30   A    
C11   C16   A    
Cr2   O21   S    
C47   C48   S    
C17   C18   S    
C40   O11   A    
Cr5   O19   S    
C42   O17   A    
C32   C37   A    
Cr4   O14   S    
C39   C46   S    
C32   F1    S    
C22   C27   S    
C43   O13   A    
C23   O23   A    
Cr5   O8    S    
Cr3   O4    S    
Cr1   O24   S    
C36   H7    S    
C19   C44   S    
Cr6   O11   S    
C26   Cl1   S    
C7    C9    T    
C43   O18   A    
C14   C19   A    
Cr4   O19   S    
C1    C10   S    
C34   O26   A    
C4    C5    S    
C3    C5    T    
Cr6   O17   S    
Cr2   O20   S    
C2    C47   T    
Cr1   O12   S    
C13   C17   S    
Cr5   O15   S    
C26   H14   S    
C32   C33   A    
Cr2   O2    S    
C17   H9    S    
C11   C13   A    
C18   H10   S    
C30   C31   A    
C41   O14   A    
C40   O6    A    
Cr1   O5    S    
Cr4   O13   S    
C20   C21   A    
C8    C10   T    
C1    O12   A    
C31   C36   S    
C22   C28   A    
Cr1   O25   S    
C13   C14   A    
Cr6   O10   S    
