data_mof_unit_45057.cif
_audit_creation_date              2012-12-11T15:08:31-0500
_audit_creation_method            fapswitch 2.2
_symmetry_space_group_name_H-M    P1
_symmetry_Int_Tables_number       1
_space_group_crystal_system       triclinic
_cell_length_a                    26.929383
_cell_length_b                    7.099016
_cell_length_c                    11.975357
_cell_angle_alpha                 89.999985
_cell_angle_beta                  103.904997
_cell_angle_gamma                 90.000306
_cell_volume                      2222.2660699

loop_
_atom_site_label
_atom_site_type_symbol
_atom_type_description
_atom_site_fract_x
_atom_site_fract_y
_atom_site_fract_z
_atom_type_partial_charge
O1    O     O_R   0.437360 0.505910 0.042120 -0.516214
O2    O     O_R   0.562640 0.005910 0.957880 -0.516216
O3    O     O_R   0.542480 0.176660 0.157100 -0.530088
O4    O     O_R   0.457520 0.676660 0.842900 -0.530086
C1    C     C_R   0.555401 0.344660 0.199731 0.804167
C2    C     C_R   0.444598 0.844660 0.800268 0.804177
O5    O     O_R   0.436520 0.176250 0.054800 -0.532920
O6    O     O_R   0.563480 0.676250 0.945200 -0.532920
O7    O     O_R   0.455920 0.005040 0.854840 -0.531875
O8    O     O_R   0.544080 0.505040 0.145160 -0.531879
C3    C     C_R   0.417700 0.345141 0.063983 0.803938
C4    C     C_R   0.582300 0.845142 0.936017 0.803931
O9    O     O_3   0.506490 0.338900 0.934520 -0.371785
O10   O     O_3   0.493510 0.838900 0.065480 -0.371786
V1    V     V_3+5 0.498800 0.064400 0.012150 1.707832
V2    V     V_3+5 0.501200 0.564400 0.987850 1.707831
C5    C     C_R   0.679902 0.840267 0.758397 0.405625
C6    C     C_R   0.320099 0.340261 0.241600 0.405624
H1    H     H_    0.598471 0.817339 0.724905 0.227528
H2    H     H_    0.401529 0.317335 0.275093 0.227528
H3    H     H_    0.774611 0.824870 0.722749 0.180893
H4    H     H_    0.225390 0.324861 0.277246 0.180895
C7    C     C_R   0.631939 0.854251 0.904879 -0.133318
C8    C     C_R   0.368061 0.354248 0.095120 -0.133316
C9    C     C_R   0.868716 0.886595 0.211108 0.431531
C10   C     C_R   0.131283 0.386626 0.788890 0.431535
C11   C     C_R   0.823626 0.876179 0.246868 -0.103249
C12   C     C_R   0.176372 0.376228 0.753128 -0.103255
C13   C     C_R   0.777158 0.860743 0.166787 -0.044080
C14   C     C_R   0.222841 0.360774 0.833208 -0.044083
C15   C     C_R   0.773719 0.866208 0.047088 0.154478
C16   C     C_R   0.226281 0.366212 0.952909 0.154480
C17   C     C_R   0.820551 0.858933 0.011267 0.019770
C18   C     C_R   0.179449 0.358930 0.988730 0.019772
C19   C     C_R   0.725786 0.868880 0.962155 0.020238
C20   C     C_R   0.274214 0.368874 0.037841 0.020239
C21   C     C_R   0.726343 0.848312 0.843674 0.023058
C22   C     C_R   0.273658 0.348302 0.156322 0.023056
C23   C     C_R   0.773069 0.838895 0.811825 -0.121575
C24   C     C_R   0.226931 0.338885 0.188171 -0.121580
C25   C     C_R   0.819149 0.846154 0.893615 -0.190125
C26   C     C_R   0.180852 0.346144 0.106381 -0.190127
C27   C     C_R   0.677114 0.894381 0.988344 0.362474
C28   C     C_R   0.322887 0.394377 0.011654 0.362484
C29   C     C_R   0.633615 0.831986 0.790434 -0.133782
C30   C     C_R   0.366385 0.331983 0.209563 -0.133789
C31   C     C_R   0.868091 0.866018 0.094364 -0.144070
C32   C     C_R   0.131909 0.366022 0.905633 -0.144069
H5    H     H_    0.744975 0.839634 0.202739 0.223711
H6    H     H_    0.255022 0.339676 0.797251 0.223712
H7    H     H_    0.824413 0.881360 0.337712 0.155016
H8    H     H_    0.175585 0.381440 0.662283 0.155014
H9    H     H_    0.853907 0.839368 0.863388 0.109183
H10   H     H_    0.146094 0.339356 0.136608 0.109184
C33   C     C_R   0.095486 0.854583 0.309364 -0.126891
C34   C     C_R   0.904515 0.354579 0.690636 -0.126890
C35   C     C_R   0.412678 0.853922 0.681360 -0.191823
C36   C     C_R   0.587322 0.353921 0.318639 -0.191835
C37   C     C_R   0.114255 0.794846 0.513616 -0.052236
C38   C     C_R   0.885748 0.294834 0.486383 -0.052229
C39   C     C_R   0.080957 0.781266 0.405473 0.301618
C40   C     C_R   0.919047 0.281270 0.594525 0.301615
C41   C     C_R   0.147296 0.899749 0.319586 -0.230774
C42   C     C_R   0.852704 0.399729 0.680415 -0.230771
C43   C     C_R   0.184039 0.878530 0.426370 0.047533
C44   C     C_R   0.815961 0.378513 0.573628 0.047530
C45   C     C_R   0.165545 0.847454 0.525929 -0.094210
C46   C     C_R   0.834457 0.347438 0.474070 -0.094208
C47   C     C_R   0.238131 0.882727 0.437473 -0.011203
C48   C     C_R   0.761870 0.382714 0.562523 -0.011205
C49   C     C_R   0.272308 0.880731 0.548641 -0.030410
C50   C     C_R   0.727693 0.380719 0.451354 -0.030412
C51   C     C_R   0.250889 0.898438 0.646539 0.332238
C52   C     C_R   0.749113 0.398417 0.353457 0.332237
C53   C     C_R   0.198503 0.867851 0.635473 0.328259
C54   C     C_R   0.801498 0.367826 0.364525 0.328264
C55   C     C_R   0.258761 0.874815 0.340387 -0.151138
C56   C     C_R   0.741239 0.374809 0.659609 -0.151136
C57   C     C_R   0.311327 0.875145 0.348430 0.338106
C58   C     C_R   0.688673 0.375142 0.651567 0.338104
C59   C     C_R   0.346717 0.881939 0.458041 -0.015576
C60   C     C_R   0.653283 0.381935 0.541956 -0.015581
C61   C     C_R   0.326330 0.866117 0.557481 0.072255
C62   C     C_R   0.673670 0.366114 0.442514 0.072265
C63   C     C_R   0.401282 0.900652 0.475147 0.331180
C64   C     C_R   0.598719 0.400649 0.524852 0.331179
C65   C     C_R   0.433132 0.898500 0.587919 0.367027
C66   C     C_R   0.566867 0.398491 0.412081 0.367033
C67   C     C_R   0.360589 0.823157 0.662872 -0.145101
C68   C     C_R   0.639410 0.323159 0.337122 -0.145105
H11   H     H_    0.347413 0.763829 0.732652 0.238801
H12   H     H_    0.652583 0.263836 0.267338 0.238806
H13   H     H_    0.100156 0.755063 0.587203 0.236707
H14   H     H_    0.899847 0.255040 0.412798 0.236704
H15   H     H_    0.158069 0.947776 0.243113 0.119184
H16   H     H_    0.841931 0.447743 0.756890 0.119182
H17   H     H_    0.234179 0.861225 0.255220 0.153274
H18   H     H_    0.765820 0.361220 0.744778 0.153274
O11   O     O_R   0.955980 0.206520 0.854760 -0.537261
O12   O     O_R   0.044020 0.706520 0.145240 -0.537258
O13   O     O_R   0.063490 0.536770 0.945200 -0.529008
O14   O     O_R   0.936510 0.036770 0.054800 -0.529007
C69   C     C_R   0.082984 0.369346 0.939637 0.756713
C70   C     C_R   0.917016 0.869345 0.060362 0.756714
O15   O     O_R   0.957530 0.536190 0.842880 -0.534917
O16   O     O_R   0.042470 0.036190 0.157120 -0.534919
O17   O     O_R   0.937350 0.707210 0.042130 -0.536086
O18   O     O_R   0.062650 0.207210 0.957870 -0.536085
C71   C     C_R   0.941476 0.367230 0.803729 0.756580
C72   C     C_R   0.058524 0.867231 0.196271 0.756580
O19   O     O_3   0.993540 0.373870 0.065440 -0.370800
O20   O     O_3   0.006460 0.873870 0.934560 -0.370800
V3    V     V_3+5 0.001200 0.648440 0.987860 1.593597
V4    V     V_3+5 0.998800 0.148440 0.012140 1.593594
Cl1   Cl    Cl    0.499454 0.944345 0.613141 -0.530866
Cl2   Cl    Cl    0.500545 0.444332 0.386861 -0.530865
Br1   Br    Br    0.327389 0.841990 0.201251 -0.473246
Br2   Br    Br    0.672611 0.341990 0.798746 -0.473244
Br3   Br    Br    0.019122 0.641595 0.393324 -0.333526
Br4   Br    Br    0.980885 0.141625 0.606676 -0.333531
Cl3   Cl    Cl    0.285766 0.985811 0.781610 -0.582354
Cl4   Cl    Cl    0.714238 0.485771 0.218379 -0.582353
Br5   Br    Br    0.436294 0.941967 0.354088 -0.334588
Br6   Br    Br    0.563707 0.441971 0.645912 -0.334587
Cl5   Cl    Cl    0.677391 0.844871 0.609719 -0.654229
Cl6   Cl    Cl    0.322608 0.344872 0.390277 -0.654227
Cl7   Cl    Cl    0.668991 0.018161 0.110723 -0.629168
Cl8   Cl    Cl    0.331014 0.518162 0.889281 -0.629175
Cl9   Cl    Cl    0.925271 0.932557 0.314965 -0.566908
Cl10  Cl    Cl    0.074729 0.432607 0.685037 -0.566907
Cl11  Cl    Cl    0.173978 0.867367 0.760524 -0.587112
Cl12  Cl    Cl    0.826025 0.367325 0.239475 -0.587108

loop_
_geom_bond_atom_site_label_1
_geom_bond_atom_site_label_2
_ccdc_geom_bond_type
C44   C46   A    
C41   C43   A    
O12   C72   A    
C7    C29   A    
C48   C56   A    
C12   H8    S    
C47   C55   A    
O1    C3    A    
C9    Cl9   S    
O11   V4    S    
O20   V4    S    
C23   C25   A    
C13   H5    S    
C10   C12   A    
O5    C3    A    
C4    C7    S    
C52   C54   A    
C1    C36   S    
O16   V4    S    
C16   C20   A    
O15   V3    S    
C19   C21   A    
C5    C29   A    
C56   C58   A    
C39   Br3   S    
O11   C71   A    
C41   H15   S    
C3    C8    S    
C7    C27   A    
C11   C13   A    
C38   C40   A    
O6    V2    S    
C33   C39   A    
O18   V4    S    
C47   C49   A    
O17   V3    S    
C37   C45   A    
C53   Cl11  S    
C18   C26   A    
C43   C45   A    
C33   C41   A    
C56   H18   S    
C34   C42   A    
C55   H17   S    
C69   O18   A    
C67   H11   S    
C19   C27   A    
C9    C31   A    
C65   Cl1   S    
C10   Cl10  S    
C10   C32   A    
O5    V1    S    
C14   H6    S    
O2    C4    A    
O13   C69   A    
C22   C24   A    
C51   C53   A    
C2    C35   S    
C62   C68   A    
C2    O7    A    
C6    C30   A    
O20   V3    S    
C59   C61   A    
C11   H7    S    
C59   C63   A    
C49   C61   A    
C63   C65   A    
C61   C67   A    
C58   Br2   S    
C37   C39   A    
C42   H16   S    
C58   C60   A    
C27   Cl7   S    
C49   C51   A    
C60   C64   A    
C32   C69   S    
C35   C65   A    
C42   C44   A    
C66   Cl2   S    
O14   V4    S    
C68   H12   S    
H3    C23   S    
O6    C4    A    
H4    C24   S    
C15   C17   A    
C55   C57   A    
O19   V3    S    
O1    V2    S    
C5    C21   A    
O14   C70   A    
O2    V1    S    
C36   C68   A    
C25   H9    S    
C50   C62   A    
C35   C67   A    
C50   C52   A    
C52   Cl4   S    
C60   C62   A    
C33   C72   S    
C64   Br6   S    
C9    C11   A    
C8    C28   A    
C34   C40   A    
C20   C28   A    
O4    C2    A    
C45   C53   A    
O4    V2    S    
C20   C22   A    
C34   C71   S    
O3    V1    S    
C57   C59   A    
O16   C72   A    
C43   C47   A    
O15   C71   A    
C28   Cl8   S    
C31   C70   S    
C40   Br4   S    
O12   V3    S    
O3    C1    A    
C36   C66   A    
H1    C29   S    
C46   C54   A    
C51   Cl3   S    
C8    C30   A    
C12   C14   A    
C6    C22   A    
C17   C25   A    
C1    O8    A    
C21   C23   A    
O8    V2    S    
C6    Cl6   S    
C14   C16   A    
C54   Cl12  S    
C5    Cl5   S    
C44   C48   A    
C17   C31   A    
C57   Br1   S    
C15   C19   A    
C24   C26   A    
C63   Br5   S    
O19   V4    S    
C64   C66   A    
O7    V1    S    
O13   V3    S    
H2    C30   S    
C18   C32   A    
C38   C46   A    
C13   C15   A    
O9    V2    S    
O10   V1    S    
C48   C50   A    
C37   H13   S    
C70   O17   A    
C26   H10   S    
C16   C18   A    
C38   H14   S    
