data_mof_unit_25786.cif
_audit_creation_date              2012-12-11T14:35:58-0500
_audit_creation_method            fapswitch 2.2
_symmetry_space_group_name_H-M    P1
_symmetry_Int_Tables_number       1
_space_group_crystal_system       triclinic
_cell_length_a                    13.411493
_cell_length_b                    13.420571
_cell_length_c                    27.535893
_cell_angle_alpha                 90.433881
_cell_angle_beta                  89.889592
_cell_angle_gamma                 60.54407
_cell_volume                      4315.30292596

loop_
_atom_site_label
_atom_site_type_symbol
_atom_type_description
_atom_site_fract_x
_atom_site_fract_y
_atom_site_fract_z
_atom_type_partial_charge
C1    C     C_R   0.620192 0.101138 0.570301 0.536989
C2    C     C_1   0.611636 0.771032 0.666473 -0.060399
C3    C     C_3   0.036038 0.177452 0.728340 -0.105657
C4    C     C_R   0.571102 0.829958 0.574493 0.557988
C5    C     C_3   0.108795 0.096488 0.769687 -0.102385
C6    C     C_1   0.033606 0.238374 0.894258 -0.014891
C7    C     C_1   0.220020 0.141505 0.615645 -0.018376
C8    C     C_3   0.015723 0.282477 0.759641 -0.105074
C9    C     C_3   0.089093 0.201219 0.800070 0.051025
C10   C     C_3   0.124953 0.276684 0.737781 -0.097097
C11   C     C_3   0.144762 0.172064 0.707296 0.053430
C12   C     C_1   0.594545 0.796059 0.624229 -0.014034
C13   C     C_3   0.197705 0.195751 0.778883 -0.099188
C14   C     C_3   0.218026 0.090834 0.747771 -0.102415
C15   C     C_1   0.059244 0.219809 0.851849 -0.061341
C16   C     C_R   0.276758 0.121898 0.569480 0.540938
C17   C     C_1   0.181705 0.155897 0.656329 -0.058506
C18   C     C_3   0.638227 0.275804 0.739088 -0.102430
C19   C     C_3   0.559226 0.264126 0.777139 -0.098251
C20   C     C_1   0.692349 0.208673 0.902598 -0.015217
C21   C     C_1   0.635901 0.133347 0.618356 -0.016373
C22   C     C_3   0.743961 0.199261 0.770553 -0.105997
C23   C     C_3   0.683747 0.604002 0.769205 -0.101162
C24   C     C_3   0.664784 0.187289 0.807758 0.052552
C25   C     C_3   0.758175 0.091212 0.743682 -0.100336
C26   C     C_3   0.652630 0.167904 0.712990 0.052544
C27   C     C_3   0.679243 0.079489 0.781618 -0.101301
C28   C     C_R   0.621757 0.098588 0.430736 0.544620
C29   C     C_3   0.573454 0.155990 0.750219 -0.102376
C30   C     C_1   0.676064 0.197975 0.860281 -0.057912
C31   C     C_1   0.644912 0.152480 0.660543 -0.058389
C32   C     C_R   0.737251 0.694909 0.358942 0.078889
C33   C     C_R   0.749690 0.680785 0.307944 0.023322
C34   C     C_3   0.660848 0.690218 0.810654 0.053526
C35   C     C_R   0.769054 0.655225 0.206358 -0.000536
C36   C     C_R   0.865569 0.629466 0.234427 -0.134579
C37   C     C_R   0.856007 0.643009 0.284702 -0.137762
C38   C     C_R   0.780568 0.630770 0.156944 -0.171211
C39   C     C_R   0.685879 0.645373 0.129838 0.034179
C40   C     C_R   0.600939 0.777467 0.429743 0.583739
C41   C     C_R   0.535591 0.749845 0.351146 -0.159141
C42   C     C_R   0.545329 0.741897 0.301325 -0.000423
C43   C     C_R   0.652054 0.707332 0.279301 0.046895
C44   C     C_R   0.448033 0.771706 0.273369 -0.128272
C45   C     C_3   0.568220 0.690139 0.746164 -0.099570
C46   C     C_R   0.455951 0.765754 0.223208 -0.131508
C47   C     C_R   0.562659 0.725091 0.200210 0.021410
C48   C     C_R   0.661058 0.697174 0.228555 0.045729
C49   C     C_R   0.575040 0.703582 0.149974 0.086381
C50   C     C_R   0.628589 0.732507 0.380081 0.038416
C51   C     C_R   0.200152 0.064667 0.359637 -0.138690
C52   C     C_R   0.277840 0.120884 0.430937 0.548963
C53   C     C_R   0.171976 0.078631 0.310231 -0.006673
C54   C     C_R   0.131144 0.100477 0.209535 0.040308
C55   C     C_R   0.129997 0.009797 0.234997 0.102359
C56   C     C_3   0.630026 0.742436 0.718038 0.051878
C57   C     C_R   0.151514 0.999328 0.285187 -0.117973
C58   C     C_R   0.107333 0.116299 0.159756 -0.123828
C59   C     C_R   0.103261 0.210368 0.135820 -0.019345
C60   C     C_R   0.203795 0.243969 0.359634 -0.125795
C61   C     C_R   0.182945 0.255278 0.310279 0.017087
C62   C     C_R   0.168288 0.171655 0.285133 0.055679
C63   C     C_R   0.181931 0.346434 0.285479 -0.129560
C64   C     C_3   0.745369 0.656730 0.740366 -0.098322
C65   C     C_R   0.167859 0.354208 0.235504 -0.126902
C66   C     C_R   0.151917 0.272462 0.210109 0.014885
C67   C     C_3   0.545462 0.775890 0.788311 -0.102121
C68   C     C_R   0.151025 0.180991 0.234867 0.037432
C69   C     C_R   0.131259 0.284436 0.160640 -0.132891
C70   C     C_R   0.220199 0.145358 0.383910 -0.001092
C71   C     C_R   0.566493 0.234700 0.361733 -0.132363
C72   C     C_R   0.570428 0.251834 0.311861 0.021897
C73   C     C_R   0.580511 0.283853 0.211692 0.013685
C74   C     C_R   0.504398 0.375071 0.241546 -0.125702
C75   C     C_R   0.498535 0.358829 0.291278 -0.127740
C76   C     C_3   0.722755 0.742532 0.782582 -0.100315
C77   C     C_R   0.594139 0.301650 0.162797 -0.136451
C78   C     C_3   0.606965 0.828857 0.759375 -0.106383
C79   C     C_R   0.675866 0.211136 0.134309 -0.019218
C80   C     C_R   0.718757 0.037708 0.351805 -0.126558
C81   C     C_R   0.720444 0.052022 0.302126 -0.013559
C82   C     C_R   0.646499 0.159357 0.281880 0.053769
C83   C     C_R   0.793316 0.959230 0.272518 -0.105959
C84   C     C_R   0.795566 0.972274 0.222303 0.117632
C85   C     C_R   0.725144 0.080981 0.201964 0.046093
C86   C     C_R   0.649707 0.174388 0.231749 0.035506
C87   C     C_R   0.734256 0.100201 0.152981 -0.110211
C88   C     C_1   0.693172 0.618406 0.902207 -0.016560
C89   C     C_1   0.678365 0.655095 0.861524 -0.057909
C90   C     C_R   0.639820 0.127197 0.381643 0.000586
C91   C     C_R   0.999121 0.265380 0.944181 0.558901
C92   C     C_R   0.711387 0.564129 0.948448 0.540519
C93   C     C_R   0.722466 0.225684 0.950750 0.535121
C94   C     C_R   0.047867 0.245193 0.088575 0.558400
C95   C     C_R   0.707381 0.577438 0.085457 0.577114
C96   C     C_R   0.717932 0.233692 0.089088 0.547103
Cr1   Cr    Cr6+3 0.417550 0.169090 0.500530 1.017290
Cr2   Cr    Cr6+3 0.669180 0.913420 0.499920 1.041064
Cr3   Cr    Cr6+3 0.413260 0.917540 0.499520 1.015950
Cr4   Cr    Cr6+3 0.909170 0.177380 0.020380 1.028752
Cr5   Cr    Cr6+3 0.912710 0.429210 0.018220 1.017544
Cr6   Cr    Cr6+3 0.657170 0.432570 0.019030 1.030889
H1    H     H_    0.786190 0.764053 0.798151 0.102884
H2    H     H_    0.827301 0.607689 0.720108 0.106492
H3    H     H_    0.949021 0.596982 0.217523 0.103534
H4    H     H_    0.932746 0.622028 0.304982 0.102451
H5    H     H_    0.378753 0.788734 0.203025 0.103286
H6    H     H_    0.365652 0.799189 0.290410 0.105846
H7    H     H_    0.451489 0.779051 0.366996 0.135294
H8    H     H_    0.085325 0.059659 0.140108 0.164383
H9    H     H_    0.211552 0.989097 0.378424 0.115705
H10   H     H_    0.574646 0.921735 0.754523 0.098391
H11   H     H_    0.128355 0.357059 0.142297 0.129515
H12   H     H_    0.264120 0.203224 0.800062 0.105919
H13   H     H_    0.193982 0.410571 0.304619 0.097644
H14   H     H_    0.216950 0.308181 0.378127 0.132173
H15   H     H_    0.547940 0.387295 0.148118 0.129814
H16   H     H_    0.504686 0.303475 0.384700 0.116870
H17   H     H_    0.450690 0.459300 0.226550 0.105151
H18   H     H_    0.439297 0.430331 0.313749 0.102568
H19   H     H_    0.794787 0.030545 0.130067 0.169558
H20   H     H_    0.463489 0.824889 0.808544 0.106978
H21   H     H_    0.848393 0.876437 0.288521 0.099173
H22   H     H_    0.774449 0.953708 0.366671 0.133505
H23   H     H_    0.477297 0.334970 0.791469 0.106469
H24   H     H_    0.504757 0.668604 0.730627 0.106271
H25   H     H_    0.715193 0.511125 0.773802 0.096848
H26   H     H_    0.101903 0.022541 0.783410 0.106238
H27   H     H_    0.969855 0.169879 0.707029 0.106572
H28   H     H_    0.301696 0.011745 0.742379 0.103264
H29   H     H_    0.131607 0.350842 0.724148 0.106746
H30   H     H_    0.932215 0.361601 0.765116 0.097937
H31   H     H_    0.895950 0.587865 0.384833 0.225548
H32   H     H_    0.864863 0.726396 0.378719 0.218726
H33   H     H_    0.421263 0.821423 0.122869 0.224807
H34   H     H_    0.621836 0.356260 0.721176 0.104095
H35   H     H_    0.436257 0.688878 0.130988 0.227379
H36   H     H_    0.174509 0.880199 0.186942 0.209264
H37   H     H_    0.100294 0.873478 0.234626 0.227759
H38   H     H_    0.152520 0.929019 0.304716 0.092360
H39   H     H_    0.167786 0.425027 0.216807 0.097979
H40   H     H_    0.927225 0.807346 0.213417 0.223119
H41   H     H_    0.821394 0.850810 0.172621 0.228531
H42   H     H_    0.502785 0.138489 0.741274 0.098640
H43   H     H_    0.695966 0.999086 0.799659 0.102675
H44   H     H_    0.840222 0.020383 0.729427 0.105432
H45   H     H_    0.814250 0.217203 0.779661 0.105641
H46   H     H_    0.865573 0.589446 0.140833 0.134272
N1    N     N_3   0.832395 0.673270 0.389428 -0.614483
N2    N     N_3   0.477561 0.733477 0.119522 -0.609167
N3    N     N_3   0.105439 0.929822 0.210063 -0.616426
N4    N     N_3   0.871625 0.876723 0.192151 -0.630873
O1    O     O_R   0.301710 0.195650 0.554160 -0.504278
O2    O     O_R   0.635520 0.542770 0.964420 -0.502707
O3    O     O_R   0.665950 0.325030 0.970100 -0.497294
O4    O     O_R   0.522390 0.158990 0.550460 -0.495962
O5    O     O_R   0.816620 0.158530 0.074540 -0.514248
O6    O     O_R   0.004460 0.188870 0.069750 -0.494372
O7    O     O_R   0.025800 0.341780 0.072300 -0.516813
O8    O     O_R   0.807650 0.528950 0.067500 -0.516710
O9    O     O_R   0.633420 0.550490 0.071810 -0.477145
O10   O     O_R   0.664000 0.332180 0.069640 -0.500012
O11   O     O_3   0.826350 0.346390 0.019210 -0.267124
O12   O     O_R   0.658900 0.818120 0.449760 -0.456671
O13   O     O_R   0.694390 0.003530 0.554040 -0.512875
O14   O     O_R   0.657700 0.819660 0.549320 -0.487342
O15   O     O_R   0.501930 0.803280 0.552920 -0.502807
O16   O     O_R   0.318170 0.023580 0.549580 -0.510670
O17   O     O_R   0.303010 0.193990 0.446760 -0.520184
O18   O     O_R   0.523600 0.157450 0.450900 -0.498911
O19   O     O_R   0.695690 0.001860 0.446640 -0.517437
O20   O     O_R   0.503220 0.801620 0.445520 -0.532693
O21   O     O_R   0.319370 0.022040 0.450020 -0.502561
O22   O     O_3   0.499990 0.000010 0.499990 -0.269661
O23   O     O_R   0.818720 0.150820 0.967160 -0.514242
O24   O     O_R   0.006410 0.181720 0.970200 -0.489479
O25   O     O_R   0.027890 0.334070 0.964920 -0.502460
O26   O     O_R   0.809600 0.521790 0.967960 -0.512846

loop_
_geom_bond_atom_site_label_1
_geom_bond_atom_site_label_2
_ccdc_geom_bond_type
C66   C68   A    
C20   C93   S    
C63   C65   A    
C52   C70   S    
C1    C21   S    
C94   O7    A    
C23   C45   S    
C93   O3    A    
C27   C29   S    
C3    H27   S    
C41   C42   A    
C35   C36   A    
C18   C26   S    
C24   C27   S    
C2    C12   T    
C79   C87   A    
C81   C82   A    
Cr1   O17   S    
C47   C49   A    
C20   C30   T    
C85   C86   A    
C74   H17   S    
C21   C31   T    
C69   H11   S    
C49   N2    S    
C83   C84   A    
C36   C37   A    
C76   C78   S    
C40   O12   A    
C77   H15   S    
C95   O9    A    
C54   C58   A    
C38   C39   A    
Cr2   O22   S    
C11   C14   S    
C66   C69   A    
C54   C68   A    
C6    C91   S    
C56   C78   S    
C18   C19   S    
C73   C74   A    
Cr1   O4    S    
H40   N4    S    
C61   C63   A    
C9    C13   S    
C10   H29   S    
Cr5   O26   S    
C6    C15   T    
C54   C55   A    
Cr4   O5    S    
C11   C17   S    
C32   N1    S    
C88   C92   S    
Cr5   O8    S    
C96   O10   A    
Cr6   O11   S    
C7    C17   T    
C22   C25   S    
C78   H10   S    
C8    H30   S    
C56   C64   S    
C18   H34   S    
C25   H44   S    
C59   C94   S    
Cr1   O1    S    
C4    C12   S    
C43   C48   A    
Cr6   O2    S    
C13   H12   S    
C27   H43   S    
C63   H13   S    
C76   H1    S    
C44   H6    S    
C96   O5    A    
C36   H3    S    
C26   C31   S    
C94   O6    A    
C58   H8    S    
C13   C14   S    
C80   H22   S    
C67   C78   S    
C42   C44   A    
C72   C75   A    
C35   C48   A    
C81   C83   A    
C44   C46   A    
Cr3   O22   S    
Cr3   O15   S    
C85   C87   A    
C74   C75   A    
C95   O8    A    
C33   C43   A    
Cr5   O11   S    
C35   C38   A    
H31   N1    S    
C84   C85   A    
C45   C56   S    
C3    C8    S    
C87   H19   S    
C53   C57   A    
C8    C9    S    
Cr3   O20   S    
C41   H7    S    
C25   C26   S    
C82   C86   A    
H32   N1    S    
C93   O23   A    
C33   C37   A    
Cr1   O18   S    
C57   H38   S    
H41   N4    S    
C60   C61   A    
C51   C53   A    
C52   O17   A    
C1    O4    A    
C4    O14   A    
C5    C9    S    
C65   H39   S    
C53   C62   A    
C28   O19   A    
Cr2   O12   S    
C47   C48   A    
Cr3   O21   S    
C60   C70   A    
C45   H24   S    
Cr6   O10   S    
C23   C34   S    
C38   H46   S    
C46   H5    S    
Cr6   O3    S    
Cr4   O23   S    
C64   C76   S    
C77   C79   A    
C22   H45   S    
C39   C95   S    
C5    C14   S    
Cr2   O14   S    
C92   O26   A    
C59   C69   A    
Cr2   O19   S    
C84   N4    S    
C28   O18   A    
C23   C64   S    
C51   C70   A    
C55   C57   A    
C22   C24   S    
H35   N2    S    
C60   H14   S    
C42   C43   A    
C19   C29   S    
C67   H20   S    
C41   C50   A    
C40   O20   A    
C23   H25   S    
Cr3   O16   S    
C14   H28   S    
C64   H2    S    
C46   C47   A    
C7    C16   S    
C51   H9    S    
Cr1   O22   S    
C71   H16   S    
C39   C49   A    
C1    O13   A    
C18   C22   S    
C75   H18   S    
C80   C81   A    
C3    C5    S    
C10   C13   S    
C34   C67   S    
C92   O2    A    
C55   N3    S    
C45   C67   S    
C79   C96   S    
H36   N3    S    
C25   C27   S    
H33   N2    S    
C4    O15   A    
C62   C68   A    
Cr4   O24   S    
C19   C24   S    
C58   C59   A    
C34   C89   S    
C37   H4    S    
C2    C56   S    
C32   C33   A    
C29   H42   S    
C71   C90   A    
C16   O16   A    
Cr6   O9    S    
C40   C50   S    
C91   O25   A    
C5    H26   S    
H37   N3    S    
C19   H23   S    
C91   O24   A    
C32   C50   A    
Cr4   O11   S    
C80   C90   A    
C61   C62   A    
C24   C30   S    
C73   C86   A    
Cr2   O13   S    
C3    C11   S    
C10   C11   S    
Cr4   O6    S    
C71   C72   A    
C88   C89   T    
Cr5   O7    S    
C26   C29   S    
C8    C10   S    
C65   C66   A    
C16   O1    A    
C73   C77   A    
C28   C90   S    
C83   H21   S    
C52   O21   A    
Cr5   O25   S    
C72   C82   A    
C9    C15   S    
C34   C76   S    
