data_mof_unit_30240.cif
_audit_creation_date              2012-12-10T18:54:25-0500
_audit_creation_method            fapswitch 2.2
_symmetry_space_group_name_H-M    P1
_symmetry_Int_Tables_number       1
_space_group_crystal_system       triclinic
_cell_length_a                    10.715204
_cell_length_b                    9.806223
_cell_length_c                    23.450733
_cell_angle_alpha                 90.00804
_cell_angle_beta                  89.82326
_cell_angle_gamma                 90.005265
_cell_volume                      2464.08995653

loop_
_atom_site_label
_atom_site_type_symbol
_atom_type_description
_atom_site_fract_x
_atom_site_fract_y
_atom_site_fract_z
_atom_type_partial_charge
C1    C     C_R   0.259770 0.499985 0.500012 0.870175
C2    C     C_R   0.559273 0.395855 0.706101 0.061545
C3    C     C_R   0.446232 0.405949 0.234429 -0.130558
C4    C     C_R   0.554591 0.406100 0.765500 -0.130734
C5    C     C_R   0.498864 0.520345 0.208222 0.284898
C6    C     C_R   0.501752 0.520319 0.791768 0.284658
C7    C     C_R   0.063819 0.377856 0.510046 -0.191612
C8    C     C_R   0.936175 0.622074 0.490053 -0.187264
C9    C     C_R   0.936003 0.377878 0.510085 -0.197789
C10   C     C_R   0.063976 0.622068 0.490051 -0.191440
C11   C     C_R   0.872604 0.499982 0.500060 -0.011718
C12   C     C_R   0.740227 0.499996 0.500016 0.870233
C13   C     C_R   0.127387 0.499958 0.500029 -0.013756
C14   C     C_R   0.591701 0.072059 0.472323 -0.087333
C15   C     C_R   0.408410 0.927952 0.527753 -0.082637
C16   C     C_R   0.408304 0.072056 0.527678 -0.084472
C17   C     C_R   0.591586 0.927956 0.472243 -0.079469
C18   C     C_R   0.497084 0.499890 0.389248 0.870231
C19   C     C_R   0.502968 0.499908 0.610747 0.870703
C20   C     C_R   0.612611 0.536119 0.880635 0.503866
C21   C     C_R   0.388022 0.536055 0.119358 0.503781
C22   C     C_R   0.389317 0.531447 0.880708 0.504245
C23   C     C_R   0.549239 0.625322 0.240891 -0.097875
C24   C     C_R   0.611321 0.531752 0.119292 0.504265
C25   C     C_R   0.386598 0.537018 0.940198 -0.014635
C26   C     C_R   0.614039 0.537273 0.059800 -0.014647
C27   C     C_R   0.500473 0.538893 0.970046 -0.022514
C28   C     C_R   0.500163 0.538930 0.029951 -0.022512
C29   C     C_R   0.614664 0.538968 0.940144 -0.014604
C30   C     C_R   0.385969 0.538859 0.059851 -0.014569
C31   C     C_R   0.273270 0.538504 0.970381 -0.159029
C32   C     C_R   0.727365 0.538900 0.029616 -0.159039
C33   C     C_R   0.272961 0.539969 0.029728 -0.159229
C34   C     C_R   0.451064 0.625186 0.759151 -0.097820
C35   C     C_R   0.727671 0.540291 0.970268 -0.159202
C36   C     C_3   0.372418 0.274799 0.319051 -0.396158
C37   C     C_3   0.458763 0.150684 0.324358 -0.327414
C38   C     C_3   0.390679 0.029657 0.351040 -0.842322
C39   C     C_3   0.628515 0.275286 0.680779 -0.397208
C40   C     C_3   0.542508 0.150860 0.675478 -0.328003
C41   C     C_3   0.610820 0.030188 0.648623 -0.840823
C42   C     C_R   0.548193 0.615763 0.299746 -0.250091
C43   C     C_R   0.451937 0.615656 0.700294 -0.249432
C44   C     C_R   0.495213 0.501781 0.326923 -0.071049
C45   C     C_R   0.505055 0.501821 0.673064 -0.071261
C46   C     C_R   0.441389 0.395648 0.293823 0.060712
H1    H     H_    0.184619 0.537715 0.948307 0.192629
H2    H     H_    0.594093 0.326069 0.791731 0.145551
H3    H     H_    0.112436 0.282952 0.518155 0.149724
H4    H     H_    0.887575 0.716978 0.481924 0.149848
H5    H     H_    0.887246 0.282996 0.518234 0.152109
H6    H     H_    0.112709 0.716978 0.481942 0.154841
H7    H     H_    0.664719 0.126834 0.450096 0.128039
H8    H     H_    0.335516 0.873189 0.550071 0.127892
H9    H     H_    0.335300 0.126827 0.549914 0.123845
H10   H     H_    0.664465 0.873197 0.449911 0.123677
H11   H     H_    0.356401 0.056396 0.394369 0.267684
H12   H     H_    0.816016 0.538275 0.051690 0.192612
H13   H     H_    0.310342 0.999051 0.324096 0.261766
H14   H     H_    0.455548 0.941769 0.354581 0.248685
H15   H     H_    0.493127 0.120635 0.281370 0.217296
H16   H     H_    0.540955 0.176411 0.351009 0.238922
H17   H     H_    0.329317 0.300813 0.360731 0.217721
H18   H     H_    0.292626 0.247688 0.290982 0.201293
H19   H     H_    0.644814 0.057245 0.605283 0.266717
H20   H     H_    0.691384 0.999763 0.675461 0.261871
H21   H     H_    0.546183 0.942072 0.645071 0.249280
H22   H     H_    0.508471 0.120525 0.718483 0.217340
H23   H     H_    0.184074 0.540240 0.051855 0.192686
H24   H     H_    0.460082 0.176359 0.648942 0.238710
H25   H     H_    0.671404 0.301533 0.639078 0.215858
H26   H     H_    0.708478 0.248415 0.708782 0.201158
H27   H     H_    0.816558 0.540677 0.948140 0.192685
H28   H     H_    0.589300 0.714367 0.220552 0.151546
H29   H     H_    0.410859 0.714105 0.779534 0.151677
H30   H     H_    0.589481 0.698028 0.324115 0.161990
H31   H     H_    0.410400 0.697815 0.675965 0.162599
H32   H     H_    0.406993 0.325827 0.208153 0.145397
N1    N     N_R   0.501159 0.530358 0.852403 -0.353955
N2    N     N_R   0.499476 0.530477 0.147592 -0.353992
N3    N     N_R   0.500000 0.857200 0.500000 -0.075854
N4    N     N_R   0.500000 0.142800 0.500000 -0.076760
O1    O     O_R   0.316770 0.614620 0.500000 -0.628087
O2    O     O_2   0.279749 0.538821 0.148927 -0.555781
O3    O     O_2   0.281369 0.525010 0.851301 -0.555125
O4    O     O_2   0.719271 0.525536 0.148703 -0.555136
O5    O     O_R   0.683230 0.385380 0.500000 -0.633838
O6    O     O_R   0.683230 0.614620 0.500000 -0.627093
O7    O     O_R   0.316770 0.385380 0.500000 -0.633190
O8    O     O_R   0.499970 0.614690 0.416160 -0.617218
O9    O     O_R   0.500030 0.385310 0.583840 -0.619210
O10   O     O_R   0.500030 0.614690 0.583840 -0.615430
O11   O     O_R   0.499970 0.385310 0.416160 -0.617766
O12   O     O_2   0.720877 0.539045 0.851065 -0.555672
Zn1   Zn    Zn3+2 0.500000 0.653120 0.500000 0.945282
Zn2   Zn    Zn3+2 0.500000 0.346880 0.500000 0.934084

loop_
_geom_bond_atom_site_label_1
_geom_bond_atom_site_label_2
_ccdc_geom_bond_type
C25   C31   A    
C26   C32   A    
C27   C29   A    
C9    H5    S    
C32   H12   S    
C10   H6    S    
C37   H16   S    
O8    Zn1   S    
C41   H21   S    
C23   C42   A    
C40   H24   S    
C1    O1    A    
C36   C37   S    
C24   C26   A    
C22   N1    A    
N3    Zn1   S    
C15   C16   A    
C22   O3    S    
C19   O10   A    
O9    Zn2   S    
C2    C39   S    
C24   N2    A    
C22   C25   A    
C39   H26   S    
C31   C33   A    
C36   C46   S    
C36   H17   S    
C30   C33   A    
C33   H23   S    
C34   H29   S    
O6    Zn1   S    
C31   H1    S    
C14   C17   A    
C42   C44   A    
C44   C46   A    
C20   C29   A    
C2    C45   A    
C15   N3    A    
N4    Zn2   S    
C12   O6    A    
C18   O8    A    
C32   C35   A    
C7    H3    S    
C4    C6    A    
C39   C40   S    
C41   H19   S    
O10   Zn1   S    
C6    C34   A    
C2    C4    A    
C15   H8    S    
C37   C38   S    
C18   C44   S    
C38   H11   S    
C43   C45   A    
C5    C23   A    
C21   O2    S    
O1    Zn1   S    
O5    Zn2   S    
C16   N4    A    
C5    N2    S    
C9    C11   A    
C17   H10   S    
C38   H14   S    
C40   C41   S    
O11   Zn2   S    
C25   C27   A    
C1    C13   S    
C14   N4    A    
C23   H28   S    
C20   N1    A    
C8    H4    S    
C4    H2    S    
C7    C9    A    
C20   O12   S    
C35   H27   S    
C1    O7    A    
C12   O5    A    
C42   H30   S    
C34   C43   A    
C3    C5    A    
C10   C13   A    
C37   H15   S    
C11   C12   S    
C19   C45   S    
C41   H20   S    
C43   H31   S    
C21   C30   A    
C29   C35   A    
C3    C46   A    
C26   C28   A    
O7    Zn2   S    
C28   C30   A    
C16   H9    S    
C6    N1    S    
C8    C11   A    
C21   N2    A    
C17   N3    A    
C19   O9    A    
C38   H13   S    
C7    C13   A    
C14   H7    S    
C8    C10   A    
C40   H22   S    
C27   C28   A    
C18   O11   A    
C39   H25   S    
C36   H18   S    
C3    H32   S    
C24   O4    S    
