data_mof_unit_9706.cif
_audit_creation_date              2012-12-11T21:12:04-0500
_audit_creation_method            fapswitch 2.2
_symmetry_space_group_name_H-M    P1
_symmetry_Int_Tables_number       1
_space_group_crystal_system       triclinic
_cell_length_a                    8.222881
_cell_length_b                    18.884092
_cell_length_c                    27.014122
_cell_angle_alpha                 99.738238
_cell_angle_beta                  92.539518
_cell_angle_gamma                 88.135846
_cell_volume                      4128.95787323

loop_
_atom_site_label
_atom_site_type_symbol
_atom_type_description
_atom_site_fract_x
_atom_site_fract_y
_atom_site_fract_z
_atom_type_partial_charge
Ba1   Ba    Ba6+2 0.160810 0.465630 0.521640 1.670171
Ba2   Ba    Ba6+2 0.649380 0.534380 0.478400 1.661510
C1    C     C_3   0.396921 0.287800 0.701577 -0.325337
C2    C     C_R   0.064223 0.094958 0.448275 -0.089660
C3    C     C_R   0.200863 0.951020 0.455484 -0.104135
C4    C     C_3   0.947538 0.268892 0.621474 0.363131
C5    C     C_R   0.051140 0.976257 0.476463 0.018947
C6    C     C_R   0.256444 0.880562 0.454709 -0.096280
C7    C     C_R   0.165879 0.831496 0.474824 -0.028086
C8    C     C_R   0.019975 0.855841 0.499043 0.004190
C9    C     C_R   0.963067 0.928697 0.500324 0.021930
C10   C     C_R   0.216973 0.758706 0.471493 -0.011901
C11   C     C_R   0.119243 0.710591 0.489764 -0.283178
C12   C     C_3   0.418393 0.309299 0.650588 0.343295
C13   C     C_R   0.981643 0.733721 0.517078 0.012302
C14   C     C_R   0.932361 0.807640 0.522552 -0.038767
C15   C     C_R   0.845636 0.072398 0.500604 0.023045
C16   C     C_3   0.975034 0.194737 0.635768 -0.360287
C17   C     C_R   0.788477 0.145216 0.501738 -0.001483
C18   C     C_R   0.874966 0.193228 0.477786 -0.041590
C19   C     C_R   0.007126 0.165389 0.449106 -0.028052
C20   C     C_R   0.799324 0.835203 0.550921 -0.035086
C21   C     C_R   0.743059 0.905790 0.552076 -0.090598
C22   C     C_R   0.818730 0.953290 0.525430 0.012623
C23   C     C_3   0.504461 0.308988 0.376968 0.344053
C24   C     C_R   0.757658 0.024847 0.524509 0.017974
C25   C     C_R   0.608149 0.050122 0.545562 -0.103565
C26   C     C_R   0.642863 0.169556 0.525976 -0.031739
C27   C     C_R   0.552570 0.120509 0.546242 -0.092654
C28   C     C_3   0.964213 0.660315 0.642559 0.261870
C29   C     C_R   0.590977 0.242159 0.528856 -0.003083
C30   C     C_R   0.686824 0.290294 0.509667 -0.299685
C31   C     C_R   0.825164 0.267154 0.482841 0.034433
C32   C     C_R   0.297707 0.456142 0.174918 0.624556
C33   C     C_R   0.191708 0.576578 0.177937 0.574411
C34   C     C_3   0.582991 0.251033 0.337351 -0.155683
C35   C     C_2   0.037066 0.534516 0.270096 -0.014432
C36   C     C_3   0.998631 0.525252 0.323013 -0.058345
C37   C     C_1   0.283266 0.497142 0.337220 0.025328
C38   C     C_2   0.320652 0.500738 0.290534 -0.112862
C39   C     C_2   0.190265 0.519690 0.253805 0.212486
C40   C     C_3   0.989284 0.712402 0.691879 -0.447519
C41   C     C_R   0.308177 0.513363 0.100592 -0.079896
C42   C     C_R   0.340524 0.453497 0.124665 -0.039173
C43   C     C_R   0.415860 0.392056 0.098172 -0.045331
C44   C     C_R   0.232921 0.575273 0.127509 -0.025125
C45   C     C_3   0.863794 0.723608 0.379007 0.354957
C46   C     C_2   0.151076 0.529636 0.356468 -0.300948
C47   C     C_2   0.630833 0.461866 0.637234 -0.171318
C48   C     C_R   0.458660 0.444049 0.971163 0.021427
C49   C     C_R   0.366823 0.570548 0.975276 0.020403
C50   C     C_R   0.433625 0.505982 0.947971 0.049434
C51   C     C_R   0.518141 0.380159 0.941658 -0.101220
C52   C     C_3   0.974669 0.371872 0.366126 0.212109
C53   C     C_R   0.556721 0.377828 0.891964 -0.060803
C54   C     C_R   0.537563 0.438900 0.869066 -0.024009
C55   C     C_R   0.475691 0.503113 0.896813 -0.080407
C56   C     C_3   0.856433 0.798575 0.365266 -0.362397
C57   C     C_R   0.455867 0.564267 0.873369 -0.035642
C58   C     C_R   0.499872 0.560479 0.822757 0.595437
C59   C     C_R   0.577904 0.436245 0.818671 0.573891
C60   C     C_2   0.739622 0.457311 0.726013 -0.090421
C61   C     C_3   0.749939 0.426877 0.671037 -0.052847
C62   C     C_1   0.515962 0.508032 0.656703 0.027480
C63   C     C_2   0.482827 0.517819 0.705285 -0.125832
C64   C     C_3   0.998562 0.345484 0.309602 -0.293017
C65   C     C_2   0.600780 0.491941 0.743043 0.200322
C66   C     C_R   0.422392 0.447421 0.022630 0.019781
C67   C     C_3   0.366245 0.696716 0.350259 0.314598
C68   C     C_R   0.350446 0.511089 0.049516 0.050920
C69   C     C_R   0.320188 0.572379 0.025905 0.020888
C70   C     C_R   0.456576 0.389078 0.048514 -0.096207
C71   C     C_R   0.200591 0.634664 0.103523 -0.061153
C72   C     C_R   0.349589 0.631181 0.950705 -0.099129
C73   C     C_R   0.393329 0.628003 0.901063 -0.061779
C74   C     C_R   0.243077 0.633414 0.054008 -0.100710
C75   C     C_3   0.359720 0.685205 0.588676 0.352818
C76   C     C_3   0.362750 0.766478 0.604020 -0.389045
C77   C     C_2   0.866726 0.373645 0.276732 0.448976
C78   C     C_3   0.407151 0.711096 0.298340 -0.189116
C79   C     C_3   0.417522 0.274769 0.415206 -0.311917
C80   C     C_3   0.458793 0.203555 0.304442 -0.370660
C81   C     C_3   0.348229 0.785807 0.289906 -0.373587
C82   C     C_2   0.900848 0.591445 0.651845 0.572651
C83   C     C_R   0.989690 0.047735 0.475384 0.012031
H1    H     H_    0.352435 0.361421 0.649818 0.083022
H2    H     H_    0.450586 0.668460 0.560387 0.107408
H3    H     H_    0.272002 0.268646 0.704398 0.150443
H4    H     H_    0.262853 0.785143 0.629764 0.099153
H5    H     H_    0.346944 0.792885 0.570406 0.068833
H6    H     H_    0.481259 0.782396 0.623347 0.129099
H7    H     H_    0.550295 0.315201 0.645937 -0.059563
H8    H     H_    0.415874 0.335104 0.731377 0.127330
H9    H     H_    0.605375 0.340929 0.397218 0.030513
H10   H     H_    0.655434 0.277849 0.312553 0.099738
H11   H     H_    0.668868 0.216369 0.356225 0.073298
H12   H     H_    0.872435 0.723509 0.711319 0.131241
H13   H     H_    0.485877 0.244171 0.707549 0.111929
H14   H     H_    0.909994 0.154099 0.607971 0.073721
H15   H     H_    0.768339 0.721065 0.406421 0.108528
H16   H     H_    0.985355 0.714398 0.396417 -0.048520
H17   H     H_    0.737530 0.807929 0.345979 0.136997
H18   H     H_    0.869394 0.839538 0.399810 0.077009
H19   H     H_    0.956302 0.804324 0.340049 0.112746
H20   H     H_    0.233096 0.704681 0.355218 -0.024844
H21   H     H_    0.401290 0.639903 0.351836 0.059367
H22   H     H_    0.348938 0.670086 0.269311 0.117868
H23   H     H_    0.079889 0.689500 0.716983 0.105447
H24   H     H_    0.540979 0.705807 0.293982 0.150139
H25   H     H_    0.996723 0.268070 0.583658 0.076202
H26   H     H_    0.156604 0.654478 0.485207 0.066943
H27   H     H_    0.371497 0.865239 0.437678 0.113067
H28   H     H_    0.069049 0.197622 0.426846 0.091727
H29   H     H_    0.735198 0.802585 0.572415 0.108585
H30   H     H_    0.437311 0.135626 0.563152 0.114588
H31   H     H_    0.647225 0.345999 0.512788 0.077773
H32   H     H_    0.280572 0.984912 0.439892 0.070465
H33   H     H_    0.166175 0.078766 0.424914 0.057417
H34   H     H_    0.035477 0.763947 0.684232 0.125274
H35   H     H_    0.640306 0.921697 0.575146 0.060942
H36   H     H_    0.813861 0.280028 0.619877 -0.080079
H37   H     H_    0.528439 0.016361 0.561267 0.071940
H38   H     H_    0.443204 0.487369 0.278146 0.121570
H39   H     H_    0.444586 0.345548 0.115892 0.128337
H40   H     H_    0.830308 0.439704 0.752071 0.114109
H41   H     H_    0.602057 0.327297 0.871368 0.122408
H42   H     H_    0.534155 0.330003 0.955370 0.069789
H43   H     H_    0.517468 0.340109 0.031885 0.071521
H44   H     H_    0.938512 0.545056 0.244023 0.113692
H45   H     H_    0.092362 0.390597 0.384389 0.047109
H46   H     H_    0.141851 0.682910 0.123111 0.119801
H47   H     H_    0.304349 0.682724 0.968965 0.068776
H48   H     H_    0.107023 0.180089 0.636167 0.146027
H49   H     H_    0.377372 0.676140 0.884323 0.120868
H50   H     H_    0.365476 0.540709 0.717441 0.120920
H51   H     H_    0.211246 0.681254 0.038693 0.068504
H52   H     H_    0.151360 0.556606 0.395313 0.071111
H53   H     H_    0.626740 0.440340 0.597311 0.084877
H54   H     H_    0.927499 0.194116 0.673608 0.117539
H55   H     H_    0.081839 0.650879 0.625371 0.043407
H56   H     H_    0.884831 0.417542 0.372398 0.034802
H57   H     H_    0.744840 0.386567 0.290443 0.015178
H58   H     H_    0.397498 0.316018 0.448822 0.134100
H59   H     H_    0.298257 0.254052 0.399198 0.127005
H60   H     H_    0.490879 0.229471 0.426640 0.029430
H61   H     H_    0.523500 0.164810 0.275889 0.116241
H62   H     H_    0.389145 0.172434 0.327395 0.106889
H63   H     H_    0.372984 0.236721 0.284347 0.171295
H64   H     H_    0.407649 0.827928 0.318007 0.139821
H65   H     H_    0.379610 0.793841 0.251754 0.127809
H66   H     H_    0.213994 0.791397 0.293000 0.134292
H67   H     H_    0.120206 0.362284 0.298959 0.121726
H68   H     H_    0.883782 0.581026 0.689579 -0.101539
H69   H     H_    0.998145 0.285181 0.301273 0.119801
H70   H     H_    0.241067 0.669499 0.570568 -0.088470
N1    N     N_R   0.226504 0.517666 0.201352 -0.425824
N2    N     N_R   0.559886 0.496727 0.795707 -0.421352
O1    O     O_2   0.106080 0.324280 0.466820 -0.466456
O2    O     O_2   0.664734 0.559799 0.331852 -0.498968
O3    O     O_3   0.838275 0.672775 0.335324 -0.600859
O4    O     O_3   0.859130 0.413620 0.470620 -0.469115
O5    O     O_3   0.459240 0.537930 0.559910 -0.476083
O6    O     O_2   0.583120 0.462390 0.379940 -0.476105
O7    O     O_3   0.390752 0.350258 0.352592 -0.645638
O8    O     O_2   0.555255 0.756765 0.480525 -0.497621
O9    O     O_3   0.454543 0.743096 0.387171 -0.612010
O10   O     O_2   0.322002 0.403212 0.195028 -0.578164
O11   O     O_2   0.628323 0.379396 0.795102 -0.621709
O12   O     O_3   0.390416 0.652839 0.631332 -0.633283
O13   O     O_2   0.126027 0.630362 0.201085 -0.606702
O14   O     O_2   0.486586 0.614211 0.803114 -0.598429
O15   O     O_3   0.376230 0.370290 0.556910 -0.494575
O16   O     O_2   0.252946 0.243431 0.519724 -0.487110
O17   O     O_3   0.921518 0.314328 0.387147 -0.660627
O18   O     O_3   0.354186 0.256014 0.613053 -0.606294
O19   O     O_2   0.227190 0.537650 0.620070 -0.469888
O20   O     O_3   0.971110 0.406970 0.583250 -0.434134
O21   O     O_2   0.091832 0.457025 0.675189 -0.494343
O22   O     O_2   0.895218 0.380631 0.233667 -0.550234
O23   O     O_3   0.028788 0.320214 0.657143 -0.600204
O24   O     O_2   0.867044 0.546058 0.615694 -0.572745
O25   O     O_2   0.704230 0.675760 0.533200 -0.453641
O26   O     O_3   0.951180 0.586390 0.529420 -0.440505
O27   O     O_3   0.434080 0.629720 0.443130 -0.479202
O28   O     O_3   0.849794 0.690183 0.611963 -0.634847
O29   O     O_3   0.351080 0.462080 0.440130 -0.467954
O30   O     O_3   0.839200 0.593040 0.416790 -0.489451
P1    P     P_3+3 0.929380 0.335110 0.452880 0.973118
P2    P     P_3+3 0.398530 0.559060 0.613740 1.015014
P3    P     P_3+3 0.961104 0.405732 0.647481 1.007222
P4    P     P_3+3 0.880940 0.664900 0.547160 1.023929
P5    P     P_3+3 0.834776 0.586834 0.351499 0.957103
P6    P     P_3+3 0.393972 0.277505 0.554341 0.928988
P7    P     P_3+3 0.399073 0.442538 0.376608 0.949049
P8    P     P_3+3 0.413942 0.722651 0.446055 0.916470

loop_
_geom_bond_atom_site_label_1
_geom_bond_atom_site_label_2
_ccdc_geom_bond_type
C12   H1    S    
C53   C54   A    
C71   H46   S    
Ba1   O19   S    
C47   C61   S    
C72   H47   S    
C25   C27   A    
C17   C18   A    
C34   H10   S    
C49   C72   A    
O12   P2    S    
Ba2   O5    S    
C62   P2    S    
C74   H51   S    
C73   H49   S    
C75   C76   S    
C76   H5    S    
C5    C9    A    
C64   C77   S    
C78   H22   S    
C24   C25   A    
C35   C36   S    
C46   H52   S    
C70   H43   S    
C15   C83   A    
C15   C24   A    
C82   O24   D    
C22   C24   A    
O4    P1    S    
C6    H27   S    
C69   C74   A    
O21   P3    D    
O7    P7    S    
C40   H34   S    
C55   C57   A    
C77   H57   S    
C23   O7    S    
C13   C14   A    
C28   C82   S    
C9    C22   A    
C54   C55   A    
C16   H48   S    
Ba1   Ba2   S    
Ba2   O25   S    
Ba2   O30   S    
C51   H42   S    
O17   P1    S    
C67   O9    S    
Ba1   O20   S    
C79   H59   S    
C34   C80   S    
C6    C7    A    
C63   C65   S    
C78   H24   S    
C48   C50   A    
C21   C22   A    
C68   C69   A    
C56   H17   S    
C7    C8    A    
C36   C46   S    
Ba2   O26   S    
C81   H65   S    
C27   H30   S    
Ba1   O4    S    
C57   C58   A    
C76   H4    S    
C47   C62   D    
C47   H53   S    
C43   C70   A    
C23   C79   S    
C4    H25   S    
C2    H33   S    
O15   P6    S    
C49   C69   A    
C78   C81   S    
C52   H45   S    
O8    P8    D    
Ba2   O4    S    
C80   H61   S    
C25   H37   S    
C40   H23   S    
O28   P4    S    
C81   H66   S    
C45   O3    S    
C51   C53   A    
C43   H39   S    
C80   H62   S    
C4    C16   S    
C37   P7    S    
C48   C51   A    
C28   H55   S    
C72   C73   A    
C49   C50   A    
C28   O28   S    
C32   C42   A    
O9    P8    S    
O3    P5    S    
C19   H28   S    
C8    C9    A    
C40   H12   S    
C21   H35   S    
C3    C5    A    
C67   H20   S    
C15   C17   A    
C2    C83   A    
O6    P7    D    
Ba1   O29   S    
C1    H8    S    
C30   H31   S    
C45   H15   S    
O1    P1    D    
C41   C42   A    
Ba2   O29   S    
C64   H67   S    
C12   O18   S    
C59   N2    Am   
C3    C6    A    
C82   H68   S    
C34   H11   S    
C29   C30   A    
C53   H41   S    
C20   H29   S    
C66   C70   A    
C52   H56   S    
C60   C61   S    
C65   N2    S    
Ba2   O27   S    
Ba2   P4    S    
C17   C26   A    
C12   H7    S    
O30   P5    S    
C63   H50   S    
C1    C12   S    
Ba1   O26   S    
C18   C31   A    
C60   C65   D    
C66   C68   A    
C38   C39   S    
Ba1   O5    S    
C41   C68   A    
C79   H60   S    
C11   C13   A    
O16   P6    D    
C71   C74   A    
C77   O22   D    
C56   H19   S    
O25   P4    D    
C32   O10   D    
C61   P3    S    
C57   C73   A    
C37   C38   D    
C42   C43   A    
C64   H69   S    
Ba1   P1    S    
C58   N2    Am   
C38   H38   S    
C13   P4    S    
C26   C27   A    
C14   C20   A    
O20   P3    S    
C4    O23   S    
C1    H3    S    
C54   C59   A    
C58   O14   D    
C29   P6    S    
O2    P5    D    
O29   P7    S    
C26   C29   A    
O26   P4    S    
Ba2   O6    S    
C60   H40   S    
C80   H63   S    
C67   H21   S    
C52   C64   S    
C32   N1    Am   
C76   H6    S    
O27   P8    S    
Ba1   O15   S    
C36   P5    S    
C59   O11   D    
C30   C31   A    
C39   N1    S    
C23   H9    S    
C11   H26   S    
C8    C14   A    
C62   C63   D    
C45   C56   S    
C2    C19   A    
C1    H13   S    
Ba1   O1    S    
O19   P2    D    
C5    C83   A    
C41   C44   A    
C52   O17   S    
C10   P8    S    
C35   H44   S    
C31   P1    S    
C45   H16   S    
C44   C71   A    
C35   C39   D    
C16   H54   S    
C7    C10   A    
C50   C55   A    
C23   C34   S    
C79   H58   S    
C33   N1    Am   
C18   C19   A    
C75   H2    S    
C75   O12   S    
C16   H14   S    
C3    H32   S    
C33   O13   D    
C20   C21   A    
C28   C40   S    
C67   C78   S    
O23   P3    S    
C56   H18   S    
C4    H36   S    
C10   C11   A    
C33   C44   A    
C48   C66   A    
O18   P6    S    
O5    P2    S    
C75   H70   S    
C37   C46   D    
C81   H64   S    
Ba1   P2    S    
