data_mof_unit_28681.cif
_audit_creation_date              2012-12-11T15:55:56-0500
_audit_creation_method            fapswitch 2.2
_symmetry_space_group_name_H-M    P1
_symmetry_Int_Tables_number       1
_space_group_crystal_system       triclinic
_cell_length_a                    10.986313
_cell_length_b                    11.042176
_cell_length_c                    18.792391
_cell_angle_alpha                 90.051036
_cell_angle_beta                  90.18587
_cell_angle_gamma                 59.496949
_cell_volume                      1964.23292195

loop_
_atom_site_label
_atom_site_type_symbol
_atom_type_description
_atom_site_fract_x
_atom_site_fract_y
_atom_site_fract_z
_atom_type_partial_charge
C1    C     C_R   0.357943 0.773060 0.397892 0.544378
C2    C     C_R   0.227599 0.408004 0.207399 -0.155275
C3    C     C_R   0.231171 0.432335 0.279658 -0.036878
C4    C     C_R   0.381312 0.351593 0.390347 0.530279
C5    C     C_R   0.943743 0.835565 0.370980 -0.091345
C6    C     C_R   0.959270 0.713950 0.402006 -0.095071
C7    C     C_R   0.049235 0.583328 0.371261 -0.057124
C8    C     C_R   0.124591 0.572559 0.308822 0.037367
C9    C     C_R   0.340474 0.325038 0.320881 -0.003708
C10   C     C_R   0.897562 0.320564 0.190223 0.006679
C11   C     C_R   0.880881 0.219218 0.225059 0.011061
C12   C     C_R   0.560163 0.034760 0.191090 0.053528
C13   C     C_R   0.855794 0.227573 0.297387 0.001437
C14   C     C_R   0.891258 0.424666 0.303615 -0.175924
C15   C     C_R   0.916866 0.414928 0.231161 -0.176105
C16   C     C_R   0.778410 0.378337 0.403640 0.540299
C17   C     C_3   0.774959 0.179561 0.208746 -0.282126
C18   C     C_3   0.739770 0.195889 0.286755 -0.249098
C19   C     C_R   0.853758 0.335093 0.337089 0.004801
C20   C     C_R   0.311296 0.919690 0.185183 0.038287
C21   C     C_R   0.413710 0.783551 0.204357 0.076870
C22   C     C_R   0.432501 0.741123 0.273709 -0.012288
C23   C     C_R   0.328551 0.280880 0.175604 -0.005638
C24   C     C_R   0.254129 0.972017 0.311225 -0.168337
C25   C     C_R   0.238218 0.017010 0.239954 -0.175950
C26   C     C_3   0.472113 0.637474 0.176499 -0.047252
C27   C     C_3   0.489253 0.590775 0.254558 -0.239078
C28   C     C_R   0.342180 0.772185 0.603420 0.543803
C29   C     C_R   0.347078 0.829959 0.327665 0.018753
C30   C     C_R   0.298174 0.304851 0.807772 0.017246
C31   C     C_R   0.404540 0.192084 0.770119 0.039231
C32   C     C_R   0.415210 0.195742 0.697949 0.025053
C33   C     C_R   0.196814 0.418266 0.694555 -0.170990
C34   C     C_R   0.435868 0.195894 0.289944 -0.155172
C35   C     C_R   0.186488 0.413369 0.768953 -0.167542
C36   C     C_3   0.560441 0.113910 0.782062 -0.275632
C37   C     C_3   0.574009 0.115860 0.702322 -0.268736
C38   C     C_R   0.320481 0.316514 0.660013 0.016288
C39   C     C_R   0.812125 0.329983 0.836540 0.013682
C40   C     C_R   0.368676 0.348583 0.594750 0.542709
C41   C     C_R   0.747441 0.461837 0.803520 0.019703
C42   C     C_R   0.738815 0.471768 0.730694 0.045551
C43   C     C_R   0.832895 0.223295 0.719693 -0.175381
C44   C     C_R   0.844078 0.211484 0.794224 -0.165527
C45   C     C_R   0.439025 0.173055 0.217365 -0.033783
C46   C     C_3   0.772143 0.583559 0.808782 -0.271530
C47   C     C_3   0.767695 0.589757 0.728443 -0.268179
C48   C     C_R   0.789343 0.353564 0.687179 0.021731
C49   C     C_R   0.288883 0.871118 0.820172 0.018891
C50   C     C_R   0.180518 0.870035 0.782389 0.023114
C51   C     C_R   0.188184 0.855216 0.709471 0.022622
C52   C     C_R   0.760522 0.378157 0.611325 0.543342
C53   C     C_R   0.395701 0.875792 0.707181 -0.159084
C54   C     C_R   0.390762 0.885633 0.781335 -0.150384
C55   C     C_3   0.120017 0.777226 0.791921 -0.283568
C56   C     C_R   0.103199 0.696582 0.276414 -0.096639
C57   C     C_3   0.129576 0.759145 0.711930 -0.266288
C58   C     C_R   0.303484 0.844191 0.671603 0.019739
C59   C     C_R   0.921771 0.311254 0.114471 0.527226
C60   C     C_R   0.304815 0.258422 0.101817 0.540645
C61   C     C_R   0.273115 0.960330 0.111951 0.544208
C62   C     C_R   0.880810 0.310028 0.905434 0.554764
C63   C     C_R   0.293012 0.285541 0.883797 0.554012
C64   C     C_R   0.796452 0.774258 0.151492 -0.103071
C65   C     C_R   0.272299 0.900497 0.896009 0.550949
C66   C     C_R   0.714884 0.782941 0.210073 -0.113836
C67   C     C_R   0.014639 0.827018 0.307829 -0.090736
C68   C     C_R   0.599669 0.911564 0.230089 -0.105852
C69   C     C_R   0.650190 0.024803 0.135025 -0.051523
C70   C     C_R   0.764673 0.895600 0.114298 -0.120520
Cr1   Cr    Cr6+3 0.601740 0.606840 0.505840 1.000610
Cr2   Cr    Cr6+3 0.291500 0.601560 0.495070 1.011996
Cr3   Cr    Cr6+3 0.606780 0.291630 0.499130 0.994900
Cr4   Cr    Cr6+3 0.062440 0.063060 0.008240 0.996925
Cr5   Cr    Cr6+3 0.062950 0.375000 0.998920 0.992518
Cr6   Cr    Cr6+3 0.374550 0.061770 0.992470 1.006253
H1    H     H_    0.518897 0.114710 0.322266 0.138609
H2    H     H_    0.759759 0.097208 0.311968 0.138019
H3    H     H_    0.191051 0.045928 0.352384 0.122460
H4    H     H_    0.831014 0.890469 0.070560 0.102431
H5    H     H_    0.165394 0.125776 0.227315 0.118671
H6    H     H_    0.573701 0.596724 0.147430 0.139723
H7    H     H_    0.418822 0.551438 0.271676 0.157467
H8    H     H_    0.601247 0.524398 0.270523 0.122839
H9    H     H_    0.116360 0.508419 0.665664 0.118253
H10   H     H_    0.096866 0.497545 0.795952 0.118768
H11   H     H_    0.601601 0.006622 0.803814 0.130069
H12   H     H_    0.878622 0.935661 0.396847 0.102330
H13   H     H_    0.597033 0.178065 0.810518 0.145423
H14   H     H_    0.621952 0.178547 0.685733 0.175878
H15   H     H_    0.004608 0.920664 0.284072 0.126235
H16   H     H_    0.621477 0.009789 0.677839 0.121975
H17   H     H_    0.864005 0.130403 0.687772 0.123674
H18   H     H_    0.890640 0.107857 0.817733 0.141872
H19   H     H_    0.876874 0.557420 0.829736 0.163203
H20   H     H_    0.681888 0.676618 0.834089 0.129448
H21   H     H_    0.678303 0.687503 0.706971 0.143319
H22   H     H_    0.871635 0.558533 0.704097 0.134861
H23   H     H_    0.904459 0.720414 0.450893 0.091438
H24   H     H_    0.477921 0.881359 0.678544 0.117388
H25   H     H_    0.468594 0.901294 0.808222 0.133070
H26   H     H_    0.009487 0.835781 0.811641 0.132289
H27   H     H_    0.885957 0.674910 0.135550 0.123164
H28   H     H_    0.191964 0.679031 0.821484 0.141432
H29   H     H_    0.209588 0.651217 0.695418 0.168140
H30   H     H_    0.024848 0.804821 0.685315 0.128091
H31   H     H_    0.739191 0.691078 0.240626 0.114974
H32   H     H_    0.541043 0.914466 0.276688 0.115050
H33   H     H_    0.158978 0.692426 0.228419 0.156194
H34   H     H_    0.064929 0.489364 0.397837 0.104315
H35   H     H_    0.636325 0.117506 0.108221 0.132025
H36   H     H_    0.144551 0.490545 0.175665 0.135774
H37   H     H_    0.406040 0.509755 0.135817 0.231480
H38   H     H_    0.362915 0.651322 0.086329 0.263792
H39   H     H_    0.879310 0.515446 0.330633 0.143372
H40   H     H_    0.941889 0.487652 0.206848 0.130216
H41   H     H_    0.831426 0.068887 0.190693 0.151320
H42   H     H_    0.687793 0.258521 0.174649 0.127770
H43   H     H_    0.633816 0.288030 0.297888 0.157978
N1    N     N_3   0.367124 0.617888 0.138751 -0.625433
O1    O     O_R   0.748670 0.497520 0.427970 -0.529949
O2    O     O_R   0.417470 0.174910 0.067830 -0.530077
O3    O     O_R   0.375160 0.946380 0.070880 -0.503828
O4    O     O_R   0.476470 0.723930 0.429450 -0.503432
O5    O     O_R   0.160500 0.919670 0.926690 -0.514896
O6    O     O_R   0.933140 0.190380 0.936050 -0.506647
O7    O     O_R   0.909010 0.403210 0.925030 -0.522098
O8    O     O_R   0.179590 0.361290 0.918480 -0.501433
O9    O     O_R   0.391360 0.170840 0.907510 -0.519372
O10   O     O_R   0.350950 0.942600 0.922260 -0.509060
O11   O     O_3   0.166650 0.166610 0.999880 -0.285486
O12   O     O_R   0.300170 0.471020 0.567120 -0.512398
O13   O     O_R   0.264730 0.744140 0.416740 -0.500475
O14   O     O_R   0.309440 0.472410 0.418220 -0.494329
O15   O     O_R   0.501630 0.260530 0.414310 -0.539628
O16   O     O_R   0.727920 0.305730 0.428950 -0.503008
O17   O     O_R   0.738670 0.496020 0.588600 -0.520565
O18   O     O_R   0.467190 0.722540 0.578350 -0.506937
O19   O     O_R   0.254720 0.742640 0.577370 -0.525102
O20   O     O_R   0.491630 0.259030 0.574940 -0.524714
O21   O     O_R   0.718640 0.304340 0.577850 -0.510750
O22   O     O_3   0.500010 0.500010 0.500020 -0.245730
O23   O     O_R   0.186620 0.923750 0.087000 -0.503379
O24   O     O_R   0.957350 0.194160 0.084660 -0.515840
O25   O     O_R   0.935120 0.407280 0.085350 -0.538385
O26   O     O_R   0.203800 0.365060 0.067090 -0.508134

loop_
_geom_bond_atom_site_label_1
_geom_bond_atom_site_label_2
_ccdc_geom_bond_type
C36   H13   S    
C64   H27   S    
C57   H29   S    
C21   C26   S    
C23   C45   A    
C22   C29   A    
C69   H35   S    
C41   C42   A    
C54   H25   S    
C66   C68   A    
C66   H31   S    
C5    C67   A    
C8    C56   A    
C65   O10   A    
C7    C8    A    
C39   C41   A    
Cr3   O21   S    
C53   C54   A    
Cr5   O25   S    
Cr2   O22   S    
C12   C68   A    
C55   H26   S    
C2    H36   S    
C26   C27   S    
C47   H22   S    
C49   C65   S    
C13   C18   S    
C15   H40   S    
C27   H8    S    
C26   N1    S    
C10   C15   A    
C34   H1    S    
C62   O7    A    
Cr6   O11   S    
Cr4   O5    S    
C20   C25   A    
C14   H39   S    
Cr5   O8    S    
C20   C61   S    
C33   H9    S    
C24   C29   A    
C33   C35   A    
C5    H12   S    
Cr6   O10   S    
C61   O23   A    
Cr2   O19   S    
C46   H19   S    
Cr3   O15   S    
C41   C46   S    
C51   C57   S    
C64   C70   A    
C52   O17   A    
C43   C48   A    
C63   O8    A    
C17   H41   S    
C57   H30   S    
C40   O12   A    
Cr5   O26   S    
Cr4   O11   S    
C25   H5    S    
C26   H6    S    
C28   O19   A    
C60   O26   A    
C1    O13   A    
C30   C63   S    
C67   H15   S    
Cr5   O11   S    
Cr2   O12   S    
Cr1   O18   S    
Cr3   O22   S    
C53   H24   S    
C23   C60   S    
C13   C19   A    
C70   H4    S    
Cr1   O4    S    
C28   O18   A    
C24   C25   A    
Cr1   O17   S    
C3    C8    S    
C62   O6    A    
C50   C51   A    
C55   H28   S    
C18   H43   S    
C65   O5    A    
C16   O1    A    
C3    C9    A    
H37   N1    S    
Cr6   O9    S    
C24   H3    S    
Cr2   O14   S    
C31   C32   A    
Cr3   O16   S    
C30   C31   A    
C18   H2    S    
C50   C55   S    
C1    C29   S    
C17   C18   S    
C51   C58   A    
C42   C48   A    
C32   C37   S    
C60   O2    A    
C6    C7    A    
C34   C45   A    
C17   H42   S    
C4    O15   A    
C59   O25   A    
C12   C69   A    
C59   O24   A    
Cr4   O6    S    
C32   C38   A    
C22   C27   S    
Cr1   O22   S    
C43   C44   A    
C9    C34   A    
Cr4   O23   S    
C16   O16   A    
C56   H33   S    
C4    O14   A    
C39   C62   S    
Cr4   O24   S    
C46   C47   S    
C11   C17   S    
C37   H16   S    
C37   H14   S    
C31   C36   S    
Cr6   O3    S    
C14   C19   A    
Cr1   O1    S    
C33   C38   A    
C12   C45   S    
C53   C58   A    
C39   C44   A    
Cr3   O20   S    
C28   C58   S    
C56   C67   A    
C30   C35   A    
C52   O21   A    
C47   H21   S    
C7    H34   S    
C61   O3    A    
Cr6   O2    S    
C6    H23   S    
C55   C57   S    
C2    C3    A    
C1    O4    A    
C38   C40   S    
C11   C13   A    
Cr2   O13   S    
C5    C6    A    
C16   C19   S    
C40   O20   A    
C27   H7    S    
C43   H17   S    
C10   C59   S    
Cr5   O7    S    
C42   C47   S    
C63   O9    A    
C69   C70   A    
C44   H18   S    
C10   C11   A    
C36   H11   S    
C48   C52   S    
C46   H20   S    
C20   C21   A    
C36   C37   S    
C49   C50   A    
C2    C23   A    
C14   C15   A    
C68   H32   S    
C4    C9    S    
C21   C22   A    
C35   H10   S    
H38   N1    S    
C49   C54   A    
C64   C66   A    
