data_mof_unit_61668.cif
_audit_creation_date              2012-12-10T17:15:47-0500
_audit_creation_method            fapswitch 2.2
_symmetry_space_group_name_H-M    P1
_symmetry_Int_Tables_number       1
_space_group_crystal_system       triclinic
_cell_length_a                    18.300397
_cell_length_b                    18.306269
_cell_length_c                    43.002737
_cell_angle_alpha                 90.002456
_cell_angle_beta                  89.999749
_cell_angle_gamma                 89.997181
_cell_volume                      14406.4324794

loop_
_atom_site_label
_atom_site_type_symbol
_atom_type_description
_atom_site_fract_x
_atom_site_fract_y
_atom_site_fract_z
_atom_type_partial_charge
C1    C     C_R   0.000000 0.499995 0.915678 0.884321
C2    C     C_R   0.499996 0.999999 0.915824 0.905583
C3    C     C_R   0.499996 0.000068 0.415680 0.866920
C4    C     C_R   0.000040 0.499990 0.415776 0.885251
C5    C     C_R   0.994116 0.566223 0.167483 0.377258
C6    C     C_R   0.443767 0.036177 0.167046 0.380625
C7    C     C_R   0.006336 0.433709 0.167461 0.376758
C8    C     C_R   0.556198 0.964601 0.167109 0.380799
C9    C     C_R   0.498223 0.066564 0.667546 0.380683
C10   C     C_R   0.943735 0.464183 0.667068 0.383838
C11   C     C_R   0.501135 0.933570 0.667565 0.382023
C12   C     C_R   0.056395 0.535388 0.667082 0.384673
C13   C     C_R   0.000269 0.499956 0.184069 -0.138932
C14   C     C_R   0.499982 0.000477 0.183855 -0.142019
C15   C     C_R   0.499652 0.000082 0.684165 -0.138206
C16   C     C_R   0.000070 0.499760 0.683851 -0.142504
C17   C     C_R   0.000081 0.499991 0.118518 -0.153512
C18   C     C_R   0.499985 0.000142 0.118264 -0.154067
C19   C     C_R   0.499845 0.000027 0.618568 -0.154788
C20   C     C_R   0.000021 0.499904 0.618262 -0.153597
C21   C     C_R   0.499744 0.000094 0.781552 0.336517
C22   C     C_R   0.000038 0.499789 0.781373 0.324479
C23   C     C_R   0.000373 0.499857 0.281403 0.340009
C24   C     C_R   0.499978 0.000791 0.281382 0.320373
C25   C     C_R   0.000315 0.499923 0.218313 0.408557
C26   C     C_R   0.499974 0.000640 0.218293 0.387499
C27   C     C_R   0.499654 0.000112 0.718435 0.404436
C28   C     C_R   0.000059 0.499741 0.718285 0.390095
C29   C     C_R   0.548585 0.044688 0.832505 -0.165824
C30   C     C_R   0.941833 0.468743 0.831906 -0.169471
C31   C     C_R   0.451113 0.955404 0.832525 -0.165616
C32   C     C_R   0.058209 0.531000 0.831896 -0.169717
C33   C     C_R   0.044020 0.549379 0.332328 -0.165698
C34   C     C_R   0.441966 0.032036 0.331945 -0.171778
C35   C     C_R   0.956638 0.450327 0.332305 -0.166907
C36   C     C_R   0.558043 0.969201 0.331880 -0.173772
C37   C     C_R   0.548921 0.044991 0.864985 0.340145
C38   C     C_R   0.941770 0.467489 0.864369 0.351360
C39   C     C_R   0.450913 0.955040 0.865005 0.340096
C40   C     C_R   0.058245 0.532368 0.864358 0.351555
C41   C     C_R   0.044175 0.549846 0.364796 0.342755
C42   C     C_R   0.441915 0.033141 0.364410 0.345865
C43   C     C_R   0.956293 0.449943 0.364770 0.352007
C44   C     C_R   0.558080 0.967695 0.364339 0.352331
C45   C     C_R   0.499951 0.000002 0.881585 -0.211470
C46   C     C_R   0.000002 0.499956 0.881193 -0.226653
C47   C     C_R   0.000156 0.499943 0.381455 -0.189945
C48   C     C_R   0.499987 0.000291 0.381200 -0.213713
C49   C     C_R   0.499812 0.000064 0.815957 -0.060976
C50   C     C_R   0.000028 0.499841 0.815536 -0.060688
C51   C     C_R   0.000356 0.499849 0.315780 -0.059566
C52   C     C_R   0.500003 0.000703 0.315546 -0.059236
C53   C     C_R   0.000010 0.500000 0.084224 0.864652
C54   C     C_R   0.499998 0.000013 0.084136 0.857053
C55   C     C_R   0.499966 0.000005 0.584241 0.888914
C56   C     C_R   0.000003 0.499978 0.584136 0.881462
C57   C     C_R   0.860119 0.640101 0.999907 0.879055
C58   C     C_R   0.360199 0.859816 0.000093 0.887263
C59   C     C_R   0.139881 0.359900 0.999907 0.879042
C60   C     C_R   0.639801 0.140183 0.000093 0.887175
C61   C     C_R   0.140189 0.639797 0.000089 0.883026
C62   C     C_R   0.640105 0.860128 0.999912 0.879709
C63   C     C_R   0.859811 0.360204 0.000088 0.883064
C64   C     C_R   0.359894 0.139871 0.999913 0.879680
C65   C     C_R   0.360187 0.140167 0.499870 0.877715
C66   C     C_R   0.859879 0.360133 0.499922 0.894324
C67   C     C_R   0.640172 0.860189 0.500081 0.883434
C68   C     C_R   0.140103 0.639877 0.499923 0.862991
C69   C     C_R   0.639919 0.140053 0.499933 0.863169
C70   C     C_R   0.140182 0.360196 0.499868 0.878640
C71   C     C_R   0.360087 0.859936 0.499934 0.894176
C72   C     C_R   0.860184 0.640168 0.500090 0.877686
C73   C     C_R   0.287951 0.604395 0.019091 -0.098595
C74   C     C_R   0.268757 0.160999 0.945608 -0.082642
C75   C     C_R   0.712051 0.395605 0.019097 -0.098587
C76   C     C_R   0.731259 0.839005 0.945612 -0.082506
C77   C     C_R   0.838970 0.731206 0.945598 -0.081560
C78   C     C_R   0.604345 0.287873 0.019116 -0.100050
C79   C     C_R   0.161053 0.268803 0.945593 -0.081709
C80   C     C_R   0.395659 0.712125 0.019107 -0.100028
C81   C     C_R   0.659148 0.232980 0.446090 -0.113290
C82   C     C_R   0.895466 0.787683 0.519366 -0.105806
C83   C     C_R   0.341116 0.766741 0.446164 -0.081594
C84   C     C_R   0.228082 0.335752 0.444785 -0.113849
C85   C     C_R   0.335859 0.228071 0.444805 -0.084352
C86   C     C_R   0.233951 0.658402 0.446305 -0.080227
C87   C     C_R   0.787752 0.895425 0.519344 -0.104932
C88   C     C_R   0.766190 0.341440 0.446266 -0.050022
C89   C     C_R   0.359116 0.587278 0.028049 -0.108915
C90   C     C_R   0.225078 0.171358 0.919424 -0.090298
C91   C     C_R   0.640888 0.412721 0.028059 -0.108874
C92   C     C_R   0.774950 0.828651 0.919430 -0.090790
C93   C     C_R   0.828641 0.774910 0.919423 -0.093698
C94   C     C_R   0.587193 0.359013 0.028069 -0.108902
C95   C     C_R   0.171389 0.225101 0.919416 -0.093186
C96   C     C_R   0.412813 0.640985 0.028057 -0.108847
C97   C     C_R   0.668173 0.277962 0.420224 -0.133208
C98   C     C_R   0.912526 0.858736 0.528467 -0.094682
C99   C     C_R   0.332173 0.721677 0.420316 -0.105816
C100  C     C_R   0.270124 0.323736 0.418247 -0.122315
C101  C     C_R   0.323858 0.270061 0.418258 -0.075687
C102  C     C_R   0.278832 0.667596 0.420406 -0.074938
C103  C     C_R   0.858827 0.912450 0.528456 -0.094216
C104  C     C_R   0.721446 0.332110 0.420333 -0.050041
C105  C     C_R   0.323982 0.730668 0.009527 0.039406
C106  C     C_R   0.205194 0.259808 0.972354 0.040911
C107  C     C_R   0.676020 0.269331 0.009531 0.039422
C108  C     C_R   0.794818 0.740197 0.972356 0.040947
C109  C     C_R   0.740216 0.794833 0.972362 0.039290
C110  C     C_R   0.730630 0.323953 0.009522 0.040626
C111  C     C_R   0.259793 0.205169 0.972360 0.039266
C112  C     C_R   0.269371 0.676047 0.009519 0.040647
C113  C     C_R   0.758590 0.295954 0.472674 0.022684
C114  C     C_R   0.769261 0.823852 0.509643 0.037954
C115  C     C_R   0.241487 0.703953 0.472697 0.029932
C116  C     C_R   0.293270 0.238621 0.471925 0.031991
C117  C     C_R   0.238645 0.293233 0.471920 0.045456
C118  C     C_R   0.295931 0.758738 0.472661 0.040134
C119  C     C_R   0.823872 0.769228 0.509653 0.038682
C120  C     C_R   0.704187 0.241129 0.472627 0.047698
C121  C     C_R   0.197299 0.694844 0.000696 -0.226828
C122  C     C_R   0.302832 0.194961 0.999328 -0.220952
C123  C     C_R   0.802700 0.305156 0.000695 -0.226832
C124  C     C_R   0.697165 0.805036 0.999328 -0.221052
C125  C     C_R   0.805004 0.697145 0.999319 -0.221489
C126  C     C_R   0.694850 0.197287 0.000707 -0.228330
C127  C     C_R   0.194998 0.302858 0.999318 -0.221402
C128  C     C_R   0.305151 0.802712 0.000706 -0.228354
C129  C     C_R   0.695037 0.197076 0.499353 -0.219329
C130  C     C_R   0.805113 0.697253 0.500715 -0.225659
C131  C     C_R   0.304989 0.802883 0.499365 -0.228890
C132  C     C_R   0.197315 0.305169 0.499256 -0.231887
C133  C     C_R   0.305164 0.197293 0.499256 -0.232619
C134  C     C_R   0.197206 0.694938 0.499371 -0.219914
C135  C     C_R   0.697265 0.805128 0.500694 -0.223572
C136  C     C_R   0.802745 0.305096 0.499376 -0.229950
C137  C     C_R   0.179250 0.766861 0.992377 0.338949
C138  C     C_R   0.291442 0.237547 0.026078 0.326292
C139  C     C_R   0.820748 0.233139 0.992373 0.338968
C140  C     C_R   0.708546 0.762447 0.026075 0.326266
C141  C     C_R   0.762408 0.708544 0.026069 0.326771
C142  C     C_R   0.766886 0.179275 0.992373 0.342801
C143  C     C_R   0.237582 0.291452 0.026070 0.326800
C144  C     C_R   0.233114 0.820725 0.992376 0.342824
C145  C     C_R   0.738465 0.207651 0.525917 0.324037
C146  C     C_R   0.733113 0.679278 0.492310 0.334398
C147  C     C_R   0.261475 0.792381 0.525913 0.332740
C148  C     C_R   0.210580 0.264449 0.526376 0.330048
C149  C     C_R   0.264438 0.210582 0.526377 0.330806
C150  C     C_R   0.207543 0.738536 0.525896 0.324864
C151  C     C_R   0.679255 0.733155 0.492295 0.340799
C152  C     C_R   0.792263 0.261628 0.525932 0.333577
C153  C     C_R   0.994191 0.565816 0.135015 -0.181944
C154  C     C_R   0.443688 0.034728 0.134585 -0.183887
C155  C     C_R   0.006073 0.434152 0.134994 -0.181472
C156  C     C_R   0.556281 0.965721 0.134646 -0.184270
C157  C     C_R   0.498368 0.066106 0.635066 -0.158468
C158  C     C_R   0.943636 0.465534 0.634607 -0.171755
C159  C     C_R   0.501175 0.933975 0.635084 -0.180560
C160  C     C_R   0.056445 0.534177 0.634621 -0.174047
H1    H     H_    0.247820 0.561102 0.020110 0.138817
H2    H     H_    0.308886 0.117667 0.944709 0.140789
H3    H     H_    0.752181 0.438900 0.020114 0.138829
H4    H     H_    0.691128 0.882335 0.944712 0.140706
H5    H     H_    0.882262 0.691035 0.944686 0.137654
H6    H     H_    0.561061 0.247731 0.020148 0.138458
H7    H     H_    0.117762 0.308975 0.944680 0.137750
H8    H     H_    0.438944 0.752265 0.020138 0.138483
H9    H     H_    0.616133 0.192515 0.445140 0.123370
H10   H     H_    0.938745 0.747528 0.520394 0.143026
H11   H     H_    0.384184 0.807154 0.445233 0.135830
H12   H     H_    0.188036 0.379140 0.443837 0.125659
H13   H     H_    0.379295 0.188076 0.443880 0.142724
H14   H     H_    0.194058 0.614843 0.445524 0.147274
H15   H     H_    0.747610 0.938715 0.520354 0.141903
H16   H     H_    0.806021 0.385056 0.445499 0.158109
H17   H     H_    0.372491 0.532222 0.035270 0.162556
H18   H     H_    0.232586 0.137164 0.899135 0.166840
H19   H     H_    0.627514 0.467777 0.035283 0.162586
H20   H     H_    0.767448 0.862846 0.899142 0.166398
H21   H     H_    0.862820 0.767382 0.899127 0.163635
H22   H     H_    0.532120 0.372358 0.035300 0.162639
H23   H     H_    0.137219 0.232633 0.899119 0.164101
H24   H     H_    0.467888 0.627638 0.035285 0.162659
H25   H     H_    0.633265 0.271150 0.400109 0.154313
H26   H     H_    0.967531 0.872006 0.535812 0.178595
H27   H     H_    0.367192 0.728376 0.400230 0.162275
H28   H     H_    0.261375 0.356666 0.397671 0.154860
H29   H     H_    0.356834 0.261306 0.397692 0.170470
H30   H     H_    0.272520 0.632272 0.400398 0.177659
H31   H     H_    0.872125 0.967438 0.535791 0.178303
H32   H     H_    0.727812 0.367378 0.400313 0.183761
H33   H     H_    0.988948 0.617185 0.122703 0.220920
H34   H     H_    0.400444 0.062433 0.122036 0.222798
H35   H     H_    0.011256 0.382794 0.122667 0.220952
H36   H     H_    0.599530 0.937902 0.122145 0.222737
H37   H     H_    0.496846 0.117701 0.622747 0.222512
H38   H     H_    0.900296 0.437933 0.622077 0.221802
H39   H     H_    0.502743 0.882361 0.622780 0.217501
H40   H     H_    0.099776 0.561820 0.622102 0.220813
H41   H     H_    0.586931 0.079363 0.820257 0.209760
H42   H     H_    0.897033 0.443562 0.819389 0.209036
H43   H     H_    0.412716 0.920752 0.820293 0.209911
H44   H     H_    0.103017 0.556140 0.819370 0.208996
H45   H     H_    0.078477 0.587920 0.320078 0.206394
H46   H     H_    0.397283 0.057485 0.319450 0.206306
H47   H     H_    0.922260 0.411744 0.320037 0.206145
H48   H     H_    0.602724 0.943885 0.319334 0.208097
N1    N     N_R   0.955102 0.454858 0.234337 -0.092433
N2    N     N_R   0.563445 0.007019 0.234406 -0.085700
N3    N     N_R   0.045562 0.544954 0.234340 -0.093154
N4    N     N_R   0.436500 0.994367 0.234414 -0.085724
N5    N     N_R   0.451091 0.958719 0.734479 -0.083043
N6    N     N_R   0.063500 0.493151 0.734406 -0.079980
N7    N     N_R   0.548257 0.041501 0.734460 -0.088694
N8    N     N_R   0.936607 0.506349 0.734397 -0.086121
N9    N     N_R   0.451165 0.958699 0.765431 -0.132619
N10   N     N_R   0.063587 0.493623 0.765349 -0.125724
N11   N     N_R   0.548270 0.041506 0.765412 -0.133574
N12   N     N_R   0.936500 0.505923 0.765341 -0.127675
N13   N     N_R   0.955174 0.454802 0.265281 -0.137808
N14   N     N_R   0.563543 0.006640 0.265350 -0.129210
N15   N     N_R   0.045545 0.544946 0.265286 -0.138860
N16   N     N_R   0.436406 0.994888 0.265358 -0.128786
O1    O     O_3   1.000000 0.500000 0.999980 -0.535406
O2    O     O_3   0.500000 0.000000 0.999980 -0.534917
O3    O     O_3   0.500000 0.000000 0.499980 -0.535911
O4    O     O_3   1.000000 0.500000 0.499980 -0.536134
O5    O     O_R   0.060770 0.500000 0.930660 -0.594812
O6    O     O_R   0.500000 0.060770 0.930660 -0.602293
O7    O     O_R   0.939230 0.500000 0.930660 -0.594899
O8    O     O_R   0.500000 0.939230 0.930660 -0.602437
O9    O     O_R   0.560770 0.000000 0.430660 -0.595415
O10   O     O_R   1.000000 0.560770 0.430660 -0.592288
O11   O     O_R   0.439230 0.000000 0.430660 -0.601476
O12   O     O_R   1.000000 0.439230 0.430660 -0.610562
O13   O     O_R   1.000000 0.560700 0.069300 -0.631010
O14   O     O_R   0.439300 0.000000 0.069300 -0.627010
O15   O     O_R   1.000000 0.439300 0.069300 -0.631071
O16   O     O_R   0.560700 0.000000 0.069300 -0.626958
O17   O     O_R   0.500000 0.060700 0.569300 -0.613341
O18   O     O_R   0.939300 0.500000 0.569300 -0.630559
O19   O     O_R   0.500000 0.939300 0.569300 -0.632589
O20   O     O_R   0.060700 0.500000 0.569300 -0.606685
O21   O     O_R   0.853840 0.585430 0.981810 -0.654182
O22   O     O_R   0.414570 0.853840 0.981810 -0.621909
O23   O     O_R   0.146160 0.414570 0.981810 -0.654133
O24   O     O_R   0.585430 0.146160 0.981810 -0.621899
O25   O     O_R   0.146160 0.585430 0.981810 -0.620330
O26   O     O_R   0.585430 0.853840 0.981810 -0.657039
O27   O     O_R   0.853840 0.414570 0.981810 -0.620313
O28   O     O_R   0.414570 0.146160 0.981810 -0.656976
O29   O     O_R   0.353840 0.085430 0.481810 -0.619189
O30   O     O_R   0.914570 0.353840 0.481810 -0.621735
O31   O     O_R   0.646160 0.914570 0.481810 -0.619013
O32   O     O_R   0.085430 0.646160 0.481810 -0.631182
O33   O     O_R   0.646160 0.085430 0.481810 -0.644895
O34   O     O_R   0.085430 0.353840 0.481810 -0.634067
O35   O     O_R   0.353840 0.914570 0.481810 -0.633895
O36   O     O_R   0.914570 0.646160 0.481810 -0.634877
O37   O     O_R   0.085460 0.353830 0.018160 -0.581001
O38   O     O_R   0.646170 0.085460 0.018160 -0.606088
O39   O     O_R   0.914540 0.646170 0.018160 -0.580978
O40   O     O_R   0.353830 0.914540 0.018160 -0.606056
O41   O     O_R   0.914540 0.353830 0.018160 -0.606725
O42   O     O_R   0.353830 0.085460 0.018160 -0.581398
O43   O     O_R   0.085460 0.646170 0.018160 -0.606739
O44   O     O_R   0.646170 0.914540 0.018160 -0.581359
O45   O     O_R   0.585460 0.853830 0.518160 -0.608732
O46   O     O_R   0.146170 0.585460 0.518160 -0.609103
O47   O     O_R   0.414540 0.146170 0.518160 -0.607973
O48   O     O_R   0.853830 0.414540 0.518160 -0.590884
O49   O     O_R   0.414540 0.853830 0.518160 -0.588186
O50   O     O_R   0.853830 0.585460 0.518160 -0.604098
O51   O     O_R   0.585460 0.146170 0.518160 -0.606412
O52   O     O_R   0.146170 0.414540 0.518160 -0.604808
Zn1   Zn    Zn3+2 1.000000 0.586740 0.025950 1.058478
Zn2   Zn    Zn3+2 0.413260 0.000000 0.025950 1.060220
Zn3   Zn    Zn3+2 1.000000 0.413260 0.025950 1.058447
Zn4   Zn    Zn3+2 0.586740 0.000000 0.025950 1.060227
Zn5   Zn    Zn3+2 0.500000 0.086740 0.525950 1.054822
Zn6   Zn    Zn3+2 0.913260 0.500000 0.525950 1.068342
Zn7   Zn    Zn3+2 0.500000 0.913260 0.525950 1.068932
Zn8   Zn    Zn3+2 0.086740 0.500000 0.525950 1.056917
Zn9   Zn    Zn3+2 0.913260 0.500000 0.974020 1.037935
Zn10  Zn    Zn3+2 0.500000 0.913260 0.974020 1.036213
Zn11  Zn    Zn3+2 0.086740 0.500000 0.974020 1.038003
Zn12  Zn    Zn3+2 0.500000 0.086740 0.974020 1.036302
Zn13  Zn    Zn3+2 0.413260 1.000000 0.474020 1.043100
Zn14  Zn    Zn3+2 0.000000 0.413260 0.474020 1.039781
Zn15  Zn    Zn3+2 0.586740 1.000000 0.474020 1.027390
Zn16  Zn    Zn3+2 1.000000 0.586740 0.474020 1.028614
Cl1   Cl    Cl    0.089188 0.789462 0.980680 -0.467515
Cl2   Cl    Cl    0.346680 0.225212 0.059504 -0.512295
Cl3   Cl    Cl    0.910809 0.210539 0.980671 -0.467456
Cl4   Cl    Cl    0.653294 0.774775 0.059498 -0.511888
Cl5   Cl    Cl    0.774657 0.653254 0.059476 -0.506489
Cl6   Cl    Cl    0.789502 0.089261 0.980646 -0.459641
Cl7   Cl    Cl    0.225321 0.346737 0.059480 -0.506927
Cl8   Cl    Cl    0.210496 0.910737 0.980652 -0.459569
Cl9   Cl    Cl    0.727215 0.151330 0.559070 -0.498244
Cl10  Cl    Cl    0.710530 0.589288 0.480544 -0.502953
Cl11  Cl    Cl    0.272859 0.848545 0.559105 -0.452100
Cl12  Cl    Cl    0.157601 0.278905 0.560313 -0.443907
Cl13  Cl    Cl    0.278902 0.157648 0.560322 -0.446799
Cl14  Cl    Cl    0.151070 0.727343 0.559016 -0.503775
Cl15  Cl    Cl    0.589248 0.710631 0.480496 -0.496201
Cl16  Cl    Cl    0.848321 0.273201 0.559154 -0.459349
Cl17  Cl    Cl    0.982789 0.650907 0.186400 -0.482648
Cl18  Cl    Cl    0.374117 0.087121 0.185290 -0.480645
Cl19  Cl    Cl    0.017775 0.349001 0.186345 -0.485714
Cl20  Cl    Cl    0.625846 0.913836 0.185443 -0.477323
Cl21  Cl    Cl    0.492918 0.151834 0.686449 -0.469717
Cl22  Cl    Cl    0.873944 0.413520 0.685350 -0.467837
Cl23  Cl    Cl    0.506313 0.848326 0.686494 -0.484930
Cl24  Cl    Cl    0.126227 0.585960 0.685384 -0.468755
Cl25  Cl    Cl    0.614016 0.100302 0.883945 -0.515553
Cl26  Cl    Cl    0.868822 0.421015 0.882483 -0.503628
Cl27  Cl    Cl    0.385890 0.899701 0.883993 -0.515378
Cl28  Cl    Cl    0.131177 0.578905 0.882457 -0.503501
Cl29  Cl    Cl    0.103067 0.612108 0.383483 -0.610009
Cl30  Cl    Cl    0.369196 0.079869 0.382577 -0.584748
Cl31  Cl    Cl    0.897365 0.387642 0.383415 -0.600065
Cl32  Cl    Cl    0.630788 0.920744 0.382407 -0.511571

loop_
_geom_bond_atom_site_label_1
_geom_bond_atom_site_label_2
_ccdc_geom_bond_type
C28   N8    A    
C130  C146  A    
C34   C42   A    
C138  Cl2   S    
C17   C153  A    
C99   H27   S    
C11   C159  A    
C90   C95   A    
O42   Zn2   S    
C97   H25   S    
O1    Zn11  S    
C100  H28   S    
C101  H29   S    
C138  C143  A    
C139  C142  A    
C1    C46   S    
O35   Zn13  S    
O4    Zn6   S    
C104  H32   S    
C3    C48   S    
C119  C130  A    
C108  C109  A    
C30   C38   A    
O2    Zn2   S    
C25   N3    A    
C117  C132  A    
C61   O43   A    
C73   H1    S    
C118  C131  A    
C92   H20   S    
C3    O11   A    
C93   H21   S    
C12   C16   A    
C84   C117  A    
C65   O29   A    
C81   H9    S    
C5    C13   A    
C149  Cl13  S    
C20   C158  A    
C82   C98   A    
O28   Zn12  S    
C136  C152  A    
O48   Zn6   S    
C30   H42   S    
C147  Cl11  S    
O20   Zn8   S    
O21   Zn9   S    
C84   C100  A    
C147  C150  A    
C140  C141  A    
C54   O14   A    
C116  C133  A    
C106  C127  A    
C86   H14   S    
C19   C157  A    
C40   C46   A    
C110  C123  A    
C113  C120  A    
C144  Cl8   S    
C15   C27   S    
C115  C118  A    
N3    N15   A    
O26   Zn10  S    
C127  C143  A    
C14   C26   S    
C63   O41   A    
C87   C103  A    
C43   Cl31  S    
C105  C112  A    
C24   N14   A    
C35   C51   A    
C107  C110  A    
C36   C44   A    
C37   C45   A    
C17   C155  A    
C18   C156  A    
C74   H2    S    
C56   O18   A    
C4    O10   A    
C85   C116  A    
C115  C134  A    
C74   C90   A    
C89   C96   A    
C9    C15   A    
C33   C41   A    
C10   C16   A    
C3    O9    A    
C91   C94   A    
C95   H23   S    
C78   C94   A    
C158  H38   S    
C62   O26   A    
C57   O21   A    
C69   C129  S    
C20   C160  A    
O45   Zn7   S    
C26   N4    A    
O27   Zn9   S    
C79   H7    S    
O30   Zn14  S    
C43   C47   A    
O18   Zn6   S    
C44   C48   A    
O36   Zn16  S    
C58   C128  S    
N2    N14   A    
C20   C56   S    
C62   C124  S    
C29   C49   A    
C33   H45   S    
C64   C122  S    
O3    Zn15  S    
O2    Zn12  S    
C57   C125  S    
C44   Cl32  S    
C59   C127  S    
C123  C139  A    
C75   H3    S    
C36   H48   S    
C121  C137  A    
C88   C113  A    
O31   Zn15  S    
C62   O44   A    
C64   O28   A    
C23   C51   S    
C125  C141  A    
C76   C109  A    
C131  C147  A    
C35   C43   A    
C10   C158  A    
C114  C119  A    
C36   C52   A    
C75   C91   A    
C39   C45   A    
C141  Cl5   S    
C56   O20   A    
C21   N9    A    
C111  C122  A    
C4    O12   A    
C11   C15   A    
C70   C132  S    
C88   C104  A    
C145  Cl9   S    
C9    Cl21  S    
C106  C111  A    
C2    C45   S    
C69   O51   A    
C70   O52   A    
C120  C129  A    
C60   O38   A    
N6    N10   A    
C53   O13   A    
C42   Cl30  S    
O52   Zn8   S    
C79   C106  A    
C83   H11   S    
C86   C115  A    
C6    C14   A    
C7    C13   A    
C8    Cl20  S    
O16   Zn4   S    
C41   C47   A    
C26   N2    A    
C42   C48   A    
C5    Cl17  S    
C137  C144  A    
C23   N15   A    
O22   Zn10  S    
C103  H31   S    
C29   C37   A    
C86   C102  A    
O33   Zn15  S    
C73   C112  A    
C69   O33   A    
N4    N16   A    
C75   C110  A    
C58   O40   A    
O3    Zn13  S    
C129  C145  A    
C59   O37   A    
C77   C108  A    
O2    Zn10  S    
O8    Zn10  S    
O14   Zn2   S    
O3    Zn7   S    
C72   O36   A    
C87   H15   S    
C88   H16   S    
O46   Zn8   S    
C112  C121  A    
C64   O42   A    
C148  Cl12  S    
O12   Zn14  S    
C71   O49   A    
C100  C101  A    
C80   H8    S    
O51   Zn5   S    
C38   C46   A    
C145  C152  A    
C2    O6    A    
C71   C131  S    
C146  C151  A    
C153  H33   S    
C61   O25   A    
C21   N11   A    
O1    Zn1   S    
C41   Cl29  S    
C4    C47   S    
C24   C52   S    
C63   O27   A    
C90   H18   S    
N1    N13   A    
C53   O15   A    
C143  Cl7   S    
C55   O19   A    
C72   O50   A    
C156  H36   S    
O47   Zn5   S    
C98   C103  A    
C60   C126  S    
C66   O30   A    
O15   Zn3   S    
C152  Cl16  S    
C37   Cl25  S    
O9    Zn15  S    
O10   Zn16  S    
C39   Cl27  S    
C40   Cl28  S    
C22   C50   S    
O34   Zn14  S    
C159  H39   S    
C30   C50   A    
C83   C99   A    
C27   N7    A    
C82   C119  A    
C31   C49   A    
O3    Zn5   S    
C21   C49   S    
O50   Zn6   S    
C78   H6    S    
C29   H41   S    
C12   Cl24  S    
O11   Zn13  S    
C58   O22   A    
C122  C138  A    
C74   C111  A    
C84   H12   S    
C126  C142  A    
C78   C107  A    
C32   H44   S    
C67   C135  S    
C79   C95   A    
N7    N11   A    
N8    N12   A    
O37   Zn3   S    
C7    Cl19  S    
C150  Cl14  S    
O38   Zn4   S    
O1    Zn3   S    
C12   C160  A    
C6    C154  A    
C146  Cl10  S    
C35   H47   S    
C10   Cl22  S    
C17   C53   S    
C19   C55   S    
C22   N12   A    
C57   O39   A    
C55   O17   A    
C124  C140  A    
C63   C123  S    
C67   O31   A    
C33   C51   A    
O44   Zn4   S    
C77   H5    S    
C34   C52   A    
C19   C159  A    
C68   C134  S    
C73   C89   A    
C98   H26   S    
C139  Cl3   S    
C6    Cl18  S    
C135  C151  A    
C77   C93   A    
C92   C93   A    
C102  H30   S    
C157  H37   S    
C97   C104  A    
C155  H35   S    
C67   O45   A    
C70   O34   A    
C99   C102  A    
C7    C155  A    
O6    Zn12  S    
C27   N5    A    
O7    Zn9   S    
O4    Zn14  S    
C94   H22   S    
C71   O35   A    
C16   C28   S    
C82   H10   S    
O13   Zn1   S    
C160  H40   S    
C34   H46   S    
C81   C120  A    
C83   C118  A    
C61   C121  S    
C5    C153  A    
C134  C150  A    
C116  C117  A    
C1    O7    A    
C87   C114  A    
O19   Zn7   S    
C113  C136  A    
C91   H19   S    
C85   H13   S    
C114  C135  A    
C9    C157  A    
C108  C125  A    
C80   C96   A    
C31   H43   S    
O4    Zn8   S    
C22   N10   A    
C13   C25   S    
C96   H24   S    
C8    C156  A    
C24   N16   A    
C28   N6    A    
O49   Zn7   S    
C133  C149  A    
C148  C149  A    
O23   Zn11  S    
O24   Zn12  S    
N5    N9    A    
O41   Zn3   S    
O39   Zn1   S    
C80   C105  A    
O43   Zn1   S    
C38   Cl26  S    
O1    Zn9   S    
C68   O46   A    
C1    O5    A    
C128  C144  A    
C68   O32   A    
O40   Zn2   S    
C142  Cl6   S    
O4    Zn16  S    
O2    Zn4   S    
C25   N1    A    
C32   C50   A    
C76   C92   A    
C60   O24   A    
C89   H17   S    
C66   C136  S    
C76   H4    S    
O32   Zn16  S    
C85   C101  A    
C8    C14   A    
C105  C128  A    
C132  C148  A    
O29   Zn13  S    
C107  C126  A    
O17   Zn5   S    
C18   C154  A    
C140  Cl4   S    
C59   O23   A    
C109  C124  A    
C72   C130  S    
C2    O8    A    
C151  Cl15  S    
C137  Cl1   S    
C54   O16   A    
C81   C97   A    
C11   Cl23  S    
C31   C39   A    
C32   C40   A    
C65   O47   A    
C66   O48   A    
C18   C54   S    
C154  H34   S    
C23   N13   A    
O5    Zn11  S    
O25   Zn11  S    
C65   C133  S    
