data_mof_unit_17972.cif
_audit_creation_date              2012-12-11T17:17:06-0500
_audit_creation_method            fapswitch 2.2
_symmetry_space_group_name_H-M    P1
_symmetry_Int_Tables_number       1
_space_group_crystal_system       triclinic
_cell_length_a                    8.238655
_cell_length_b                    16.727946
_cell_length_c                    19.213554
_cell_angle_alpha                 99.867501
_cell_angle_beta                  94.607934
_cell_angle_gamma                 93.331138
_cell_volume                      2593.35307433

loop_
_atom_site_label
_atom_site_type_symbol
_atom_type_description
_atom_site_fract_x
_atom_site_fract_y
_atom_site_fract_z
_atom_type_partial_charge
Ba1   Ba    Ba6+2 0.843980 0.537940 0.465850 1.728873
Ba2   Ba    Ba6+2 0.345840 0.462130 0.534150 1.762958
C1    C     C_3   0.579585 0.819503 0.283724 -0.331053
C2    C     C_3   0.598601 0.738961 0.308880 0.312955
C3    C     C_3   0.523610 0.327532 0.317292 0.242905
C4    C     C_3   0.511242 0.294078 0.238231 -0.276852
C5    C     C_3   0.089809 0.302276 0.733161 0.140712
C6    C     C_3   0.031773 0.266494 0.795783 0.361096
C7    C     C_3   0.596590 0.253084 0.699282 0.437568
C8    C     C_3   0.566138 0.172369 0.724033 -0.261027
C9    C     C_2   0.284913 0.513815 0.290099 -0.341232
C10   C     C_3   0.426488 0.505241 0.244277 0.026246
C11   C     C_2   0.368988 0.511654 0.168732 -0.111906
C12   C     C_3   0.103133 0.711326 0.278636 0.284737
C13   C     C_2   0.211725 0.491005 0.143037 -0.127512
C14   C     C_2   0.093538 0.464731 0.194591 0.267391
C15   C     C_1   0.143544 0.473302 0.265621 -0.042831
C16   C     C_R   0.071494 0.494391 0.924237 0.493022
C17   C     C_R   0.164120 0.492256 0.064781 0.484791
C18   C     C_R   0.098762 0.529361 0.799413 -0.079338
C19   C     C_R   0.035914 0.521478 0.727056 0.044928
C20   C     C_R   0.787721 0.452868 0.753613 -0.021659
C21   C     C_R   0.848602 0.459769 0.824686 -0.133387
C22   C     C_R   0.007137 0.495777 0.848689 -0.030987
C23   C     C_3   0.079409 0.731015 0.204327 -0.318558
C24   C     C_R   0.883535 0.481124 0.705189 -0.310816
C25   C     C_R   0.381649 0.736338 0.476218 -0.294714
C26   C     C_R   0.527652 0.763830 0.516889 0.029664
C27   C     C_R   0.575059 0.849348 0.534310 -0.042738
C28   C     C_R   0.474608 0.904718 0.503630 0.252875
C29   C     C_R   0.325489 0.873504 0.464619 -0.170559
C30   C     C_R   0.276554 0.790500 0.453787 -0.012141
C31   C     C_R   0.587312 0.154962 0.510689 -0.127901
C32   C     C_R   0.662294 0.227263 0.496745 -0.057359
C33   C     C_R   0.679803 0.104422 0.548494 0.261622
C34   C     C_3   0.208049 0.708615 0.624387 0.307990
C35   C     C_R   0.831137 0.238475 0.510641 0.194116
C36   C     C_R   0.914706 0.203557 0.561615 -0.052581
C37   C     C_R   0.839236 0.133694 0.579675 -0.225636
C38   C     C_3   0.270471 0.797303 0.650262 -0.228400
C39   C     C_3   0.107998 0.284403 0.271486 0.229238
C40   C     C_3   0.006473 0.212705 0.224096 0.299109
C41   C     C_3   0.700241 0.645082 0.680946 0.271568
C42   C     C_3   0.634672 0.657835 0.754079 0.281662
H1    H     H_    0.723960 0.739997 0.334971 0.114690
H2    H     H_    0.389722 0.797508 0.680931 0.114483
H3    H     H_    0.289584 0.826376 0.603748 0.028338
H4    H     H_    0.205753 0.259423 0.302448 0.088482
H5    H     H_    0.162715 0.323143 0.237212 -0.030866
H6    H     H_    0.895344 0.234591 0.199384 0.092577
H7    H     H_    0.968276 0.167396 0.256505 0.089448
H8    H     H_    0.833496 0.639955 0.686429 -0.026541
H9    H     H_    0.640409 0.586698 0.651500 0.011521
H10   H     H_    0.670429 0.828116 0.245457 0.153392
H11   H     H_    0.634520 0.600233 0.775118 -0.001883
H12   H     H_    0.506882 0.675492 0.749294 0.046494
H13   H     H_    0.508219 0.732884 0.347774 -0.019800
H14   H     H_    0.599664 0.870227 0.329806 0.099139
H15   H     H_    0.420283 0.365721 0.329838 -0.060058
H16   H     H_    0.639862 0.365271 0.331299 0.100481
H17   H     H_    0.409037 0.247438 0.223888 0.176328
H18   H     H_    0.491401 0.343206 0.207091 0.125567
H19   H     H_    0.623453 0.264042 0.224198 0.145861
H20   H     H_    0.454653 0.820514 0.257616 0.125604
H21   H     H_    0.134778 0.684822 0.166546 0.088772
H22   H     H_    0.981175 0.323540 0.705757 0.064020
H23   H     H_    0.176231 0.356374 0.752408 0.117931
H24   H     H_    0.945716 0.306796 0.823129 -0.034913
H25   H     H_    0.965160 0.206109 0.776279 0.013596
H26   H     H_    0.730021 0.265541 0.699666 -0.205878
H27   H     H_    0.538402 0.247625 0.644404 0.037301
H28   H     H_    0.633298 0.124986 0.693375 0.034393
H29   H     H_    0.434009 0.152781 0.715677 0.168046
H30   H     H_    0.042830 0.649868 0.277254 0.066741
H31   H     H_    0.609065 0.178301 0.781103 0.150778
H32   H     H_    0.458598 0.527225 0.133776 0.143902
H33   H     H_    0.218050 0.560130 0.816697 0.115672
H34   H     H_    0.772587 0.435994 0.860985 0.119758
H35   H     H_    0.292704 0.560484 0.337389 0.049707
H36   H     H_    0.836003 0.475036 0.650239 0.064397
H37   H     H_    0.462853 0.136288 0.489359 0.149897
H38   H     H_    0.246107 0.914525 0.443222 0.111948
H39   H     H_    0.236156 0.710773 0.293419 -0.021454
H40   H     H_    0.908798 0.099576 0.612726 0.087890
H41   H     H_    0.344635 0.671942 0.465650 0.062770
H42   H     H_    0.947035 0.730396 0.187574 0.142269
H43   H     H_    0.138974 0.792026 0.203277 0.146640
H44   H     H_    0.305534 0.676090 0.597443 -0.014237
H45   H     H_    0.098837 0.705733 0.586190 0.056325
N1    N     N_R   0.179065 0.553496 0.963174 -0.200353
N2    N     N_R   0.224253 0.552372 0.031769 -0.236037
N3    N     N_R   0.062740 0.432071 0.024568 -0.082029
N4    N     N_R   0.016246 0.433435 0.956708 -0.177644
N5    N     N_2   0.520521 0.989348 0.504239 -0.216250
N6    N     N_2   0.621749 0.023847 0.553733 -0.237499
O1    O     O_2   0.875590 0.454550 0.328720 -0.413100
O2    O     O_3   0.668172 0.712205 0.648274 -0.642506
O3    O     O_3   0.032824 0.770015 0.326206 -0.590332
O4    O     O_2   0.314110 0.545480 0.671320 -0.473748
O5    O     O_3   0.061730 0.544170 0.583900 -0.484752
O6    O     O_3   0.555240 0.398120 0.628310 -0.510524
O7    O     O_3   0.168633 0.674963 0.683105 -0.654118
O8    O     O_3   0.629280 0.402460 0.464250 -0.471319
O9    O     O_3   0.140510 0.356300 0.593010 -0.454032
O10   O     O_2   0.259805 0.211710 0.561313 -0.453552
O11   O     O_3   0.167940 0.243430 0.688862 -0.588400
O12   O     O_3   0.127960 0.455900 0.416100 -0.426655
O13   O     O_3   0.560420 0.597610 0.535760 -0.496452
O14   O     O_2   0.379340 0.302240 0.465940 -0.391028
O15   O     O_3   0.519777 0.261639 0.353488 -0.600417
O16   O     O_2   0.451765 0.463715 0.751940 -0.468119
O17   O     O_3   0.529455 0.314489 0.745019 -0.536020
O18   O     O_3   0.634460 0.601950 0.371690 -0.500434
O19   O     O_2   0.763131 0.557874 0.251768 -0.452252
O20   O     O_3   0.007045 0.325014 0.319693 -0.571481
O21   O     O_3   0.571351 0.674940 0.250573 -0.606913
O22   O     O_2   0.810360 0.697790 0.534100 -0.469309
O23   O     O_3   0.049190 0.643760 0.407000 -0.502954
O24   O     O_2   0.935940 0.787170 0.453970 -0.489122
P1    P     P_3+3 0.048660 0.430750 0.339650 1.147387
P2    P     P_3+3 0.638170 0.686040 0.555200 0.965735
P3    P     P_3+3 0.073492 0.749243 0.411878 0.945286
P4    P     P_3+3 0.141040 0.569320 0.660360 0.975517
P5    P     P_3+3 0.120332 0.252277 0.600114 1.038640
P6    P     P_3+3 0.599193 0.582430 0.279770 0.990183
P7    P     P_3+3 0.557124 0.297654 0.444522 1.081389
P8    P     P_3+3 0.581244 0.408211 0.720769 0.984219
C43   C     C_3   0.152140 0.846707 0.695373 -0.185042
C44   C     C_3   0.198753 0.855805 0.775740 -0.173896
C45   C     C_3   0.338721 0.920618 0.802310 -0.343264
H46   H     H_    0.453435 0.901919 0.780121 0.149157
H47   H     H_    0.308972 0.979825 0.787566 0.150956
H48   H     H_    0.358883 0.928797 0.861012 0.182628
H49   H     H_    0.091017 0.874063 0.804220 0.183507
H50   H     H_    0.232560 0.796848 0.789761 0.171490
H51   H     H_    0.148427 0.908081 0.680617 0.096288
H52   H     H_    0.026450 0.817057 0.682901 0.135994
S1    S     S_3+6 0.115054 0.160896 0.155197 -0.027982
O25   O     O_2   0.996595 0.102972 0.104359 -0.209113
O26   O     O_2   0.194546 0.220660 0.115911 -0.238322
O27   O     O_3   0.257413 0.107900 0.190752 -0.525665
H53   H     H_    0.317430 0.084156 0.150440 0.378926
S2    S     S_3+6 0.754270 0.733503 0.817382 -0.054373
O28   O     O_2   0.780143 0.810391 0.788120 -0.330796
O29   O     O_2   0.665172 0.751514 0.882866 -0.216290
O30   O     O_3   0.935674 0.699206 0.839419 -0.496748
H54   H     H_    0.997769 0.700131 0.797564 0.320214
S3    S     S_3+6 0.196700 0.256163 0.859117 -0.005636
O31   O     O_2   0.128827 0.244049 0.927170 -0.188374
O32   O     O_2   0.286674 0.183535 0.831447 -0.284839
O33   O     O_3   0.325058 0.340499 0.874550 -0.510691
H55   H     H_    0.414215 0.329091 0.908398 0.381944
S4    S     S_3+6 0.905305 0.410907 0.154908 -0.042195
O34   O     O_2   0.943469 0.334376 0.107711 -0.196372
O35   O     O_2   0.794789 0.386987 0.206660 -0.329247
O36   O     O_3   0.802173 0.468040 0.104862 -0.468184
H56   H     H_    0.845139 0.524952 0.122985 0.315156
C46   C     C_3   0.720296 0.880660 0.588948 -0.143783
C47   C     C_3   0.659947 0.915994 0.661026 -0.231416
C48   C     C_3   0.789916 0.970135 0.711285 -0.347536
H57   H     H_    0.839638 0.019854 0.686466 0.117738
H58   H     H_    0.735182 0.997298 0.760045 0.156492
H59   H     H_    0.890448 0.934283 0.726977 0.157051
H60   H     H_    0.551073 0.951067 0.654274 0.135583
H61   H     H_    0.623361 0.864985 0.687181 0.172593
H62   H     H_    0.801776 0.832972 0.598143 0.125812
H63   H     H_    0.803340 0.924286 0.568985 0.133252
S5    S     S_3+6 0.931578 0.253517 0.439029 -0.073363
O37   O     O_2   0.932886 0.343416 0.443876 -0.318500
O38   O     O_2   0.100643 0.225592 0.439739 -0.258561
O39   O     O_3   0.822720 0.199706 0.366386 -0.544034
H64   H     H_    0.793218 0.238525 0.335316 0.342064

loop_
_geom_bond_atom_site_label_1
_geom_bond_atom_site_label_2
_ccdc_geom_bond_type
C34   H45   S    
C38   H3    S    
C19   C24   A    
Ba2   O14   S    
C40   S1    S    
C32   C35   A    
C39   C40   S    
C33   C37   A    
S3    O33   S    
O13   P2    S    
C43   H52   S    
C43   C44   S    
N1    N2    A    
C5    C6    S    
Ba2   P4    S    
C34   H44   S    
C38   H2    S    
C10   C11   S    
C6    H25   S    
C35   C36   A    
C29   H38   S    
C18   H33   S    
C16   C22   S    
C12   H30   S    
C4    H17   S    
C26   C27   A    
S3    O32   D    
C37   H40   S    
C13   C17   S    
C43   H51   S    
C36   C37   A    
C1    H10   S    
C41   H8    S    
O18   P6    S    
C3    O15   S    
S2    O28   D    
C38   C43   S    
Ba2   O12   S    
C23   H43   S    
C34   O7    S    
Ba1   Ba2   S    
O23   P3    S    
C25   H41   S    
O8    P7    S    
O22   P2    D    
C23   H42   S    
O17   P8    S    
O2    P2    S    
C17   N3    A    
C15   P1    S    
O6    P8    S    
C44   H50   S    
C41   H9    S    
S5    O39   S    
C9    C15   D    
C18   C22   A    
C14   C15   D    
C2    H13   S    
O33   H55   S    
C42   S2    S    
S4    O35   D    
C7    C8    S    
Ba1   O8    S    
C32   P7    S    
C40   H7    S    
C7    O17   S    
S5    O38   D    
Ba2   O5    S    
C21   H34   S    
C6    S3    S    
Ba1   O18   S    
C12   H39   S    
C39   O20   S    
Ba1   O5    S    
C39   H5    S    
O1    P1    D    
C46   H63   S    
C12   O3    S    
C35   S5    S    
C2    H1    S    
C13   C14   S    
C3    H15   S    
C16   N1    A    
C48   H59   S    
C30   P3    S    
C34   C38   S    
C23   H21   S    
C7    H26   S    
S2    O30   S    
O19   P6    D    
C26   P2    S    
C10   P6    S    
Ba2   O6    S    
C1    H20   S    
C24   H36   S    
C47   H61   S    
O10   P5    D    
Ba1   P1    S    
C48   H58   S    
C4    H19   S    
C19   P4    S    
C45   H47   S    
C41   C42   S    
C27   C28   A    
C8    H31   S    
C42   H12   S    
C47   C48   S    
C11   H32   S    
Ba2   O9    S    
C28   C29   A    
C21   C22   A    
C31   C32   A    
C5    O11   S    
Ba1   O22   S    
S3    O31   D    
S4    O36   S    
O39   H64   S    
C9    H35   S    
C40   H6    S    
O3    P3    S    
C8    H29   S    
S5    O37   D    
O15   P7    S    
Ba2   O4    S    
C6    H24   S    
O21   P6    S    
C11   C13   D    
O16   P8    D    
C46   C47   S    
S1    O26   D    
C7    H27   S    
C45   H48   S    
C1    C2    S    
O12   P1    S    
C25   C26   A    
C46   H62   S    
O4    P4    D    
O30   H54   S    
O24   P3    D    
S2    O29   D    
O36   H56   S    
C3    H16   S    
C25   C30   A    
C47   H60   S    
C2    O21   S    
C29   C30   A    
C41   O2    S    
S1    O27   S    
C9    C10   S    
C27   C46   S    
O9    P5    S    
C33   N6    S    
O5    P4    S    
C48   H57   S    
C4    H18   S    
C45   H46   S    
C44   C45   S    
C28   N5    S    
O27   H53   S    
C5    H22   S    
C42   H11   S    
C20   P8    S    
C3    C4    S    
Ba2   O8    S    
Ba1   O1    S    
Ba2   O13   S    
N3    N4    A    
C31   C33   A    
C39   H4    S    
Ba1   O23   S    
C12   C23   S    
N5    N6    D    
Ba1   P2    S    
C17   N2    A    
S1    O25   D    
Ba1   O13   S    
C5    H23   S    
C44   H49   S    
Ba1   O12   S    
C1    H14   S    
O14   P7    D    
C18   C19   A    
O20   P1    S    
C20   C24   A    
O11   P5    S    
C14   S4    S    
C16   N4    A    
C20   C21   A    
S4    O34   D    
C31   H37   S    
C36   P5    S    
O7    P4    S    
C8    H28   S    
