data_mof_unit_66000.cif
_audit_creation_date              2012-10-26T17:23:12-0400
_audit_creation_method            fapswitch 2.2
_symmetry_space_group_name_H-M    P1
_symmetry_Int_Tables_number       1
_space_group_crystal_system       triclinic
_cell_length_a                    42.557953
_cell_length_b                    29.422041
_cell_length_c                    30.74032
_cell_angle_alpha                 90.001716
_cell_angle_beta                  136.260482
_cell_angle_gamma                 89.998709
_cell_volume                      26612.1083404

loop_
_atom_site_label
_atom_site_type_symbol
_atom_type_description
_atom_site_fract_x
_atom_site_fract_y
_atom_site_fract_z
_atom_type_partial_charge
C1    C     C_R   0.585494 0.500000 0.585943 0.551155
C2    C     C_1   0.000483 0.999967 0.335786 -0.076601
C3    C     C_3   0.526085 0.543177 0.247836 0.209608
C4    C     C_3   0.021700 0.954428 0.243455 0.209603
C5    C     C_3   0.028608 0.041591 0.250368 0.209751
C6    C     C_1   0.500104 0.499969 0.120048 -0.017402
C7    C     C_1   0.000102 0.999996 0.120046 -0.017395
C8    C     C_3   0.500762 0.499974 0.289625 0.002986
C9    C     C_3   0.000772 0.999941 0.289636 0.002978
C10   C     C_3   0.501117 0.499939 0.205914 0.113354
C11   C     C_3   0.001118 0.999914 0.205915 0.113365
C12   C     C_3   0.586183 0.589895 0.287399 -0.121972
C13   C     C_1   0.500205 0.499997 0.373855 -0.028749
C14   C     C_3   0.582571 0.406633 0.283965 -0.122009
C15   C     C_3   0.091387 0.084702 0.292738 -0.121908
C16   C     C_3   0.076870 0.901980 0.278092 -0.122094
C17   C     C_1   0.000214 0.999989 0.373864 -0.028748
C18   C     C_1   0.636539 0.500000 0.636898 -0.042615
C19   C     C_1   0.136539 1.000000 0.636899 -0.042618
C20   C     C_1   0.678860 0.500000 0.679144 -0.035734
C21   C     C_1   0.178860 1.000000 0.679145 -0.035739
C22   C     C_1   0.729023 0.500000 0.729222 0.002370
C23   C     C_1   0.229023 1.000000 0.729222 0.002363
C24   C     C_1   0.771344 0.500000 0.771475 0.002516
C25   C     C_R   0.085494 1.000000 0.585943 0.551150
C26   C     C_1   0.271344 1.000000 0.771476 0.002510
C27   C     C_1   0.821507 0.500000 0.821569 -0.034275
C28   C     C_1   0.321507 1.000000 0.821569 -0.034280
C29   C     C_R   0.499945 0.499999 0.418753 0.569184
C30   C     C_R   0.999948 0.999998 0.418757 0.569183
C31   C     C_1   0.863828 0.500000 0.863847 -0.039215
C32   C     C_1   0.363828 1.000000 0.863847 -0.039219
C33   C     C_1   0.499981 0.500001 0.635286 -0.043893
C34   C     C_1   0.999981 0.000001 0.635286 -0.043893
C35   C     C_1   0.499988 0.500001 0.676675 -0.029696
C36   C     C_3   0.451468 0.500923 0.173123 -0.321889
C37   C     C_1   0.999988 0.000001 0.676675 -0.029697
C38   C     C_1   0.499997 0.500001 0.726108 0.002805
C39   C     C_1   0.999997 0.000001 0.726108 0.002804
C40   C     C_1   0.500004 0.500001 0.767499 0.002774
C41   C     C_1   0.000004 0.000001 0.767499 0.002772
C42   C     C_1   0.500013 0.500001 0.816932 -0.029651
C43   C     C_1   0.000013 0.000001 0.816932 -0.029653
C44   C     C_1   0.500020 0.500000 0.858322 -0.043244
C45   C     C_1   0.000020 0.000000 0.858322 -0.043245
C46   C     C_1   0.363415 0.500000 0.363774 -0.043155
C47   C     C_3   0.951617 0.003837 0.173275 -0.321900
C48   C     C_1   0.863415 0.000000 0.363774 -0.043157
C49   C     C_1   0.321096 0.500000 0.321389 -0.036474
C50   C     C_1   0.821096 0.000000 0.321389 -0.036478
C51   C     C_1   0.270936 0.500000 0.271154 0.001618
C52   C     C_1   0.770936 0.000000 0.271154 0.001613
C53   C     C_R   0.414458 0.500000 0.414897 0.550901
C54   C     C_R   0.914458 0.000000 0.414897 0.550902
C55   C     C_1   0.228617 0.500000 0.228776 0.001850
C56   C     C_1   0.728617 0.000000 0.228776 0.001844
C57   C     C_1   0.178456 0.500000 0.178553 -0.034832
C58   C     C_3   0.451332 0.500907 0.223071 -0.256613
C59   C     C_1   0.678456 0.000000 0.178553 -0.034838
C60   C     C_1   0.136137 0.500000 0.136191 -0.039633
C61   C     C_1   0.636137 0.000000 0.136191 -0.039638
C62   C     C_R   0.500034 0.585446 0.994569 0.549752
C63   C     C_R   0.500034 0.414554 0.994570 0.549876
C64   C     C_R   0.000034 0.085446 0.994568 0.549589
C65   C     C_R   0.000034 0.914554 0.994571 0.550068
C66   C     C_R   0.500027 0.499994 0.074825 0.565224
C67   C     C_R   0.000027 0.000016 0.074824 0.565254
C68   C     C_R   0.500027 0.500000 0.908666 0.544496
C69   C     C_3   0.951488 0.003853 0.223230 -0.256612
C70   C     C_R   0.000027 1.000000 0.908666 0.544498
C71   C     C_R   0.000016 0.414863 0.999130 0.547687
C72   C     C_R   0.000016 0.585137 0.999132 0.547684
C73   C     C_R   0.500016 0.914863 0.999130 0.547697
C74   C     C_R   0.500016 0.085137 0.999131 0.547675
C75   C     C_R   0.914874 0.500000 0.914882 0.547839
C76   C     C_R   0.414874 1.000000 0.914882 0.547840
C77   C     C_R   0.085095 0.500000 0.085122 0.547732
C78   C     C_R   0.585095 0.000000 0.085122 0.547732
C79   C     C_1   0.500049 0.636497 0.995410 -0.043991
C80   C     C_1   0.500432 0.499948 0.158717 -0.008431
C81   C     C_1   0.500049 0.363504 0.995412 -0.043917
C82   C     C_1   0.000049 0.136497 0.995408 -0.044068
C83   C     C_1   0.000049 0.863504 0.995413 -0.043816
C84   C     C_R   0.499974 0.500000 0.584943 0.545424
C85   C     C_R   0.999974 0.000001 0.584943 0.545423
C86   C     C_1   0.500052 0.678819 0.996135 -0.037388
C87   C     C_1   0.500052 0.321181 0.996138 -0.037394
C88   C     C_1   0.000052 0.178819 0.996133 -0.037399
C89   C     C_1   0.000053 0.821181 0.996140 -0.037369
C90   C     C_1   0.500049 0.728987 0.996992 0.000809
C91   C     C_1   0.000431 0.999968 0.158715 -0.008429
C92   C     C_1   0.500050 0.271013 0.996996 0.000761
C93   C     C_1   0.000049 0.228987 0.996991 0.000819
C94   C     C_1   0.000050 0.771014 0.996998 0.000758
C95   C     C_1   0.000044 0.271309 0.997684 0.001344
C96   C     C_1   0.000045 0.728691 0.997691 0.001292
C97   C     C_1   0.500044 0.771309 0.997686 0.001342
C98   C     C_1   0.500044 0.228691 0.997690 0.001288
C99   C     C_1   0.000035 0.321479 0.998428 -0.035000
C100  C     C_1   0.000036 0.678521 0.998434 -0.035036
C101  C     C_1   0.500036 0.821479 0.998429 -0.034994
C102  C     C_1   0.500471 0.499990 0.335773 -0.076604
C103  C     C_1   0.500036 0.178521 0.998433 -0.035049
C104  C     C_1   0.000027 0.363806 0.998909 -0.039671
C105  C     C_1   0.000027 0.636195 0.998913 -0.039694
C106  C     C_1   0.500027 0.863805 0.998909 -0.039662
C107  C     C_1   0.500027 0.136195 0.998913 -0.039709
C108  C     C_3   0.526563 0.542287 0.298668 -0.178989
C109  C     C_3   0.524945 0.456705 0.297069 -0.178969
C110  C     C_3   0.029075 0.040627 0.301190 -0.179060
C111  C     C_3   0.022303 0.955298 0.294413 -0.178897
C112  C     C_3   0.524360 0.455758 0.246130 0.209741
Cu1   Cu    Cu3+1 0.499970 0.542470 0.500570 0.946665
Cu2   Cu    Cu3+1 0.499990 1.000000 0.958110 0.952927
Cu3   Cu    Cu3+1 0.999980 0.500000 0.041890 0.945551
Cu4   Cu    Cu3+1 0.499980 0.000000 0.041890 0.945541
Cu5   Cu    Cu3+1 0.499970 0.457530 0.500570 0.946550
Cu6   Cu    Cu3+1 0.999970 0.042470 0.500570 0.946580
Cu7   Cu    Cu3+1 0.999970 0.957530 0.500570 0.946651
Cu8   Cu    Cu3+1 0.542500 0.500000 0.035600 0.960391
Cu9   Cu    Cu3+1 0.042500 0.000000 0.035600 0.960335
Cu10  Cu    Cu3+1 0.457550 0.500000 0.950640 0.943566
Cu11  Cu    Cu3+1 0.957550 1.000000 0.950640 0.943559
Cu12  Cu    Cu3+1 0.999990 0.500000 0.958110 0.952947
H1    H     H_    0.562164 0.541784 0.346587 0.154587
H2    H     H_    0.505774 0.573265 0.216575 0.072841
H3    H     H_    0.998501 0.926492 0.209338 0.072934
H4    H     H_    0.010098 0.072832 0.220947 0.072875
H5    H     H_    0.433447 0.531779 0.217265 0.134003
H6    H     H_    0.432306 0.470715 0.216102 0.133918
H7    H     H_    0.935506 0.035756 0.219314 0.134059
H8    H     H_    0.930672 0.974874 0.214484 0.133875
H9    H     H_    0.433562 0.531764 0.143077 0.117962
H10   H     H_    0.432342 0.470832 0.141835 0.118009
H11   H     H_    0.935559 0.035674 0.145065 0.117877
H12   H     H_    0.560558 0.455907 0.344953 0.154674
H13   H     H_    0.930749 0.974920 0.140259 0.118077
H14   H     H_    0.583054 0.608765 0.315499 0.096545
H15   H     H_    0.567150 0.607675 0.242144 0.111608
H16   H     H_    0.622622 0.589647 0.314608 0.155985
H17   H     H_    0.562689 0.389371 0.238120 0.111200
H18   H     H_    0.578971 0.388151 0.311758 0.096797
H19   H     H_    0.618920 0.405425 0.310838 0.156052
H20   H     H_    0.089556 0.103528 0.322254 0.096633
H21   H     H_    0.073353 0.103770 0.248664 0.111449
H22   H     H_    0.127699 0.082303 0.319652 0.155971
H23   H     H_    0.064590 0.037950 0.348993 0.154538
H24   H     H_    0.056068 0.886100 0.231179 0.111294
H25   H     H_    0.072043 0.883580 0.304550 0.096788
H26   H     H_    0.113113 0.898624 0.304959 0.156087
H27   H     H_    0.057793 0.952329 0.342196 0.154734
H28   H     H_    0.507603 0.425797 0.292433 0.078491
H29   H     H_    0.510361 0.573835 0.295110 0.078553
H30   H     H_    0.003108 0.925491 0.287890 0.078518
H31   H     H_    0.014829 0.073089 0.299627 0.078514
H32   H     H_    0.502845 0.426494 0.213728 0.072969
O1    O     O_R   0.561950 0.535860 0.562460 -0.483545
O2    O     O_R   0.500010 0.061990 0.963800 -0.481701
O3    O     O_R   0.000000 0.438000 0.034540 -0.482735
O4    O     O_R   0.000000 0.562000 0.034540 -0.482765
O5    O     O_R   0.500000 0.938000 0.034540 -0.482747
O6    O     O_R   0.500000 0.062000 0.034540 -0.482752
O7    O     O_R   0.938010 0.500000 0.902650 -0.481136
O8    O     O_R   0.438010 1.000000 0.902650 -0.481141
O9    O     O_R   0.938010 0.500000 0.973390 -0.483093
O10   O     O_R   0.438010 0.000000 0.973390 -0.483090
O11   O     O_R   0.061960 0.500000 0.026610 -0.481372
O12   O     O_R   0.561950 0.464140 0.562460 -0.483526
O13   O     O_R   0.561960 0.000000 0.026610 -0.481372
O14   O     O_R   0.061960 0.500000 0.097350 -0.483069
O15   O     O_R   0.561960 0.000000 0.097350 -0.483071
O16   O     O_R   0.499980 0.535870 0.439370 -0.496317
O17   O     O_R   0.499980 0.464130 0.439370 -0.496337
O18   O     O_R   0.999980 0.035870 0.439370 -0.496325
O19   O     O_R   0.999980 0.964130 0.439370 -0.496326
O20   O     O_R   0.438000 0.535860 0.438500 -0.483581
O21   O     O_R   0.438000 0.464140 0.438500 -0.483637
O22   O     O_R   0.938000 0.035860 0.438500 -0.483590
O23   O     O_R   0.061950 0.035860 0.562460 -0.483592
O24   O     O_R   0.938000 0.964140 0.438500 -0.483627
O25   O     O_R   0.499970 0.535850 0.561590 -0.480451
O26   O     O_R   0.499970 0.464150 0.561590 -0.480488
O27   O     O_R   0.999970 0.035850 0.561590 -0.480467
O28   O     O_R   0.999970 0.964150 0.561590 -0.480471
O29   O     O_R   0.535890 0.561890 0.029840 -0.482998
O30   O     O_R   0.535890 0.438110 0.029840 -0.482792
O31   O     O_R   0.035890 0.061890 0.029840 -0.483242
O32   O     O_R   0.035890 0.938110 0.029840 -0.482538
O33   O     O_R   0.464160 0.561920 0.958100 -0.484086
O34   O     O_R   0.061950 0.964140 0.562460 -0.483479
O35   O     O_R   0.464160 0.438080 0.958100 -0.484143
O36   O     O_R   0.964160 0.061920 0.958100 -0.484068
O37   O     O_R   0.964160 0.938080 0.958100 -0.484167
O38   O     O_R   0.535890 0.500000 0.090110 -0.481366
O39   O     O_R   0.035890 0.000000 0.090110 -0.481420
O40   O     O_R   0.464150 0.500000 0.018360 -0.502655
O41   O     O_R   0.964150 0.000000 0.018360 -0.502645
O42   O     O_R   0.535900 0.500000 0.967880 -0.482415
O43   O     O_R   0.035900 0.000000 0.967880 -0.482415
O44   O     O_3   0.571190 0.544549 0.276533 -0.503343
O45   O     O_R   0.464160 0.500000 0.896130 -0.481897
O46   O     O_3   0.569343 0.452548 0.274635 -0.503357
O47   O     O_3   0.073697 0.040322 0.279003 -0.503259
O48   O     O_3   0.066432 0.948589 0.271744 -0.503454
O49   O     O_R   0.964160 0.000000 0.896130 -0.481898
O50   O     O_R   0.000010 0.438010 0.963800 -0.481688
O51   O     O_R   0.000010 0.561990 0.963800 -0.481678
O52   O     O_R   0.500010 0.938010 0.963800 -0.481668

loop_
_geom_bond_atom_site_label_1
_geom_bond_atom_site_label_2
_ccdc_geom_bond_type
C62   O33   A    
C9    C111  S    
Cu2   O13   S    
C71   C104  S    
C14   H18   S    
C70   O43   A    
C16   H26   S    
C34   C37   T    
C11   C47   S    
C24   C27   S    
C112  O46   S    
C36   H9    S    
C47   H11   S    
C3    H2    S    
C92   C98   T    
Cu10  O35   S    
C39   C41   T    
Cu6   O27   S    
C70   O49   A    
C48   C54   S    
C46   C49   T    
C1    C18   S    
C13   C102  T    
C63   C81   S    
Cu10  O45   S    
C13   C29   S    
C84   O25   A    
C19   C21   T    
C9    C69   S    
C5    C11   S    
C36   C58   S    
C25   O34   A    
C44   C68   S    
C95   C99   S    
C65   C83   S    
C76   O10   A    
C5    C110  S    
Cu5   O12   S    
C98   C103  S    
C96   C100  S    
C101  C106  T    
Cu11  O49   S    
C75   O7    A    
C23   C26   T    
C89   C94   S    
C63   O35   A    
Cu6   Cu7   S    
Cu9   O43   S    
C73   O5    A    
C110  H31   S    
C8    C58   S    
C74   C107  S    
C88   C93   S    
C6    C80   T    
C71   O50   A    
C47   C69   S    
C108  H29   S    
Cu8   Cu10  S    
C77   O14   A    
C49   C51   S    
C50   C52   S    
C12   H16   S    
C10   C112  S    
C16   H25   S    
C108  H1    S    
Cu1   O16   S    
C90   C97   T    
C18   C20   T    
Cu11  O41   S    
Cu12  O7    S    
Cu7   O19   S    
Cu6   O23   S    
C48   C50   T    
C99   C104  T    
C68   O45   A    
C14   H17   S    
C85   O27   A    
C87   C92   S    
Cu8   O29   S    
C2    C17   T    
C17   C30   S    
C41   C43   S    
Cu4   O10   S    
C42   C44   T    
Cu3   O14   S    
C67   O39   A    
C8    C108  S    
C66   O38   A    
Cu5   O21   S    
C72   O51   A    
C65   O37   A    
Cu8   O42   S    
C12   O44   S    
C83   C89   T    
Cu1   O25   S    
C60   C77   S    
C59   C61   T    
C74   O2    A    
C27   C31   T    
C62   C79   S    
C28   C32   T    
C109  H28   S    
C31   C75   S    
C33   C84   S    
C86   C90   S    
C109  C112  S    
Cu10  O40   S    
C15   H21   S    
C10   C80   S    
Cu5   O26   S    
C57   C60   T    
C1    O12   A    
C64   O36   A    
C7    C67   S    
C78   O13   A    
Cu8   O38   S    
C54   O22   A    
Cu4   O15   S    
Cu8   O30   S    
Cu2   Cu4   S    
C10   C36   S    
C34   C85   S    
Cu2   O52   S    
Cu9   O39   S    
C32   C76   S    
Cu7   O34   S    
Cu9   O31   S    
Cu12  O11   S    
Cu4   O5    S    
Cu2   O8    S    
C61   C78   S    
C69   H7    S    
C63   O30   A    
C7    C91   T    
C35   C38   S    
C46   C53   S    
C3    O44   S    
C100  C105  T    
C12   H15   S    
C111  H27   S    
C1    O1    A    
C75   O9    A    
Cu2   O2    S    
C4    C11   S    
C94   C96   T    
C47   H13   S    
C43   C45   T    
C64   C82   S    
C81   C87   T    
Cu1   O20   S    
Cu1   Cu5   S    
Cu6   O22   S    
C4    C111  S    
C20   C22   S    
C85   O28   A    
C55   C57   S    
Cu12  O51   S    
C22   C24   T    
C76   O8    A    
Cu3   O9    S    
Cu7   O24   S    
C110  H23   S    
C30   O19   A    
C68   O42   A    
Cu10  O33   S    
C74   O6    A    
Cu5   O17   S    
C9    C110  S    
C14   H19   S    
Cu3   Cu12  S    
C4    H3    S    
Cu12  O50   S    
C45   C70   S    
C26   C28   S    
C84   O26   A    
C73   O52   A    
C29   O17   A    
C67   O41   A    
C36   H10   S    
C5    O47   S    
C15   H22   S    
C66   O40   A    
C25   O23   A    
C3    C108  S    
C77   O11   A    
C71   O3    A    
C12   H14   S    
C72   O4    A    
C56   C59   S    
Cu3   O4    S    
C16   H24   S    
C21   C23   S    
Cu4   O6    S    
C37   C39   S    
C3    C10   S    
C65   O32   A    
C8    C109  S    
Cu9   O32   S    
C38   C40   T    
C73   C106  S    
C53   O21   A    
C58   H6    S    
C69   H8    S    
C82   C88   T    
C14   O46   S    
C5    H4    S    
C40   C42   S    
C78   O15   A    
C33   C35   T    
C54   O24   A    
C51   C55   T    
Cu7   O28   S    
C29   O16   A    
C19   C25   S    
C111  H30   S    
Cu9   Cu11  S    
C64   O31   A    
C4    O48   S    
C62   O29   A    
C15   H20   S    
C11   C91   S    
C6    C66   S    
C72   C105  S    
Cu6   O18   S    
C93   C95   T    
C112  H32   S    
Cu3   O3    S    
Cu11  O37   S    
C103  C107  T    
C15   O47   S    
C58   H5    S    
Cu1   O1    S    
Cu11  O36   S    
C16   O48   S    
C2    C9    S    
C8    C102  S    
C30   O18   A    
C79   C86   T    
C97   C101  S    
C52   C56   T    
C53   O20   A    
C109  H12   S    
