data_mof_unit_59281.cif
_audit_creation_date              2012-12-10T17:53:05-0500
_audit_creation_method            fapswitch 2.2
_symmetry_space_group_name_H-M    P1
_symmetry_Int_Tables_number       1
_space_group_crystal_system       triclinic
_cell_length_a                    14.693188
_cell_length_b                    14.610668
_cell_length_c                    27.750251
_cell_angle_alpha                 76.728068
_cell_angle_beta                  102.708403
_cell_angle_gamma                 114.583086
_cell_volume                      5220.2657148

loop_
_atom_site_label
_atom_site_type_symbol
_atom_type_description
_atom_site_fract_x
_atom_site_fract_y
_atom_site_fract_z
_atom_type_partial_charge
C1    C     C_R   0.880689 0.311615 0.506737 0.792248
C2    C     C_R   0.119140 0.688117 0.493975 0.790383
C3    C     C_R   0.987711 0.510115 0.895850 -0.040577
C4    C     C_R   0.985667 0.502882 0.099587 -0.039919
C5    C     C_R   0.950538 0.416098 0.878074 -0.013168
C6    C     C_R   0.058333 0.585347 0.122935 -0.008482
C7    C     C_R   0.909118 0.324751 0.910101 -0.125768
C8    C     C_R   0.124833 0.668828 0.094815 -0.126292
C9    C     C_R   0.031711 0.602554 0.863840 -0.071634
C10   C     C_R   0.920623 0.416685 0.128237 -0.077845
C11   C     C_R   0.997368 0.500022 0.645369 -0.034768
C12   C     C_R   0.001122 0.500956 0.354301 -0.035070
C13   C     C_R   0.914598 0.421062 0.024798 0.016775
C14   C     C_R   0.026323 0.602773 0.965675 0.009746
C15   C     C_R   0.040102 0.596306 0.018575 0.082157
C16   C     C_R   0.929312 0.418444 0.976282 0.085816
C17   C     C_R   0.979684 0.506742 0.047626 0.044772
C18   C     C_R   0.980969 0.510708 0.945867 0.052688
C19   C     C_R   0.838711 0.341519 0.051310 -0.046054
C20   C     C_R   0.057701 0.696452 0.932207 -0.078969
C21   C     C_R   0.844640 0.336628 0.103500 -0.066890
C22   C     C_R   0.065061 0.696511 0.882095 -0.073068
C23   C     C_R   0.999355 0.499948 0.592521 0.808647
C24   C     C_R   0.000528 0.500159 0.407443 0.810432
C25   C     C_R   0.899359 0.325880 0.958526 -0.131528
C26   C     C_R   0.116724 0.673578 0.043607 -0.140140
C27   C     C_R   0.813919 0.202331 0.509070 -0.144277
C28   C     C_R   0.185482 0.796340 0.495750 -0.142447
C29   C     C_R   0.779181 0.023137 0.513341 -0.150500
C30   C     C_R   0.221239 0.970635 0.503621 -0.153763
C31   C     C_R   0.848605 0.124394 0.510268 -0.016686
C32   C     C_R   0.151143 0.870702 0.500961 -0.018704
C33   C     C_R   0.710981 0.176424 0.509831 -0.236092
C34   C     C_R   0.288488 0.823871 0.494697 -0.233229
C35   C     C_R   0.640274 0.075421 0.511399 0.094000
C36   C     C_R   0.360318 0.921201 0.502256 0.094110
C37   C     C_R   0.676253 0.998614 0.512970 0.108812
C38   C     C_R   0.324619 0.995759 0.505006 0.107918
C39   C     C_R   0.534742 0.048978 0.510165 0.075257
C40   C     C_R   0.466317 0.946400 0.506990 0.073998
C41   C     C_R   0.506246 0.871805 0.510216 -0.208921
C42   C     C_R   0.495276 0.121185 0.512385 -0.205839
C43   C     C_R   0.609121 0.897695 0.513283 -0.204001
C44   C     C_R   0.392444 0.094585 0.510196 -0.207056
C45   C     C_R   0.955586 0.415199 0.828488 0.592095
C46   C     C_R   0.063329 0.582473 0.174129 0.593671
C47   C     C_R   0.717700 0.673159 0.419020 -0.290950
C48   C     C_R   0.282761 0.327547 0.581426 -0.288354
C49   C     C_R   0.798160 0.641479 0.431063 0.083723
C50   C     C_R   0.201791 0.358496 0.568935 0.087825
C51   C     C_R   0.714457 0.508253 0.492701 0.006351
C52   C     C_R   0.286059 0.492425 0.507710 0.005535
C53   C     C_R   0.629315 0.536037 0.481936 -0.020153
C54   C     C_R   0.371740 0.465433 0.518963 -0.018505
C55   C     C_R   0.633406 0.621227 0.444448 0.153878
C56   C     C_R   0.367633 0.380255 0.556461 0.153882
C57   C     C_R   0.541578 0.483631 0.507028 0.082441
C58   C     C_R   0.459890 0.518410 0.494212 0.079854
C59   C     C_R   0.469301 0.605076 0.457263 -0.237887
C60   C     C_R   0.532578 0.397558 0.544325 -0.239497
C61   C     C_R   0.554019 0.654799 0.432844 -0.189686
C62   C     C_R   0.447623 0.347523 0.568557 -0.196434
C63   C     C_R   0.034422 0.596694 0.813744 0.591756
C64   C     C_R   0.932751 0.416108 0.180530 0.583091
C65   C     C_R   0.914246 0.514111 0.708899 0.029359
C66   C     C_R   0.929895 0.531088 0.266764 0.024280
C67   C     C_R   0.917620 0.513543 0.658918 -0.304214
C68   C     C_R   0.931121 0.529514 0.317519 -0.294723
C69   C     C_R   0.074613 0.486706 0.682544 -0.196897
C70   C     C_R   0.070960 0.473699 0.339831 -0.212374
C71   C     C_R   0.072620 0.487796 0.732347 -0.136536
C72   C     C_R   0.070183 0.474201 0.289450 -0.128247
C73   C     C_R   0.993424 0.501685 0.745896 0.354134
C74   C     C_R   0.000115 0.502290 0.252787 0.355533
Cu1   Cu    Cu3+1 0.081740 0.475690 0.513040 0.940358
Cu2   Cu    Cu3+1 0.918260 0.524310 0.486960 0.938841
H1    H     H_    0.136967 0.476116 0.673150 0.165834
H2    H     H_    0.125804 0.451463 0.367409 0.161786
H3    H     H_    0.804848 0.963134 0.513869 0.185980
H4    H     H_    0.195737 0.028346 0.507138 0.186688
H5    H     H_    0.460380 0.791697 0.511710 0.143664
H6    H     H_    0.541546 0.198881 0.517199 0.137759
H7    H     H_    0.557551 0.720765 0.404590 0.153536
H8    H     H_    0.444286 0.281826 0.596968 0.152699
H9    H     H_    0.281147 0.553961 0.478757 0.124063
H10   H     H_    0.719363 0.446587 0.521567 0.122080
H11   H     H_    0.135766 0.317183 0.587783 0.141221
H12   H     H_    0.863851 0.682326 0.411937 0.135907
H13   H     H_    0.412359 0.637063 0.446300 0.133583
H14   H     H_    0.590092 0.366364 0.555772 0.129525
H15   H     H_    0.877295 0.551363 0.328306 0.153622
H16   H     H_    0.857239 0.523200 0.630462 0.151122
H17   H     H_    0.636182 0.838069 0.515267 0.155498
H18   H     H_    0.365841 0.152130 0.512692 0.154858
N1    N     N_R   0.995312 0.504498 0.797456 -0.447666
N2    N     N_R   0.999822 0.499690 0.201387 -0.444906
N3    N     N_R   0.795430 0.560780 0.467350 -0.183159
N4    N     N_R   0.204570 0.439220 0.532650 -0.184781
O1    O     O_R   0.977900 0.338120 0.517190 -0.602330
O2    O     O_R   0.022100 0.661880 0.482810 -0.603076
O3    O     O_R   0.839850 0.379180 0.495160 -0.578006
O4    O     O_R   0.160150 0.620820 0.504840 -0.577302
O5    O     O_R   0.069030 0.479490 0.580750 -0.581120
O6    O     O_R   0.930970 0.520510 0.419250 -0.578978
O7    O     O_R   0.930970 0.520550 0.558720 -0.589686
O8    O     O_R   0.069030 0.479450 0.441280 -0.590470
O9    O     O_2   0.919660 0.325859 0.811008 -0.524373
O10   O     O_2   0.130272 0.662220 0.196549 -0.532286
O11   O     O_2   0.878831 0.333498 0.210699 -0.541402
O12   O     O_2   0.074051 0.681538 0.780988 -0.540555
H19   H     H_    0.310822 0.767397 0.487517 0.147840
H20   H     H_    0.687453 0.237679 0.507993 0.152658
C75   C     C_2   0.045089 0.846493 0.506712 0.391284
H21   H     H_    0.999239 0.772399 0.524927 0.094269
O13   O     O_2   0.008147 0.910675 0.492057 -0.507139
C76   C     C_2   0.954252 0.145490 0.505180 0.394088
H22   H     H_    0.998632 0.214959 0.482991 0.089902
O14   O     O_2   0.992465 0.083706 0.525022 -0.504891
H23   H     H_    0.721714 0.738445 0.390262 0.152763
H24   H     H_    0.278723 0.262262 0.610188 0.155951
H25   H     H_    0.133156 0.478276 0.760649 0.146925
H26   H     H_    0.123912 0.452196 0.278759 0.146070
H27   H     H_    0.883436 0.251709 0.897792 0.194535
H28   H     H_    0.183763 0.731016 0.112294 0.189196
C77   C     C_2   0.854437 0.563624 0.230133 0.394133
H29   H     H_    0.799037 0.579276 0.243489 0.068357
O15   O     O_2   0.853138 0.574606 0.185082 -0.524880
C78   C     C_2   0.826788 0.527511 0.720349 0.417438
H30   H     H_    0.770687 0.540789 0.690003 0.061132
O16   O     O_2   0.815131 0.523216 0.763131 -0.508772
C79   C     C_2   0.765864 0.252016 0.130721 0.432685
H31   H     H_    0.720702 0.268565 0.151046 0.119079
O17   O     O_2   0.752749 0.163542 0.131492 -0.532277
C80   C     C_2   0.105519 0.795609 0.849104 0.430582
H32   H     H_    0.175530 0.817327 0.834453 0.101701
O18   O     O_2   0.059955 0.852586 0.837622 -0.494808
C81   C     C_2   0.743605 0.274849 0.023612 0.353873
H33   H     H_    0.702330 0.197136 0.039860 0.125993
O19   O     O_2   0.708476 0.307877 0.982581 -0.499393
C82   C     C_2   0.071355 0.793693 0.947041 0.435162
H34   H     H_    0.129304 0.865094 0.933465 0.078554
O20   O     O_2   0.015563 0.795019 0.973417 -0.487793
H35   H     H_    0.870378 0.253280 0.982341 0.147661
H36   H     H_    0.173178 0.737143 0.024150 0.130564

loop_
_geom_bond_atom_site_label_1
_geom_bond_atom_site_label_2
_ccdc_geom_bond_type
C51   N3    A    
C66   C68   A    
Cu2   O6    S    
Cu2   O7    S    
C2    O2    A    
C70   H2    S    
C8    C26   A    
C14   C18   A    
C69   H1    S    
C42   H6    S    
C78   H30   S    
C1    O1    A    
C57   C58   A    
C47   C49   A    
C27   C33   A    
C81   O19   D    
C22   C80   S    
C52   H9    S    
C35   C37   A    
C82   O20   D    
C9    C22   A    
C29   C37   A    
C2    O4    A    
C23   O7    A    
C63   N1    A    
C16   C25   A    
C68   H15   S    
C65   C73   A    
C76   H22   S    
C30   C38   A    
C3    C18   A    
C60   C62   A    
C59   H13   S    
C11   C23   S    
C69   C71   A    
C21   C79   S    
C12   C70   A    
C43   H17   S    
C23   O5    A    
C52   C54   A    
C65   C67   A    
C46   O10   S    
Cu1   O4    S    
C32   C75   S    
C30   H4    S    
C48   C50   A    
C28   C34   A    
Cu1   O5    S    
C34   H19   S    
C41   C43   A    
C49   H12   S    
C25   H35   S    
C42   C44   A    
C26   H36   S    
C51   H10   S    
C11   C67   A    
C39   C42   A    
C53   C55   A    
C10   C21   A    
C54   C56   A    
C59   C61   A    
C50   N4    A    
C13   C19   A    
C27   C31   A    
C65   C78   S    
C14   C20   A    
C28   C32   A    
C82   H34   S    
C64   N2    A    
C4    C6    A    
C61   H7    S    
C39   C40   A    
C5    C7    A    
C53   C57   A    
C8    H28   S    
C15   C26   A    
C6    C8    A    
C3    C5    A    
C58   C59   A    
C5    C45   A    
C70   C72   A    
Cu1   N4    S    
C51   C53   A    
C37   C43   A    
C35   C39   A    
Cu1   Cu2   S    
C38   C44   A    
C3    C9    A    
C74   N2    S    
C12   C68   A    
C29   H3    S    
C36   C40   A    
C19   C81   S    
C41   H5    S    
Cu1   O1    S    
C33   H20   S    
C77   O15   D    
C50   H11   S    
C4    C17   A    
C72   C74   A    
C40   C41   A    
C20   C22   A    
C77   H29   S    
C56   C62   A    
C24   O8    A    
C73   N1    S    
C4    C10   A    
C79   H31   S    
C45   N1    A    
C1    O3    A    
C31   C76   S    
C47   H23   S    
C48   H24   S    
C47   C55   A    
C75   H21   S    
C54   C58   A    
Cu2   O3    S    
C48   C56   A    
C62   H8    S    
C6    C46   A    
C19   C21   A    
C9    C63   A    
C71   H25   S    
C10   C64   A    
C7    H27   S    
C79   O17   D    
C78   O16   D    
C80   O18   D    
C11   C69   A    
C15   C17   A    
C80   H32   S    
C60   H14   S    
Cu2   O2    S    
C81   H33   S    
C12   C24   S    
C7    C25   A    
C66   C77   S    
C72   H26   S    
C20   C82   S    
C63   O12   S    
C36   C38   A    
Cu2   N3    S    
C29   C31   A    
C30   C32   A    
C64   O11   S    
C55   C61   A    
C52   N4    A    
C67   H16   S    
C33   C35   A    
C76   O14   D    
C34   C36   A    
C44   H18   S    
C49   N3    A    
C13   C17   A    
C57   C60   A    
C46   N2    A    
Cu1   O8    S    
C16   C18   A    
C13   C16   A    
C71   C73   A    
C1    C27   S    
C14   C15   A    
C2    C28   S    
C24   O6    A    
C45   O9    S    
C75   O13   D    
C66   C74   A    
