data_mof_unit_21612.cif
_audit_creation_date              2012-12-11T17:41:39-0500
_audit_creation_method            fapswitch 2.2
_symmetry_space_group_name_H-M    P1
_symmetry_Int_Tables_number       1
_space_group_crystal_system       triclinic
_cell_length_a                    15.538986
_cell_length_b                    15.042316
_cell_length_c                    15.002432
_cell_angle_alpha                 109.80967
_cell_angle_beta                  121.196459
_cell_angle_gamma                 58.89644
_cell_volume                      2556.17541419

loop_
_atom_site_label
_atom_site_type_symbol
_atom_type_description
_atom_site_fract_x
_atom_site_fract_y
_atom_site_fract_z
_atom_type_partial_charge
C1    C     C_R   0.803453 0.936990 0.772408 -0.224068
C2    C     C_R   0.233733 0.399819 0.165452 -0.108380
C3    C     C_R   0.673092 0.815114 0.945737 -0.119403
C4    C     C_R   0.327606 0.320221 0.151093 -0.138397
C5    C     C_R   0.696781 0.901107 0.005247 0.095984
C6    C     C_R   0.316494 0.249389 0.060640 0.114801
C7    C     C_R   0.807391 0.888655 0.056386 -0.172304
C8    C     C_R   0.209315 0.260523 0.984062 -0.174837
C9    C     C_R   0.892309 0.792357 0.045280 -0.097720
C10   C     C_R   0.115539 0.340495 0.998495 -0.110739
C11   C     C_R   0.867633 0.707871 0.983907 -0.118662
C12   C     C_R   0.241050 0.010592 0.208581 -0.207718
C13   C     C_R   0.127735 0.409981 0.089172 -0.104957
C14   C     C_R   0.607965 0.032682 0.114774 -0.241199
C15   C     C_R   0.419762 0.143808 0.950175 -0.244441
C16   C     C_R   0.198779 0.273960 0.440155 -0.143635
C17   C     C_R   0.758605 0.709834 0.510554 -0.140020
C18   C     C_R   0.509837 0.100865 0.126915 0.045327
C19   C     C_R   0.510440 0.059682 0.933128 0.068914
C20   C     C_R   0.416690 0.163957 0.046610 0.035179
C21   C     C_R   0.606090 0.003011 0.017047 0.028404
C22   C     C_2   0.019498 0.345440 0.458689 -0.220274
C23   C     C_R   0.134997 0.273070 0.478534 0.098836
C24   C     C_2   0.857832 0.600511 0.392325 -0.212067
C25   C     C_2   0.959734 0.414795 0.388870 -0.101062
C26   C     C_2   0.867130 0.509977 0.400563 -0.102888
C27   C     C_2   0.985101 0.949379 0.840191 -0.133609
C28   C     C_2   0.139885 0.894187 0.099674 -0.135197
C29   C     C_R   0.293654 0.870528 0.739611 -0.141502
C30   C     C_R   0.713246 0.216258 0.373387 -0.128788
C31   C     C_R   0.374284 0.779252 0.714735 -0.144943
C32   C     C_R   0.638379 0.294880 0.414263 -0.111864
C33   C     C_R   0.343962 0.704735 0.633978 0.103963
C34   C     C_R   0.793729 0.699148 0.437399 0.096802
C35   C     C_R   0.677204 0.338233 0.518416 0.102927
C36   C     C_R   0.231346 0.722885 0.579581 -0.150858
C37   C     C_R   0.792252 0.303260 0.580485 -0.156391
C38   C     C_R   0.150933 0.814188 0.604973 -0.046025
C39   C     C_R   0.866912 0.224701 0.539345 -0.028101
C40   C     C_R   0.593388 0.229533 0.556265 -0.096682
C41   C     C_R   0.411422 0.784190 0.519725 -0.027978
C42   C     C_R   0.182046 0.887995 0.684768 -0.070976
C43   C     C_R   0.827497 0.181031 0.435949 -0.038183
C44   C     C_R   0.429589 0.512042 0.589788 -0.239625
C45   C     C_R   0.502708 0.324219 0.537833 0.019999
C46   C     C_R   0.601382 0.519627 0.583080 -0.234904
C47   C     C_R   0.510320 0.421721 0.563411 0.075265
C48   C     C_R   0.514261 0.611540 0.596812 0.070623
C49   C     C_R   0.597678 0.425480 0.560299 0.014855
C50   C     C_R   0.429920 0.608956 0.606249 0.033097
C51   C     C_2   0.042841 0.883272 0.912765 -0.130746
C52   C     C_2   0.133310 0.898378 0.008768 -0.140840
C53   C     C_R   0.409058 0.043805 0.733976 -0.133283
C54   C     C_R   0.591754 0.024129 0.291918 -0.090757
C55   C     C_R   0.408259 0.306667 0.472451 -0.135576
C56   C     C_R   0.505242 0.703772 0.576381 0.006485
C57   C     C_R   0.594338 0.714668 0.593494 -0.146038
C58   C     C_R   0.594187 0.976934 0.805302 -0.111654
C59   C     C_R   0.409116 0.090065 0.211643 -0.130860
C60   C     C_R   0.197083 0.183511 0.529170 0.040659
C61   C     C_R   0.762291 0.799583 0.421211 0.064299
C62   C     C_R   0.805890 0.024422 0.681192 0.405585
C63   C     C_R   0.233245 0.924039 0.297749 0.444528
C64   C     C_R   0.868374 0.972190 0.769589 0.051621
C65   C     C_R   0.203834 0.939736 0.197957 0.038321
C66   C     C_R   0.503799 0.031073 0.828126 0.032131
C67   C     C_R   0.501757 0.078140 0.208607 0.031524
C68   C     C_R   0.758113 0.719187 0.934328 -0.123398
Cl1   Cl    Cl    0.863935 0.040506 0.617047 -0.788457
Cl2   Cl    Cl    0.177121 0.866325 0.325012 -0.759849
H1    H     H_    0.830954 0.880536 0.821383 0.124955
H2    H     H_    0.408959 0.313670 0.210173 0.104540
H3    H     H_    0.827431 0.953682 0.103768 0.133425
H4    H     H_    0.198271 0.206504 0.913990 0.107303
H5    H     H_    0.977271 0.783138 0.084282 0.137854
H6    H     H_    0.033375 0.348348 0.939507 0.108204
H7    H     H_    0.681430 0.985938 0.176349 0.132413
H8    H     H_    0.349565 0.190934 0.887096 0.127606
H9    H     H_    0.820518 0.507318 0.433307 0.130806
H10   H     H_    0.990681 0.412102 0.337241 0.126690
H11   H     H_    0.907454 0.600560 0.361458 0.126137
H12   H     H_    0.228738 0.043851 0.147219 0.124252
H13   H     H_    0.987702 0.349678 0.510455 0.128678
H14   H     H_    0.119742 0.958712 0.704134 0.148343
H15   H     H_    0.885436 0.120002 0.404339 0.114432
H16   H     H_    0.171952 0.324677 0.385629 0.094081
H17   H     H_    0.771586 0.648581 0.544354 0.099676
H18   H     H_    0.317770 0.927708 0.801414 0.115205
H19   H     H_    0.682719 0.183073 0.293114 0.115355
H20   H     H_    0.460374 0.766698 0.758037 0.108113
H21   H     H_    0.550270 0.322581 0.365258 0.104687
H22   H     H_    0.205459 0.667356 0.516457 0.114238
H23   H     H_    0.090932 0.863365 0.101004 0.160640
H24   H     H_    0.823864 0.336574 0.660670 0.107761
H25   H     H_    0.064378 0.827924 0.562442 0.140105
H26   H     H_    0.955254 0.197120 0.588006 0.098985
H27   H     H_    0.365881 0.506733 0.595898 0.130045
H28   H     H_    0.665614 0.521234 0.574405 0.125741
H29   H     H_    0.678912 0.215329 0.606182 0.160747
H30   H     H_    0.328456 0.806960 0.507588 0.174272
H31   H     H_    0.324161 0.081276 0.723570 0.111040
H32   H     H_    0.674816 0.018090 0.324869 0.120479
H33   H     H_    0.323137 0.363906 0.440262 0.100186
H34   H     H_    0.018451 0.998708 0.842410 0.150661
H35   H     H_    0.680038 0.674392 0.646803 0.096034
H36   H     H_    0.680040 0.958342 0.857708 0.120832
H37   H     H_    0.323247 0.136047 0.164000 0.113936
H38   H     H_    0.180619 0.930063 0.005796 0.136691
H39   H     H_    0.010363 0.834271 0.912416 0.132736
H40   H     H_    0.125320 0.187885 0.610638 0.068970
H41   H     H_    0.084755 0.130005 0.487154 0.127949
H42   H     H_    0.826301 0.761889 0.317068 0.095115
H43   H     H_    0.847736 0.857642 0.411866 0.135163
H44   H     H_    0.933450 0.633512 0.975200 0.110085
H45   H     H_    0.055076 0.471684 0.100305 0.105312
H46   H     H_    0.739110 0.653597 0.887284 0.110183
H47   H     H_    0.243224 0.453677 0.235674 0.117621
H48   H     H_    0.588730 0.822961 0.907954 0.104478
N1    N     N_R   0.705410 0.966550 0.689210 -0.063701
N2    N     N_R   0.556610 0.796750 0.548620 -0.042970
N3    N     N_R   0.556610 0.951620 0.703500 -0.042928
N4    N     N_R   0.443390 0.048380 0.296500 -0.043237
N5    N     N_R   0.294590 0.131500 0.522480 -0.049934
N6    N     N_R   0.705410 0.868500 0.477520 -0.046372
N7    N     N_R   0.705410 0.023370 0.632390 -0.080750
N8    N     N_R   0.294590 0.976630 0.367610 -0.085423
N9    N     N_3   0.153453 0.136629 0.554357 -0.211284
N10   N     N_3   0.789072 0.827704 0.359761 -0.219328
N11   N     N_R   0.294590 0.033450 0.310790 -0.065396
N12   N     N_R   0.294590 0.188320 0.465660 -0.051838
N13   N     N_R   0.705410 0.811680 0.534340 -0.053136
N14   N     N_R   0.556610 0.157790 0.497330 -0.036562
N15   N     N_R   0.443390 0.842210 0.502670 -0.047682
N16   N     N_R   0.443390 0.997080 0.657540 -0.038936
N17   N     N_R   0.556610 0.002920 0.342460 -0.038559
N18   N     N_R   0.443390 0.203250 0.451380 -0.041778
Ni1   Ni    Ni4+2 0.629830 0.882720 0.617850 0.204419
Ni2   Ni    Ni4+2 0.370170 0.117280 0.382150 0.205429
Ni3   Ni    Ni4+2 0.629830 0.013030 0.487540 0.261223
Ni4   Ni    Ni4+2 0.370170 0.986970 0.512460 0.245707

loop_
_geom_bond_atom_site_label_1
_geom_bond_atom_site_label_2
_ccdc_geom_bond_type
C57   H35   S    
C63   C65   A    
C29   C42   A    
C17   N13   A    
C25   H10   S    
C14   C18   A    
N6    Ni3   S    
C3    C68   A    
C40   H29   S    
C41   N15   A    
C47   C49   A    
H43   N10   S    
N7    Ni3   S    
N14   Ni3   S    
N17   Ni3   S    
C46   C49   A    
N8    Ni4   S    
C1    H1    S    
C61   N6    A    
C14   C21   A    
C35   C37   A    
C24   C26   D    
C38   C42   A    
N16   Ni4   S    
C8    C10   A    
C15   H8    S    
C55   N18   A    
C55   H33   S    
C27   H34   S    
C33   C36   A    
C56   C57   A    
C19   C66   S    
C48   C56   S    
N2    N15   A    
C1    N1    A    
C14   H7    S    
N3    Ni1   S    
C2    C13   A    
C11   H44   S    
C29   H18   S    
C62   C64   A    
C59   C67   A    
C15   C19   A    
C10   H6    S    
C58   C66   A    
N11   Ni2   S    
C53   H31   S    
C22   C25   D    
C38   H25   S    
C35   C49   S    
C31   C33   A    
N3    N16   A    
C16   N12   A    
C44   C47   A    
H40   N9    S    
C36   H22   S    
C59   N4    A    
C48   C50   A    
C40   N14   A    
C51   H39   S    
C16   H16   S    
C23   C60   A    
C30   H19   S    
C2    H47   S    
C27   C51   D    
C45   C47   S    
C40   C45   A    
N4    N17   A    
C46   C48   A    
C12   N11   A    
C51   C52   S    
N1    Ni1   S    
C32   C35   A    
C42   H14   S    
N4    Ni2   S    
N18   Ni2   S    
C5    C7    A    
C39   C43   A    
C54   C67   A    
N8    N11   A    
C25   C26   S    
N5    Ni4   S    
C34   C61   A    
C59   H37   S    
N6    N13   A    
C15   C20   A    
C58   H36   S    
C43   H15   S    
C60   N5    A    
C2    C4    A    
C24   H11   S    
C41   C56   A    
N13   Ni1   S    
C3    H48   S    
C44   H27   S    
C63   Cl2   S    
N14   N18   A    
C31   H20   S    
C7    H3    S    
C8    H4    S    
C41   H30   S    
C12   H12   S    
C53   C66   A    
C9    C11   A    
C45   C55   A    
C13   H45   S    
C68   H46   S    
C57   N2    A    
C62   Cl1   S    
C4    C6    A    
C16   C23   A    
N5    N12   A    
H41   N9    S    
C30   C43   A    
C17   C34   A    
N12   Ni2   S    
C1    C64   A    
N1    N7    A    
C4    H2    S    
C11   C68   A    
C44   C50   A    
C7    C9    A    
C58   N3    A    
C19   C21   A    
C17   H17   S    
C54   H32   S    
C60   N9    S    
C53   N16   A    
C3    C5    A    
C10   C13   A    
C62   N7    A    
C6    C8    A    
C6    C20   S    
C12   C65   A    
C26   H9    S    
C22   H13   S    
C36   C38   A    
C28   C65   S    
C33   C50   S    
C29   C31   A    
C30   C32   A    
C28   C52   D    
C54   N17   A    
C37   H24   S    
C61   N10   S    
C18   C20   A    
C46   H28   S    
C24   C34   S    
C39   H26   S    
H42   N10   S    
C63   N8    A    
C27   C64   S    
C32   H21   S    
C5    C21   S    
C52   H38   S    
N15   Ni4   S    
C37   C39   A    
C18   C67   S    
C22   C23   S    
C28   H23   S    
N2    Ni1   S    
C9    H5    S    
