data_mof_unit_23280.cif
_audit_creation_date              2012-10-26T20:03:37-0400
_audit_creation_method            fapswitch 2.2
_symmetry_space_group_name_H-M    P1
_symmetry_Int_Tables_number       1
_space_group_crystal_system       triclinic
_cell_length_a                    12.420238
_cell_length_b                    13.258309
_cell_length_c                    15.856244
_cell_angle_alpha                 76.885427
_cell_angle_beta                  101.493151
_cell_angle_gamma                 116.878602
_cell_volume                      2254.15421616

loop_
_atom_site_label
_atom_site_type_symbol
_atom_type_description
_atom_site_fract_x
_atom_site_fract_y
_atom_site_fract_z
_atom_type_partial_charge
C1    C     C_R   0.854748 0.287004 0.515755 0.556273
C2    C     C_R   0.229266 0.836971 0.475760 -0.039181
C3    C     C_R   0.789518 0.124439 0.635764 0.247569
C4    C     C_R   0.999745 0.499373 0.659888 0.561997
C5    C     C_R   0.689219 0.044801 0.680059 0.229797
C6    C     C_R   0.573380 0.006685 0.635381 -0.062790
C7    C     C_R   0.554348 0.034027 0.544282 0.011727
C8    C     C_R   0.652888 0.121217 0.500798 -0.032793
C9    C     C_R   0.437393 0.985792 0.496598 0.006000
C10   C     C_R   0.415200 0.045768 0.413565 -0.042769
C11   C     C_R   0.513864 0.132015 0.371509 -0.115024
C12   C     C_3   0.999371 0.497896 0.917126 0.005115
C13   C     C_R   0.631250 0.164457 0.412754 -0.091625
C14   C     C_R   0.345381 0.876149 0.524586 0.174374
C15   C     C_R   0.202294 0.911588 0.404751 0.243331
C16   C     C_R   0.145307 0.713774 0.489010 0.594309
C17   C     C_R   0.769813 0.169113 0.547349 0.015719
C18   C     C_R   0.338232 0.312456 0.623127 -0.069765
C19   C     C_R   0.760616 0.644073 0.381276 0.062153
C20   C     C_R   0.662935 0.671588 0.350839 -0.140578
C21   C     C_R   0.558528 0.615788 0.393279 -0.076823
C22   C     C_R   0.551785 0.533972 0.469235 0.033716
C23   C     C_3   0.056959 0.607846 0.016402 -0.089160
C24   C     C_R   0.652733 0.504933 0.495125 0.177714
C25   C     C_R   0.447251 0.474937 0.517471 0.031393
C26   C     C_R   0.441590 0.379394 0.581124 -0.047862
C27   C     C_R   0.539914 0.351443 0.604191 -0.155775
C28   C     C_R   0.000029 0.500278 0.340133 0.540314
C29   C     C_R   0.644976 0.415811 0.564468 -0.071678
C30   C     C_R   0.348214 0.505784 0.506159 0.375978
C31   C     C_R   0.241433 0.341629 0.606661 0.364812
C32   C     C_3   0.056783 0.437891 0.048939 0.273035
C33   C     C_3   0.941899 0.389724 0.984066 -0.143352
C34   C     C_3   0.999346 0.499456 0.083122 -0.030478
C35   C     C_1   0.999570 0.498497 0.749735 0.064131
C36   C     C_1   0.999602 0.500160 0.250339 0.025587
C37   C     C_3   0.113534 0.544901 0.981425 0.250630
C38   C     C_3   0.942103 0.559303 0.951643 0.230786
C39   C     C_3   0.883745 0.451885 0.019283 -0.126849
C40   C     C_1   0.999409 0.497959 0.825385 0.067349
C41   C     C_1   0.999382 0.499907 0.174766 0.022904
C42   C     C_R   0.295276 0.013747 0.372098 0.286008
Cl1   Cl    Cl    0.379377 0.778561 0.611007 -0.484624
Cl2   Cl    Cl    0.701912 0.000218 0.793748 -0.487931
Cl3   Cl    Cl    0.133450 0.356902 0.114988 -0.468427
Cl4   Cl    Cl    0.865133 0.640032 0.885804 -0.469141
Cl5   Cl    Cl    0.265777 0.606130 0.955543 -0.427991
Cu1   Cu    Cu3+1 0.098270 0.475420 0.519690 1.080671
Cu2   Cu    Cu3+1 0.901730 0.524580 0.480310 0.963742
H1    H     H_    0.895545 0.300469 0.970147 0.179389
H2    H     H_    0.789032 0.414565 0.035595 0.171686
H3    H     H_    0.103802 0.697175 0.030158 0.177693
H4    H     H_    0.502147 0.171569 0.304804 0.145638
H5    H     H_    0.908610 0.123988 0.736815 0.391395
H6    H     H_    0.107778 0.317666 0.661991 0.395531
H7    H     H_    0.290338 0.594788 0.413945 0.344170
H8    H     H_    0.031359 0.859447 0.405392 0.333506
H9    H     H_    0.320945 0.160962 0.300793 0.328336
H10   H     H_    0.498037 0.960391 0.673931 0.212484
H11   H     H_    0.704792 0.227631 0.376067 0.136888
H12   H     H_    0.536614 0.280100 0.654969 0.133117
H13   H     H_    0.332728 0.237353 0.670365 0.158147
H14   H     H_    0.840841 0.686576 0.347303 0.166485
H15   H     H_    0.483252 0.634713 0.361951 0.177456
H16   H     H_    0.667067 0.734499 0.293005 0.148368
H17   H     H_    0.717342 0.391039 0.588938 0.180219
N1    N     N_R   0.246280 0.438200 0.549540 -0.236844
N2    N     N_R   0.754330 0.561180 0.450980 -0.245202
O1    O     O_R   0.972510 0.318130 0.524770 -0.443658
O2    O     O_3   0.143145 0.270121 0.650678 -0.629461
O3    O     O_3   0.360679 0.609816 0.458942 -0.660213
O4    O     O_3   0.087519 0.882958 0.360917 -0.620115
O5    O     O_3   0.264955 0.079390 0.298947 -0.591159
O6    O     O_R   0.806530 0.359650 0.491510 -0.547490
O7    O     O_R   0.082970 0.479240 0.637550 -0.492303
O8    O     O_R   0.916990 0.520750 0.604290 -0.515196
O9    O     O_R   0.193470 0.640350 0.508490 -0.413492
O10   O     O_R   0.027490 0.681870 0.475230 -0.513482
O11   O     O_R   0.083010 0.479250 0.395710 -0.527935
O12   O     O_R   0.917030 0.520760 0.362450 -0.501941
O13   O     O_3   0.904363 0.171106 0.679296 -0.664533

loop_
_geom_bond_atom_site_label_1
_geom_bond_atom_site_label_2
_ccdc_geom_bond_type
C39   H2    S    
C8    C13   A    
Cu2   N2    S    
C27   C29   A    
C32   Cl3   S    
C19   C20   A    
C18   C26   A    
Cu1   O1    S    
C30   O3    S    
C7    C8    A    
C13   H11   S    
C31   N1    A    
C15   O4    S    
C26   C27   A    
C33   C39   S    
C1    O6    A    
Cu1   O11   S    
C5    C6    A    
C10   C42   A    
Cu2   O10   S    
C16   O9    A    
C12   C37   S    
C28   O11   A    
C24   C29   A    
C4    O7    A    
C27   H12   S    
C31   O2    S    
C19   H14   S    
C21   H15   S    
C22   C25   A    
C3    O13   S    
C37   Cl5   S    
C2    C16   S    
C9    C10   A    
C30   N1    A    
C11   H4    S    
C23   C34   S    
C4    C35   S    
H8    O4    S    
C21   C22   A    
Cu1   O7    S    
C36   C41   T    
C34   C41   S    
C28   O12   A    
C38   Cl4   S    
C34   C39   S    
C20   H16   S    
C18   H13   S    
C33   H1    S    
C23   C37   S    
C1    O1    A    
C32   C34   S    
Cu1   O9    S    
C12   C40   S    
C9    C14   A    
H7    O3    S    
Cu2   O8    S    
C19   N2    A    
C32   C37   S    
C2    C15   A    
Cu1   Cu2   S    
C5    Cl2   S    
C22   C24   A    
C25   C30   A    
C7    C9    A    
C42   O5    S    
C6    H10   S    
C15   C42   A    
C3    C5    A    
C6    C7    A    
C23   C38   S    
C1    C17   S    
C8    C17   A    
Cu2   O12   S    
C32   C33   S    
C35   C40   T    
C25   C26   A    
C11   C13   A    
C23   H3    S    
C38   C39   S    
C3    C17   A    
C16   O10   A    
Cu1   N1    S    
C12   C38   S    
C2    C14   A    
C4    O8    A    
H6    O2    S    
C10   C11   A    
C24   N2    A    
C29   H17   S    
C20   C21   A    
C28   C36   S    
Cu2   O6    S    
C18   C31   A    
C12   C33   S    
H5    O13   S    
H9    O5    S    
C14   Cl1   S    
