data_mof_unit_68593.cif
_audit_creation_date              2012-10-26T20:16:39-0400
_audit_creation_method            fapswitch 2.2
_symmetry_space_group_name_H-M    P1
_symmetry_Int_Tables_number       1
_space_group_crystal_system       triclinic
_cell_length_a                    10.968705
_cell_length_b                    10.93778
_cell_length_c                    9.888739
_cell_angle_alpha                 99.127691
_cell_angle_beta                  97.903949
_cell_angle_gamma                 94.438545
_cell_volume                      1154.24874244

loop_
_atom_site_label
_atom_site_type_symbol
_atom_type_description
_atom_site_fract_x
_atom_site_fract_y
_atom_site_fract_z
_atom_type_partial_charge
C1    C     C_R   0.502008 0.262321 0.499037 0.541959
C2    C     C_R   0.681760 0.954791 0.836163 0.151957
C3    C     C_R   0.475800 0.076552 0.234032 0.086512
C4    C     C_R   0.558528 0.927485 0.767270 0.074666
C5    C     C_R   0.573825 0.132491 0.180242 -0.079852
C6    C     C_R   0.467945 0.872395 0.832617 -0.063719
C7    C     C_R   0.551730 0.171301 0.052013 -0.094096
C8    C     C_R   0.500272 0.840942 0.963261 -0.118278
C9    C     C_R   0.432832 0.152595 0.976115 -0.147832
C10   C     C_R   0.621604 0.869493 0.031889 -0.135928
C11   C     C_R   0.500780 0.916100 0.378381 -0.154216
C12   C     C_R   0.502748 0.738139 0.501122 0.531160
C13   C     C_R   0.525017 0.086623 0.623386 -0.158034
C14   C     C_R   0.507665 0.873061 0.504274 -0.016148
C15   C     C_R   0.507408 0.128540 0.496855 -0.006575
C16   C     C_R   0.261989 0.499406 0.499423 0.536999
C17   C     C_R   0.737595 0.498171 0.500190 0.535682
C18   C     C_R   0.524158 0.960521 0.629169 -0.016820
C19   C     C_R   0.497435 0.041786 0.372568 -0.002120
C20   C     C_2   0.509015 0.512476 0.078511 -0.038158
C21   C     C_2   0.489051 0.489335 0.921450 -0.038295
C22   C     C_R   0.179786 0.532930 0.056010 -0.144168
C23   C     C_R   0.871595 0.495249 0.502595 -0.019360
C24   C     C_R   0.818867 0.422920 0.926423 -0.117913
C25   C     C_R   0.140183 0.549529 0.184289 -0.079092
C26   C     C_R   0.866095 0.417650 0.802945 -0.082822
C27   C     C_R   0.077184 0.450601 0.229160 0.061344
C28   C     C_R   0.918846 0.526003 0.766228 0.064636
C29   C     C_R   0.042577 0.335689 0.136850 0.180127
C30   C     C_R   0.927113 0.641381 0.856948 0.187513
C31   C     C_R   0.083252 0.318907 0.005192 0.173349
C32   C     C_R   0.885642 0.644927 0.987522 0.166206
C33   C     C_R   0.154194 0.418372 0.968670 -0.118886
C34   C     C_R   0.127146 0.497756 0.495585 -0.028330
C35   C     C_R   0.828155 0.534951 0.017610 -0.104777
C36   C     C_R   0.915302 0.470819 0.376567 -0.153004
C37   C     C_R   0.082717 0.516849 0.621773 -0.165865
C38   C     C_3   0.988295 0.186142 0.288587 -0.325442
C39   C     C_3   0.086867 0.786540 0.798099 -0.334110
C40   C     C_3   0.093259 0.186259 0.777512 -0.326403
C41   C     C_3   0.885276 0.758866 0.227630 -0.336944
C42   C     C_3   0.216094 0.885716 0.185734 -0.334919
C43   C     C_3   0.802476 0.946089 0.643966 -0.300176
C44   C     C_R   0.956908 0.516335 0.627564 0.001668
C45   C     C_R   0.041192 0.473089 0.369894 -0.016011
C46   C     C_R   0.335717 0.095695 0.028388 -0.117238
C47   C     C_R   0.710841 0.929279 0.970158 -0.075784
C48   C     C_R   0.355633 0.059115 0.158187 0.179780
Cu1   Cu    Cu3+1 0.521120 0.521140 0.639640 0.934298
Cu2   Cu    Cu3+1 0.478880 0.478860 0.360360 0.931487
H1    H     H_    0.190456 0.408626 0.872188 0.101663
H2    H     H_    0.577627 0.586849 0.133416 0.136293
H3    H     H_    0.618482 0.621788 0.903985 0.229514
H4    H     H_    0.381880 0.377846 0.096139 0.224078
H5    H     H_    0.232990 0.608502 0.025227 0.102903
H6    H     H_    0.775306 0.339490 0.951707 0.107472
H7    H     H_    0.162950 0.638617 0.252076 0.109608
H8    H     H_    0.856681 0.329664 0.732614 0.111016
H9    H     H_    0.850507 0.447407 0.281926 0.150488
H10   H     H_    0.146723 0.532567 0.717436 0.125123
H11   H     H_    0.414998 0.183513 0.877627 0.095355
H12   H     H_    0.786321 0.535496 0.109542 0.106295
H13   H     H_    0.645944 0.848306 0.134521 0.109378
H14   H     H_    0.244538 0.080336 0.968821 0.112872
H15   H     H_    0.802828 0.956977 0.026843 0.125616
H16   H     H_    0.896010 0.190287 0.087815 0.249596
H17   H     H_    0.921398 0.205695 0.361911 0.150996
H18   H     H_    0.083197 0.220625 0.342950 0.163907
H19   H     H_    0.982632 0.083693 0.255981 0.118517
H20   H     H_    0.913798 0.828628 0.845556 0.276289
H21   H     H_    0.098443 0.776647 0.687329 0.162100
H22   H     H_    0.148993 0.727615 0.851046 0.135418
H23   H     H_    0.666486 0.147281 0.238351 0.100829
H24   H     H_    0.115010 0.885341 0.845887 0.117108
H25   H     H_    0.038925 0.124898 0.953710 0.251578
H26   H     H_    0.062622 0.090920 0.721034 0.136422
H27   H     H_    0.195793 0.197955 0.792025 0.128810
H28   H     H_    0.055969 0.253089 0.713011 0.152815
H29   H     H_    0.965039 0.826197 0.070938 0.245349
H30   H     H_    0.901387 0.855637 0.285954 0.123098
H31   H     H_    0.954051 0.703127 0.275231 0.151437
H32   H     H_    0.790267 0.722194 0.237052 0.144881
H33   H     H_    0.178931 0.067665 0.199030 0.248407
H34   H     H_    0.373013 0.852371 0.781353 0.102401
H35   H     H_    0.143599 0.862366 0.247918 0.145564
H36   H     H_    0.293932 0.830931 0.210289 0.156767
H37   H     H_    0.179440 0.858607 0.074404 0.129243
H38   H     H_    0.776882 0.106646 0.781044 0.251927
H39   H     H_    0.766892 0.993916 0.557798 0.131343
H40   H     H_    0.761209 0.847584 0.622618 0.175755
H41   H     H_    0.903465 0.944927 0.647160 0.148506
H42   H     H_    0.626787 0.214680 0.010919 0.100860
H43   H     H_    0.430869 0.796311 0.012210 0.100610
H44   H     H_    0.496302 0.851114 0.282816 0.115103
H45   H     H_    0.542898 0.152689 0.719263 0.125295
H46   H     H_    0.418833 0.416521 0.866503 0.137291
N1    N     N_2   0.447120 0.447110 0.150550 -0.348475
N2    N     N_2   0.552880 0.552890 0.849450 -0.351046
N3    N     N_2   0.955288 0.244492 0.168822 -0.547801
N4    N     N_2   0.958318 0.754034 0.808154 -0.528403
N5    N     N_2   0.048768 0.204048 0.910189 -0.532259
N6    N     N_2   0.898229 0.759525 0.083760 -0.545040
N7    N     N_2   0.253180 0.017832 0.218636 -0.520693
N8    N     N_2   0.776676 0.011659 0.774885 -0.544247
O1    O     O_R   0.517830 0.337490 0.617920 -0.513961
O2    O     O_R   0.482170 0.662510 0.382080 -0.514249
O3    O     O_R   0.482150 0.301790 0.382070 -0.482006
O4    O     O_R   0.517850 0.698210 0.617930 -0.488346
O5    O     O_R   0.337480 0.517860 0.617920 -0.510544
O6    O     O_R   0.662520 0.482140 0.382080 -0.515014
O7    O     O_R   0.301810 0.482160 0.382070 -0.488546
O8    O     O_R   0.698190 0.517840 0.617930 -0.483297

loop_
_geom_bond_atom_site_label_1
_geom_bond_atom_site_label_2
_ccdc_geom_bond_type
C12   O2    A    
C27   C29   A    
C34   C37   A    
C14   C18   A    
C10   H13   S    
C36   H9    S    
C42   N7    S    
C41   H30   S    
C15   C19   A    
C11   C19   A    
C43   H39   S    
H33   N7    S    
C13   C18   A    
C13   H45   S    
C9    H11   S    
C31   N5    S    
Cu1   O5    S    
C24   C26   A    
C11   C14   A    
C7    H42   S    
C30   N4    S    
C3    C48   A    
Cu2   O6    S    
C41   N6    S    
C39   H24   S    
C43   N8    S    
C16   C34   S    
Cu1   N2    S    
C20   N1    D    
C22   C25   A    
C39   H22   S    
C31   C33   A    
H4    N1    S    
C3    C19   S    
C42   H36   S    
Cu2   O2    S    
C4    C18   S    
C27   C45   S    
C40   N5    S    
C38   H19   S    
C12   O4    A    
C9    C46   A    
C17   O6    A    
C25   H7    S    
H38   N8    S    
H20   N4    S    
C16   O5    A    
Cu1   O4    S    
C46   C48   A    
C24   C35   A    
C6    H34   S    
C29   N3    S    
C43   H40   S    
C32   C35   A    
C4    C6    A    
C34   C45   A    
C6    C8    A    
C48   N7    S    
C28   C44   S    
C43   H41   S    
C23   C44   A    
C40   H26   S    
C46   H14   S    
H16   N3    S    
C2    C4    A    
C2    N8    S    
C41   H31   S    
C36   C45   A    
H29   N6    S    
C42   H35   S    
C17   C23   S    
C38   H17   S    
C26   H8    S    
C1    O3    A    
Cu1   O8    S    
C1    C15   S    
C11   H44   S    
C8    C10   A    
C38   H18   S    
C23   C36   A    
C13   C15   A    
Cu2   O3    S    
C2    C47   A    
C32   N6    S    
C33   H1    S    
C17   O8    A    
C5    C7    A    
C7    C9    A    
C22   C33   A    
Cu2   N1    S    
C8    H43   S    
C12   C14   S    
C38   N3    S    
C3    C5    A    
Cu1   O1    S    
C22   H5    S    
C21   H46   S    
H3    N2    S    
C24   H6    S    
C26   C28   A    
C37   C44   A    
C28   C30   A    
C29   C31   A    
C30   C32   A    
C21   N2    D    
C39   N4    S    
C41   H32   S    
Cu2   O7    S    
C35   H12   S    
C40   H28   S    
C5    H23   S    
C37   H10   S    
C20   C21   S    
C20   H2    S    
Cu1   Cu2   S    
C10   C47   A    
H25   N5    S    
C39   H21   S    
C40   H27   S    
C42   H37   S    
C47   H15   S    
C16   O7    A    
C1    O1    A    
C25   C27   A    
