data_mof_unit_13841.cif
_audit_creation_date              2012-12-10T20:25:44-0500
_audit_creation_method            fapswitch 2.2
_symmetry_space_group_name_H-M    P1
_symmetry_Int_Tables_number       1
_space_group_crystal_system       triclinic
_cell_length_a                    8.591443
_cell_length_b                    10.684502
_cell_length_c                    9.893864
_cell_angle_alpha                 89.614441
_cell_angle_beta                  98.035838
_cell_angle_gamma                 90.448338
_cell_volume                      899.250142343

loop_
_atom_site_label
_atom_site_type_symbol
_atom_type_description
_atom_site_fract_x
_atom_site_fract_y
_atom_site_fract_z
_atom_type_partial_charge
Br1   Br    Br    0.120838 0.559693 0.074373 -0.281605
Br2   Br    Br    0.588347 0.133499 0.909549 -0.406122
C1    C     C_R   0.505786 0.259969 0.501019 0.915866
C2    C     C_R   0.412182 0.414234 0.918703 0.023991
C3    C     C_3   0.239668 0.394205 0.886871 -0.462802
C4    C     C_R   0.201701 0.499624 0.464898 0.903685
C5    C     C_3   0.231904 0.407810 0.038114 0.796732
C6    C     C_R   0.505436 0.739961 0.500171 0.893991
C7    C     C_R   0.798199 0.502912 0.534704 0.899564
C8    C     C_2   0.038105 0.485711 0.448089 0.352915
C9    C     C_2   0.961048 0.521814 0.549171 0.261678
C10   C     C_R   0.552130 0.062743 0.627177 0.016606
C11   C     C_R   0.533274 0.128693 0.503895 -0.094816
C12   C     C_R   0.547555 0.936400 0.381331 -0.139573
C13   C     C_R   0.547642 0.065771 0.382033 -0.131248
C14   C     C_R   0.532650 0.871282 0.502382 -0.071933
C15   C     C_R   0.550165 0.934878 0.625873 0.043977
C16   C     C_3   0.460041 0.924316 0.744092 -0.459182
C17   C     C_3   0.463641 0.066219 0.747179 0.774513
C18   C     C_R   0.407747 0.417639 0.060172 -0.008474
C19   C     C_R   0.600090 0.574839 0.083528 0.603248
C20   C     C_R   0.599498 0.575356 0.939580 0.577884
F1    F     F_    0.968463 0.423474 0.335281 -0.587044
F2    F     F_    0.697522 0.653880 0.883335 -0.573248
F3    F     F_    0.177634 0.300827 0.096423 -0.567661
F4    F     F_    0.028771 0.591290 0.656842 -0.646128
F5    F     F_    0.315826 0.118378 0.716595 -0.645719
F6    F     F_    0.698755 0.652830 0.162552 -0.580207
H1    H     H_    0.181286 0.470425 0.823948 0.257163
H2    H     H_    0.209522 0.298668 0.847718 0.279521
H3    H     H_    0.546727 0.115123 0.285901 0.216304
H4    H     H_    0.546756 0.888656 0.284971 0.214743
H5    H     H_    0.340243 0.884214 0.715044 0.233684
H6    H     H_    0.530024 0.879245 0.834065 0.238837
N1    N     N_R   0.498950 0.499140 0.142680 -0.209380
N2    N     N_R   0.498950 0.499180 0.857030 -0.179838
O1    O     O_R   0.500020 0.316790 0.614690 -0.586753
O2    O     O_R   0.500000 0.316760 0.385350 -0.605580
O3    O     O_R   0.271760 0.500010 0.587850 -0.613942
O4    O     O_R   0.271740 0.499970 0.358500 -0.561669
O5    O     O_R   0.500000 0.683240 0.614650 -0.580684
O6    O     O_R   0.499980 0.683210 0.385310 -0.602660
O7    O     O_R   0.728260 0.500030 0.641500 -0.547215
O8    O     O_R   0.728240 0.499990 0.412150 -0.549645
Zn1   Zn    Zn3+2 0.500010 0.500020 0.653130 1.084504
Zn2   Zn    Zn3+2 0.499990 0.499980 0.346870 1.103721

loop_
_geom_bond_atom_site_label_1
_geom_bond_atom_site_label_2
_ccdc_geom_bond_type
C10   C15   A    
C4    C8    S    
C2    N2    A    
C13   H3    S    
C19   N1    A    
C12   C14   A    
C8    F1    S    
O7    Zn1   S    
C20   N2    A    
C5    F3    S    
C6    O6    A    
O3    Zn1   S    
C4    O3    A    
C11   C13   A    
C15   C16   S    
N2    Zn1   S    
C6    C14   S    
C19   C20   A    
C6    O5    A    
O4    Zn2   S    
C16   H6    S    
C5    C18   S    
C10   C17   S    
C19   F6    S    
O8    Zn2   S    
C3    H2    S    
C3    H1    S    
C7    C9    S    
C16   H5    S    
C20   F2    S    
C7    O7    A    
O2    Zn2   S    
C8    C9    D    
O1    Zn1   S    
C2    C18   A    
C4    O4    A    
C17   F5    S    
C10   C11   A    
C1    O1    A    
C16   C17   S    
O6    Zn2   S    
C3    C5    S    
O5    Zn1   S    
C12   C13   A    
C14   C15   A    
C7    O8    A    
C9    F4    S    
Br2   C17   S    
Br1   C5    S    
N1    Zn2   S    
C18   N1    A    
C1    O2    A    
C12   H4    S    
C2    C3    S    
C1    C11   S    
