data_mof_unit_37426.cif
_audit_creation_date              2012-12-10T18:32:46-0500
_audit_creation_method            fapswitch 2.2
_symmetry_space_group_name_H-M    P1
_symmetry_Int_Tables_number       1
_space_group_crystal_system       triclinic
_cell_length_a                    14.984455
_cell_length_b                    15.30892
_cell_length_c                    15.727758
_cell_angle_alpha                 90.0091
_cell_angle_beta                  105.153556
_cell_angle_gamma                 81.530441
_cell_volume                      3441.6737908

loop_
_atom_site_label
_atom_site_type_symbol
_atom_type_description
_atom_site_fract_x
_atom_site_fract_y
_atom_site_fract_z
_atom_type_partial_charge
C1    C     C_R   0.441154 0.662885 0.485021 0.869287
C2    C     C_3   0.404876 0.534473 0.021846 -0.148385
C3    C     C_3   0.501635 0.491982 0.083864 0.253358
C4    C     C_3   0.522989 0.393486 0.057845 -0.194337
C5    C     C_3   0.520519 0.391463 0.957126 -0.169973
C6    C     C_1   0.498007 0.494601 0.174506 -0.092006
C7    C     C_1   0.509442 0.492279 0.828016 -0.104015
C8    C     C_1   0.506786 0.495955 0.752028 -0.194781
C9    C     C_R   0.405171 0.756261 0.460098 -0.079920
C10   C     C_R   0.595648 0.242876 0.503987 -0.113697
C11   C     C_R   0.279839 0.877095 0.397857 0.000397
C12   C     C_R   0.501813 0.499474 0.661903 0.903379
C13   C     C_R   0.309689 0.788075 0.426451 -0.248137
C14   C     C_R   0.470470 0.812589 0.462918 -0.264586
C15   C     C_R   0.444177 0.898918 0.428243 0.090659
C16   C     C_R   0.347589 0.933363 0.398909 0.118171
C17   C     C_R   0.512904 0.953465 0.429616 0.058848
C18   C     C_R   0.485538 0.045408 0.420656 0.078238
C19   C     C_R   0.389587 0.078697 0.385223 -0.235492
C20   C     C_R   0.322080 0.022988 0.372187 -0.244842
C21   C     C_R   0.608294 0.918878 0.442295 -0.291268
C22   C     C_R   0.677525 0.972951 0.463030 -0.015808
C23   C     C_R   0.559103 0.336855 0.511046 0.850077
C24   C     C_R   0.651263 0.064147 0.472514 0.095598
C25   C     C_R   0.554828 0.100284 0.450724 0.070237
C26   C     C_R   0.718484 0.119527 0.505341 -0.271460
C27   C     C_R   0.692223 0.207687 0.524042 0.000994
C28   C     C_R   0.529390 0.188582 0.467660 -0.272863
C29   C     C_R   0.840725 0.641160 0.627747 -0.313210
C30   C     C_R   0.753090 0.615287 0.608731 0.005507
C31   C     C_R   0.792327 0.513974 0.505183 -0.029031
C32   C     C_R   0.882450 0.537598 0.520980 -0.009128
C33   C     C_R   0.906073 0.601925 0.584612 0.186345
C34   C     C_R   0.498621 0.499679 0.338393 0.910917
C35   C     C_R   0.949912 0.498299 0.477921 0.077107
C36   C     C_R   0.042088 0.520751 0.503065 0.080843
C37   C     C_R   0.061865 0.586169 0.565868 -0.255903
C38   C     C_R   0.994797 0.626068 0.605375 -0.213453
C39   C     C_R   0.928493 0.436866 0.411214 -0.251174
C40   C     C_R   0.996609 0.394035 0.374501 -0.232762
C41   C     C_R   0.087879 0.411915 0.401494 0.184301
C42   C     C_R   0.111611 0.476328 0.465047 -0.006426
C43   C     C_R   0.155842 0.366183 0.364864 -0.327791
C44   C     C_R   0.246489 0.385062 0.390824 0.014462
C45   C     C_3   0.412475 0.538499 0.925434 -0.461730
C46   C     C_R   0.204964 0.492527 0.488174 -0.065354
C47   C     C_3   0.585435 0.539844 0.975502 -0.425917
C48   C     C_3   0.579131 0.543695 0.071688 -0.395177
C49   C     C_1   0.496795 0.496997 0.249361 -0.175401
C50   C     C_3   0.509267 0.489107 0.919683 0.283670
H1    H     H_    0.354927 0.507604 0.882281 0.158448
H2    H     H_    0.354967 0.487400 0.022758 0.111567
H3    H     H_    0.249752 0.051686 0.344516 0.160459
H4    H     H_    0.456502 0.215307 0.456357 0.167260
H5    H     H_    0.258422 0.744340 0.423830 0.160412
H6    H     H_    0.542880 0.788686 0.495018 0.166341
H7    H     H_    0.402252 0.607576 0.898937 0.178827
H8    H     H_    0.365138 0.147472 0.365451 0.137644
H9    H     H_    0.630533 0.849124 0.436604 0.160631
H10   H     H_    0.792286 0.093650 0.520544 0.153213
H11   H     H_    0.013056 0.675533 0.653604 0.139594
H12   H     H_    0.230002 0.540569 0.534703 0.128332
H13   H     H_    0.299598 0.351149 0.362222 0.124603
H14   H     H_    0.977697 0.346061 0.324813 0.139313
H15   H     H_    0.857402 0.691010 0.675876 0.143043
H16   H     H_    0.701514 0.645225 0.641204 0.132372
H17   H     H_    0.768197 0.464603 0.459848 0.136518
H18   H     H_    0.656732 0.509201 0.974464 0.158257
H19   H     H_    0.128726 0.608523 0.586408 0.135941
H20   H     H_    0.859590 0.419676 0.385906 0.151406
H21   H     H_    0.138893 0.316771 0.316308 0.138830
H22   H     H_    0.575644 0.608461 0.947534 0.169507
H23   H     H_    0.565316 0.613376 0.089828 0.174453
H24   H     H_    0.647756 0.517618 0.117552 0.171022
H25   H     H_    0.452980 0.369225 0.922880 0.114994
H26   H     H_    0.461991 0.361938 0.063043 0.095355
N1    N     N_R   0.731690 0.552720 0.548990 -0.098784
N2    N     N_R   0.268300 0.447240 0.450950 -0.096328
O1    O     O_R   0.383120 0.605620 0.475300 -0.617213
O2    O     O_R   0.531890 0.639510 0.506740 -0.620889
O3    O     O_R   0.425580 0.483050 0.607130 -0.608590
O4    O     O_R   0.574360 0.516930 0.638570 -0.618116
O5    O     O_R   0.468110 0.360490 0.493260 -0.616896
O6    O     O_R   0.616880 0.394380 0.524700 -0.602289
O7    O     O_R   0.425640 0.483070 0.361430 -0.618921
O8    O     O_R   0.574420 0.516950 0.392870 -0.611464
Zn1   Zn    Zn3+2 0.400660 0.477370 0.479010 0.934720
Zn2   Zn    Zn3+2 0.599340 0.522630 0.520990 0.943418
C51   C     C_R   0.362772 0.622541 0.052204 0.164471
C52   C     C_R   0.293898 0.622791 0.098523 -0.161956
C53   C     C_R   0.257110 0.700981 0.131146 -0.132586
C54   C     C_R   0.288021 0.780204 0.117717 -0.109429
C55   C     C_R   0.355501 0.781403 0.071259 -0.145546
C56   C     C_R   0.392746 0.703343 0.038628 -0.156952
H27   H     H_    0.269689 0.561977 0.110915 0.116855
H28   H     H_    0.204886 0.699943 0.167254 0.122554
H29   H     H_    0.259687 0.840662 0.143276 0.124718
H30   H     H_    0.379258 0.842939 0.060693 0.126927
H31   H     H_    0.444838 0.706830 0.002974 0.117223
C57   C     C_R   0.608468 0.339587 0.123049 0.168719
C58   C     C_R   0.593883 0.283025 0.187378 -0.179178
C59   C     C_R   0.669480 0.235905 0.250244 -0.128972
C60   C     C_R   0.760872 0.243859 0.249659 -0.125123
C61   C     C_R   0.776770 0.298850 0.186133 -0.153033
C62   C     C_R   0.701404 0.346472 0.123403 -0.110381
H32   H     H_    0.523694 0.276340 0.189991 0.116372
H33   H     H_    0.657106 0.193426 0.299667 0.142706
H34   H     H_    0.819367 0.207345 0.298341 0.115612
H35   H     H_    0.847691 0.304748 0.185506 0.122472
H36   H     H_    0.716381 0.387992 0.075107 0.124555
C63   C     C_R   0.767901 0.257719 0.569019 0.147272
C64   C     C_R   0.844649 0.261692 0.534088 -0.186886
C65   C     C_R   0.918729 0.304012 0.579110 -0.146721
C66   C     C_R   0.916081 0.344357 0.658240 -0.111853
C67   C     C_R   0.840286 0.340731 0.693578 -0.142172
C68   C     C_R   0.767325 0.296157 0.650197 -0.097797
H37   H     H_    0.847389 0.231561 0.472327 0.122266
H38   H     H_    0.978114 0.305856 0.552471 0.150052
H39   H     H_    0.972845 0.378303 0.692208 0.130027
H40   H     H_    0.838480 0.371947 0.754949 0.117371
H41   H     H_    0.710095 0.292088 0.679466 0.116358
C69   C     C_R   0.776198 0.929473 0.481100 0.125500
C70   C     C_R   0.809047 0.887596 0.413256 -0.179529
C71   C     C_R   0.900281 0.841880 0.430967 -0.107558
C72   C     C_R   0.959458 0.838082 0.516230 -0.080966
C73   C     C_R   0.926904 0.878484 0.584366 -0.163466
C74   C     C_R   0.835332 0.923355 0.567182 -0.168501
H42   H     H_    0.763833 0.890021 0.346875 0.127186
H43   H     H_    0.925203 0.809540 0.378525 0.137104
H44   H     H_    0.030267 0.803199 0.529617 0.127018
H45   H     H_    0.972406 0.874436 0.650641 0.124249
H46   H     H_    0.810360 0.953062 0.620815 0.130503
C75   C     C_R   0.178043 0.909530 0.369462 0.108451
C76   C     C_R   0.121972 0.877661 0.293401 -0.162537
C77   C     C_R   0.026189 0.909727 0.265615 -0.156078
C78   C     C_R   0.985773 0.973251 0.313861 -0.111513
C79   C     C_R   0.040821 0.003967 0.390636 -0.126490
C80   C     C_R   0.136623 0.972101 0.418607 -0.174933
H47   H     H_    0.152618 0.828890 0.255236 0.119472
H48   H     H_    0.983304 0.885430 0.206600 0.125622
H49   H     H_    0.911635 0.998010 0.292267 0.124559
H50   H     H_    0.009239 0.052464 0.428431 0.127694
H51   H     H_    0.178684 0.996513 0.478092 0.133346
C81   C     C_R   0.592866 0.319626 0.934668 0.145821
C82   C     C_R   0.584036 0.230698 0.948927 -0.144139
C83   C     C_R   0.647727 0.161583 0.931116 -0.126981
C84   C     C_R   0.721227 0.179879 0.898406 -0.106470
C85   C     C_R   0.730900 0.267298 0.883226 -0.160552
C86   C     C_R   0.667175 0.336822 0.900547 -0.154854
H52   H     H_    0.527710 0.214911 0.974673 0.113527
H53   H     H_    0.640119 0.093755 0.942880 0.121796
H54   H     H_    0.770695 0.126329 0.884780 0.120832
H55   H     H_    0.788167 0.281227 0.858118 0.124019
H56   H     H_    0.677660 0.402906 0.887129 0.124570

loop_
_geom_bond_atom_site_label_1
_geom_bond_atom_site_label_2
_ccdc_geom_bond_type
N2    Zn1   S    
C10   C27   A    
O5    Zn1   S    
C62   H36   S    
C73   C74   A    
C37   H19   S    
C70   C71   A    
C41   C42   A    
C36   C42   A    
C84   C85   A    
C79   H50   S    
C3    C6    S    
O1    Zn1   S    
C66   C67   A    
C70   H42   S    
C77   C78   A    
C25   C28   A    
C31   H17   S    
C45   H7    S    
C57   C62   A    
C55   C56   A    
C23   O5    A    
C46   H12   S    
C45   C50   S    
C36   C37   A    
C37   C38   A    
C24   C26   A    
C83   C84   A    
C80   H51   S    
C11   C75   S    
C82   C83   A    
C61   H35   S    
O8    Zn2   S    
C45   H1    S    
C67   C68   A    
C29   C33   A    
C3    C48   S    
C51   C56   A    
C73   H45   S    
C18   C19   A    
C34   O8    A    
C69   C74   A    
C9    C13   A    
C74   H46   S    
C64   C65   A    
C53   H28   S    
C30   N1    A    
C72   H44   S    
C39   H20   S    
C35   C36   A    
N1    Zn2   S    
C12   O3    A    
C47   C48   S    
C22   C69   S    
C63   C68   A    
C66   H39   S    
C53   C54   A    
C8    C12   S    
C38   H11   S    
C27   C63   S    
C75   C80   A    
C19   H8    S    
C21   C22   A    
C41   C43   A    
C18   C25   A    
C61   C62   A    
C58   C59   A    
C54   H29   S    
C31   N1    A    
C47   C50   S    
O7    Zn1   S    
C44   H13   S    
C77   H48   S    
C68   H41   S    
C32   C35   A    
C48   H24   S    
C7    C8    T    
C1    C9    S    
C85   C86   A    
C23   O6    A    
C39   C40   A    
C46   N2    A    
C9    C14   A    
C28   H4    S    
C78   C79   A    
C5    C81   S    
C17   C21   A    
C65   H38   S    
C34   O7    A    
O6    Zn2   S    
C5    H25   S    
C2    C51   S    
C35   C39   A    
C86   H56   S    
C29   C30   A    
C75   C76   A    
C11   C16   A    
C31   C32   A    
C16   C20   A    
C17   C18   A    
C26   C27   A    
C12   O4    A    
C59   H33   S    
O3    Zn1   S    
C24   C25   A    
C30   H16   S    
C2    H2    S    
C29   H15   S    
C40   C41   A    
C4    C57   S    
C43   C44   A    
C42   C46   A    
C72   C73   A    
C1    O1    A    
C22   C24   A    
C5    C50   S    
C85   H55   S    
C3    C4    S    
C47   H18   S    
C76   H47   S    
C65   C66   A    
C10   C28   A    
C58   H32   S    
C15   C17   A    
C34   C49   S    
C43   H21   S    
C63   C64   A    
C48   H23   S    
C82   H52   S    
C7    C50   S    
C20   H3    S    
C52   H27   S    
C21   H9    S    
C76   C77   A    
C10   C23   S    
C79   C80   A    
C33   C38   A    
C40   H14   S    
C81   C82   A    
C32   C33   A    
C19   C20   A    
C44   N2    A    
C2    C3    S    
C69   C70   A    
O2    Zn2   S    
C14   H6    S    
C11   C13   A    
C52   C53   A    
C64   H37   S    
C56   H31   S    
O4    Zn2   S    
C54   C55   A    
C78   H49   S    
C71   H43   S    
C84   H54   S    
C6    C49   T    
C59   C60   A    
C81   C86   A    
C47   H22   S    
C4    H26   S    
C2    C45   S    
C83   H53   S    
C4    C5    S    
C67   H40   S    
C60   C61   A    
C1    O2    A    
C14   C15   A    
C60   H34   S    
C57   C58   A    
C51   C52   A    
C26   H10   S    
C55   H30   S    
C15   C16   A    
C71   C72   A    
C13   H5    S    
