data_mof_unit_50736.cif
_audit_creation_date              2012-12-10T21:13:08-0500
_audit_creation_method            fapswitch 2.2
_symmetry_space_group_name_H-M    P1
_symmetry_Int_Tables_number       1
_space_group_crystal_system       triclinic
_cell_length_a                    17.353808
_cell_length_b                    16.901189
_cell_length_c                    14.965763
_cell_angle_alpha                 89.355506
_cell_angle_beta                  92.349079
_cell_angle_gamma                 89.589284
_cell_volume                      4385.36412197

loop_
_atom_site_label
_atom_site_type_symbol
_atom_type_description
_atom_site_fract_x
_atom_site_fract_y
_atom_site_fract_z
_atom_type_partial_charge
C1    C     C_R   0.352806 0.500244 0.500417 0.966277
C2    C     C_R   0.646813 0.499766 0.496684 0.965147
C3    C     C_R   0.352094 0.486690 0.035899 -0.138311
C4    C     C_R   0.632556 0.519455 0.968182 -0.161594
C5    C     C_R   0.849484 0.569993 0.474380 -0.032592
C6    C     C_R   0.149364 0.427294 0.483019 -0.037329
C7    C     C_R   0.155219 0.560587 0.415760 -0.039703
C8    C     C_R   0.836281 0.438038 0.407534 -0.014828
C9    C     C_R   0.772623 0.566555 0.497831 -0.214112
C10   C     C_R   0.227556 0.432721 0.508039 -0.211869
C11   C     C_R   0.232379 0.564809 0.444479 -0.173160
C12   C     C_R   0.760237 0.435978 0.433990 -0.191629
C13   C     C_R   0.728523 0.499658 0.478934 -0.098171
C14   C     C_R   0.269162 0.500497 0.487788 -0.039190
C15   C     C_R   0.881552 0.504536 0.430314 -0.023065
C16   C     C_R   0.113259 0.492072 0.436854 -0.027791
C17   C     C_1   0.962946 0.499270 0.424408 0.150050
C18   C     C_1   0.031511 0.494840 0.426485 0.149089
C19   C     C_R   0.468463 0.835316 0.428279 0.316004
C20   C     C_R   0.558967 0.166621 0.547750 0.325002
C21   C     C_R   0.535283 0.832547 0.571628 0.304678
C22   C     C_R   0.444170 0.166901 0.452463 0.318830
C23   C     C_R   0.469293 0.751065 0.428609 -0.057619
C24   C     C_R   0.558310 0.250775 0.544982 -0.081376
C25   C     C_R   0.533164 0.748380 0.570802 -0.076886
C26   C     C_R   0.442696 0.251005 0.454851 -0.091349
C27   C     C_R   0.502007 0.876828 0.500180 -0.096579
C28   C     C_R   0.501959 0.123937 0.500335 -0.125809
C29   C     C_1   0.502310 0.964150 0.500572 0.084090
C30   C     C_1   0.502429 0.036632 0.500703 0.086070
C31   C     C_R   0.498553 0.499831 0.326793 1.022365
C32   C     C_R   0.500398 0.498923 0.673215 1.032405
C33   C     C_R   0.569670 0.501417 0.819710 -0.116016
C34   C     C_R   0.425178 0.510546 0.181974 -0.126113
C35   C     C_R   0.500373 0.494386 0.769006 -0.256075
C36   C     C_R   0.495253 0.496678 0.230881 -0.245418
C37   C     C_R   0.432699 0.468959 0.808215 0.464885
C38   C     C_R   0.561066 0.469444 0.189980 0.465249
C39   C     C_R   0.426920 0.474597 0.901828 -0.082075
C40   C     C_R   0.564233 0.479565 0.097338 -0.104212
C41   C     C_R   0.495233 0.489374 0.953604 -0.050587
C42   C     C_R   0.493545 0.488317 0.046748 -0.050381
C43   C     C_R   0.566339 0.504084 0.913065 -0.044562
C44   C     C_R   0.422055 0.495222 0.088830 -0.047096
C45   C     C_R   0.355413 0.467053 0.944098 0.435501
C46   C     C_R   0.635304 0.486091 0.054685 0.452329
H1    H     H_    0.746799 0.616354 0.530809 0.223745
H2    H     H_    0.256675 0.383426 0.542187 0.200659
H3    H     H_    0.264864 0.616995 0.428661 0.225507
H4    H     H_    0.724801 0.385571 0.416783 0.200773
N1    N     N_R   0.500000 0.707230 0.500000 -0.206546
N2    N     N_R   0.500000 0.292770 0.500000 -0.224227
O1    O     O_R   0.389110 0.566570 0.500000 -0.597454
O2    O     O_R   0.610890 0.433430 0.500000 -0.639557
O3    O     O_R   0.610890 0.566570 0.500000 -0.583700
O4    O     O_R   0.389110 0.433430 0.500000 -0.634994
O5    O     O_R   0.499980 0.566550 0.367850 -0.625310
O6    O     O_R   0.500020 0.433450 0.632150 -0.611753
O7    O     O_R   0.500020 0.566550 0.632150 -0.602375
O8    O     O_R   0.499980 0.433450 0.367850 -0.593240
Zn1   Zn    Zn3+2 0.500000 0.588860 0.500000 1.035594
Zn2   Zn    Zn3+2 0.500000 0.411140 0.500000 0.980120
C47   C     C_2   0.644949 0.486813 0.777400 1.022544
O9    O     O_2   0.692346 0.441760 0.813690 -0.658628
O10   O     O_R   0.661710 0.523468 0.696702 -0.757329
H5    H     H_    0.715232 0.509505 0.676866 0.336803
C48   C     C_2   0.357613 0.540427 0.229479 0.977420
O11   O     O_2   0.334525 0.503973 0.293916 -0.592254
O12   O     O_R   0.319436 0.609409 0.199140 -0.783091
H6    H     H_    0.272456 0.622007 0.234675 0.368740
O13   O     O_3   0.374021 0.438214 0.752953 -0.611597
C49   C     C_3   0.367217 0.355170 0.767720 0.131374
H7    H     H_    0.304821 0.341960 0.769066 0.194843
H8    H     H_    0.395292 0.333658 0.831869 0.098273
C50   C     C_3   0.400000 0.306782 0.692223 -0.371098
H9    H     H_    0.379675 0.331845 0.626627 0.265345
H10   H     H_    0.463827 0.307926 0.698113 0.251083
C51   C     C_3   0.375115 0.220455 0.697639 -0.944481
H11   H     H_    0.394383 0.193815 0.763061 0.255674
H12   H     H_    0.401508 0.186445 0.643633 0.270395
H13   H     H_    0.311398 0.216069 0.689258 0.296446
O14   O     O_3   0.623988 0.443268 0.243025 -0.613020
C52   C     C_3   0.637969 0.361546 0.228608 0.118630
H14   H     H_    0.700960 0.351362 0.239461 0.194719
H15   H     H_    0.621789 0.342371 0.159454 0.114302
C53   C     C_3   0.595955 0.308832 0.294451 -0.382999
H16   H     H_    0.607902 0.329138 0.363758 0.265820
H17   H     H_    0.532933 0.312080 0.278692 0.245722
C54   C     C_3   0.621797 0.222644 0.288522 -0.929389
H18   H     H_    0.609205 0.199922 0.220151 0.257197
H19   H     H_    0.590317 0.186118 0.336956 0.261364
H20   H     H_    0.684594 0.217012 0.305076 0.306034
O15   O     O_3   0.288950 0.452689 0.890848 -0.597449
C55   C     C_3   0.238361 0.393196 0.922893 0.100466
H21   H     H_    0.203654 0.372228 0.863951 0.167776
H22   H     H_    0.194287 0.419585 0.965151 0.183638
C56   C     C_3   0.276377 0.318919 0.968190 -0.469713
H23   H     H_    0.307291 0.283880 0.918793 0.206192
H24   H     H_    0.318071 0.334472 0.023127 0.244342
C57   C     C_3   0.215431 0.265577 0.007442 -0.841881
H25   H     H_    0.184237 0.297350 0.059733 0.283977
H26   H     H_    0.243628 0.212254 0.038384 0.263232
H27   H     H_    0.173461 0.246405 0.954111 0.257093
O16   O     O_3   0.704924 0.472660 0.102624 -0.583163
C58   C     C_3   0.759155 0.429893 0.052281 0.156401
H28   H     H_    0.814777 0.428898 0.091768 0.185431
H29   H     H_    0.771657 0.459631 0.988194 0.177047
C59   C     C_3   0.735763 0.343601 0.034650 -0.463488
H30   H     H_    0.738026 0.309489 0.098391 0.217334
H31   H     H_    0.676354 0.341092 0.004248 0.229501
C60   C     C_3   0.790600 0.303690 0.971593 -0.842542
H32   H     H_    0.788852 0.334577 0.905661 0.298805
H33   H     H_    0.773007 0.241313 0.961274 0.260265
H34   H     H_    0.850535 0.304211 0.000647 0.257471
C61   C     C_2   0.275217 0.495123 0.073965 0.939951
O17   O     O_2   0.232120 0.548850 0.047714 -0.559186
O18   O     O_R   0.250884 0.439905 0.136976 -0.803622
H35   H     H_    0.196971 0.451575 0.157196 0.354660
C62   C     C_2   0.688325 0.583499 0.945441 0.934865
O19   O     O_2   0.740071 0.601686 0.999151 -0.580280
O20   O     O_R   0.678225 0.627718 0.866336 -0.810798
H36   H     H_    0.718616 0.670258 0.860075 0.359995
C63   C     C_2   0.894493 0.642285 0.497611 0.912681
O21   O     O_2   0.874815 0.684349 0.558803 -0.616917
O22   O     O_R   0.958040 0.663705 0.448540 -0.792606
H37   H     H_    0.983301 0.714076 0.470829 0.358977
C64   C     C_2   0.107612 0.353305 0.505570 0.915236
O23   O     O_2   0.132737 0.309961 0.566171 -0.611358
O24   O     O_R   0.040835 0.331803 0.456583 -0.796389
H38   H     H_    0.018332 0.280231 0.478410 0.359366
C65   C     C_2   0.120687 0.627938 0.362532 0.943892
O25   O     O_2   0.146758 0.694571 0.371497 -0.644215
O26   O     O_R   0.059991 0.615053 0.300130 -0.753621
H39   H     H_    0.042085 0.665422 0.267951 0.367777
C66   C     C_2   0.866508 0.370241 0.356202 0.931575
O27   O     O_2   0.836873 0.305032 0.362310 -0.630619
O28   O     O_R   0.927329 0.381118 0.298916 -0.769880
H40   H     H_    0.942018 0.330693 0.267512 0.353608
O29   O     O_3   0.435941 0.876714 0.355621 -0.614860
C67   C     C_3   0.355942 0.887229 0.367154 0.065602
H41   H     H_    0.346196 0.946925 0.395258 0.181156
H42   H     H_    0.330714 0.842462 0.412951 0.143824
C68   C     C_3   0.313247 0.881464 0.276111 -0.318564
H43   H     H_    0.335884 0.926453 0.229555 0.233514
H44   H     H_    0.323531 0.822024 0.247686 0.260623
C69   C     C_3   0.226604 0.894030 0.283747 -0.879703
H45   H     H_    0.202504 0.847502 0.327273 0.305518
H46   H     H_    0.197619 0.890671 0.216384 0.274569
H47   H     H_    0.214505 0.953008 0.312199 0.255949
O30   O     O_3   0.617056 0.126474 0.595876 -0.613384
C70   C     C_3   0.596147 0.117919 0.685936 0.064020
H48   H     H_    0.569261 0.058957 0.694706 0.175810
H49   H     H_    0.554511 0.164077 0.707513 0.133059
C71   C     C_3   0.668744 0.123116 0.746859 -0.301333
H50   H     H_    0.710543 0.076561 0.728679 0.232106
H51   H     H_    0.696158 0.181664 0.737193 0.249216
C72   C     C_3   0.650149 0.113142 0.845112 -0.951479
H52   H     H_    0.611023 0.161405 0.865528 0.270626
H53   H     H_    0.704246 0.115614 0.887203 0.268984
H54   H     H_    0.622282 0.055163 0.856603 0.267668
O31   O     O_3   0.567998 0.870968 0.644889 -0.620183
C73   C     C_3   0.646996 0.884062 0.630755 0.071999
H55   H     H_    0.653208 0.940380 0.592609 0.177250
H56   H     H_    0.674390 0.835192 0.593265 0.150749
C74   C     C_3   0.689975 0.890501 0.721455 -0.315938
H57   H     H_    0.664792 0.939570 0.759719 0.228328
H58   H     H_    0.683014 0.834586 0.760052 0.249684
C75   C     C_3   0.775758 0.905414 0.710857 -0.896512
H59   H     H_    0.802604 0.854972 0.676364 0.293594
H60   H     H_    0.804850 0.911741 0.777835 0.270866
H61   H     H_    0.784301 0.960575 0.671578 0.264118
O32   O     O_3   0.387310 0.126999 0.404069 -0.607301
C76   C     C_3   0.410195 0.118710 0.314973 0.068219
H62   H     H_    0.445830 0.064038 0.310314 0.176500
H63   H     H_    0.444184 0.170064 0.290811 0.130182
C77   C     C_3   0.338238 0.111926 0.253411 -0.294115
H64   H     H_    0.302731 0.061802 0.276049 0.229724
H65   H     H_    0.303236 0.167057 0.257140 0.245712
C78   C     C_3   0.359233 0.099040 0.156599 -0.961479
H66   H     H_    0.390816 0.151033 0.131126 0.269562
H67   H     H_    0.305807 0.091175 0.114379 0.268587
H68   H     H_    0.395775 0.045200 0.151383 0.273371
C79   C     C_2   0.435565 0.712504 0.349812 1.026742
O33   O     O_2   0.377241 0.673664 0.356334 -0.652868
O34   O     O_R   0.468182 0.724320 0.266873 -0.767379
H69   H     H_    0.439273 0.696387 0.216464 0.358826
C80   C     C_2   0.622793 0.291395 0.591367 1.016473
O35   O     O_2   0.612052 0.329100 0.658843 -0.648925
O36   O     O_R   0.697307 0.282122 0.560855 -0.776375
H70   H     H_    0.737186 0.311714 0.598633 0.339996
C81   C     C_2   0.568630 0.707121 0.648562 1.064080
O37   O     O_2   0.631455 0.675036 0.643115 -0.597820
O38   O     O_R   0.531954 0.709234 0.729898 -0.766496
H71   H     H_    0.561206 0.678829 0.779159 0.373056
C82   C     C_2   0.377093 0.291138 0.407309 1.014771
O39   O     O_2   0.387788 0.336266 0.344970 -0.600530
O40   O     O_R   0.301975 0.271483 0.428952 -0.776985
H72   H     H_    0.261547 0.299483 0.389010 0.345210

loop_
_geom_bond_atom_site_label_1
_geom_bond_atom_site_label_2
_ccdc_geom_bond_type
O6    Zn2   S    
C68   C69   S    
C38   C40   A    
C81   O38   S    
C47   O10   S    
C24   N2    A    
O15   C55   S    
C82   O40   S    
C27   C29   S    
C41   C42   A    
C19   C23   A    
C60   H32   S    
N1    Zn1   S    
C67   C68   S    
C32   O6    A    
C79   O33   D    
C45   O15   S    
C64   O24   S    
O31   C73   S    
C63   O21   D    
C39   C41   A    
C4    C46   A    
C76   H62   S    
C7    C11   A    
C58   H29   S    
C74   H57   S    
C24   C80   S    
C35   C37   A    
C1    O4    A    
C67   H42   S    
C6    C64   S    
C69   H45   S    
C2    O3    A    
C79   O34   S    
C11   C14   A    
C53   H17   S    
C75   H60   S    
C63   O22   S    
C61   O17   D    
C73   C74   S    
C68   H44   S    
C59   H30   S    
O8    Zn2   S    
C70   C71   S    
C2    C13   S    
C9    C13   A    
C1    O1    A    
O1    Zn1   S    
C77   C78   S    
C20   C24   A    
C59   H31   S    
C61   O18   S    
C70   H48   S    
C4    C62   S    
C54   H19   S    
C19   C27   A    
C31   C36   S    
C69   H46   S    
C8    C12   A    
C39   C45   A    
C78   H68   S    
C40   C42   A    
C21   C27   A    
C72   H53   S    
C22   C28   A    
C38   O14   S    
C8    C66   S    
C72   H52   S    
C41   C43   A    
C70   H49   S    
O40   H72   S    
C42   C44   A    
C49   C50   S    
C26   C82   S    
O16   C58   S    
C56   H24   S    
C56   H23   S    
C73   H56   S    
C62   O20   S    
C58   C59   S    
C3    C44   A    
O7    Zn1   S    
C21   O31   S    
C48   O11   D    
C33   C43   A    
C32   C35   S    
C75   H59   S    
C66   O27   D    
C34   C44   A    
C67   H41   S    
C71   C72   S    
C49   H8    S    
C2    O2    A    
C51   H11   S    
C82   O39   D    
O2    Zn2   S    
C55   C56   S    
C46   O16   S    
C3    C45   A    
C57   H27   S    
C81   O37   D    
C48   O12   S    
C31   O8    A    
C40   C46   A    
C50   H9    S    
C25   N1    A    
C5    C9    A    
C29   C30   T    
C11   H3    S    
C26   N2    A    
C69   H47   S    
C23   N1    A    
C52   H14   S    
C33   C47   S    
C57   H26   S    
C17   C18   T    
C71   H50   S    
C51   H12   S    
C55   H21   S    
C60   H33   S    
C54   H20   S    
C55   H22   S    
C50   H10   S    
C23   C79   S    
C76   H63   S    
C16   C18   S    
C77   H64   S    
C52   H15   S    
C9    H1    S    
C8    C15   A    
C74   C75   S    
C37   O13   S    
C10   C14   A    
O22   H37   S    
C66   O28   S    
O4    Zn2   S    
C65   O25   D    
C56   C57   S    
O32   C76   S    
O29   C67   S    
O24   H38   S    
C58   H28   S    
C76   C77   S    
O36   H70   S    
C15   C17   S    
C21   C25   A    
C7    C16   A    
C53   H16   S    
C71   H51   S    
C49   H7    S    
C65   O26   S    
C53   C54   S    
C34   C48   S    
C6    C10   A    
C12   H4    S    
C62   O19   D    
O20   H36   S    
O5    Zn1   S    
C73   H55   S    
C4    C43   A    
C25   C81   S    
C78   H66   S    
C72   H54   S    
C20   C28   A    
O28   H40   S    
C5    C63   S    
C59   C60   S    
C31   O5    A    
C28   C30   S    
C80   O35   D    
C37   C39   A    
C3    C61   S    
O18   H35   S    
C10   H2    S    
C51   H13   S    
O34   H69   S    
O26   H39   S    
O3    Zn1   S    
C36   C38   A    
C57   H25   S    
C33   C35   A    
C20   O30   S    
C60   H34   S    
C34   C36   A    
O10   H5    S    
O12   H6    S    
C50   C51   S    
C5    C15   A    
C6    C16   A    
C47   O9    D    
O13   C49   S    
C52   C53   S    
C12   C13   A    
C74   H58   S    
O38   H71   S    
C22   C26   A    
C64   O23   D    
O30   C70   S    
N2    Zn2   S    
C1    C14   S    
C75   H61   S    
C32   O7    A    
O14   C52   S    
C54   H18   S    
C80   O36   S    
C19   O29   S    
C22   O32   S    
C7    C65   S    
C68   H43   S    
C77   H65   S    
C78   H67   S    
