data_mof_unit_30183.cif
_audit_creation_date              2012-12-10T18:44:29-0500
_audit_creation_method            fapswitch 2.2
_symmetry_space_group_name_H-M    P1
_symmetry_Int_Tables_number       1
_space_group_crystal_system       triclinic
_cell_length_a                    12.888723
_cell_length_b                    10.799235
_cell_length_c                    9.874325
_cell_angle_alpha                 91.222173
_cell_angle_beta                  99.582202
_cell_angle_gamma                 91.892082
_cell_volume                      1353.97445152

loop_
_atom_site_label
_atom_site_type_symbol
_atom_type_description
_atom_site_fract_x
_atom_site_fract_y
_atom_site_fract_z
_atom_type_partial_charge
C1    C     C_R   0.509406 0.260538 0.500676 0.884911
C2    C     C_R   0.702490 0.493835 0.530204 0.887698
C3    C     C_R   0.816876 0.482439 0.555150 -0.170040
C4    C     C_R   0.183124 0.517561 0.444850 -0.170040
C5    C     C_R   0.014083 0.441144 0.323129 -0.055330
C6    C     C_R   0.985917 0.558856 0.676871 -0.055330
C7    C     C_R   0.120208 0.471626 0.323362 -0.075456
C8    C     C_R   0.879792 0.528374 0.676638 -0.075456
C9    C     C_R   0.135784 0.568379 0.549319 -0.070519
C10   C     C_R   0.864216 0.431621 0.450680 -0.070519
C11   C     C_R   0.030466 0.534370 0.556750 0.048585
C12   C     C_R   0.490593 0.739462 0.499324 0.884910
C13   C     C_R   0.969534 0.465629 0.443250 0.048585
C14   C     C_R   0.504658 0.058870 0.375399 -0.054447
C15   C     C_R   0.495342 0.941130 0.624601 -0.054447
C16   C     C_R   0.475710 0.934375 0.373633 -0.055225
C17   C     C_R   0.524290 0.065625 0.626367 -0.055225
C18   C     C_1   0.806384 0.332926 0.364897 0.199233
C19   C     C_1   0.193616 0.667074 0.635103 0.199233
C20   C     C_1   0.840427 0.529984 0.805738 0.256897
C21   C     C_1   0.159573 0.470016 0.194262 0.256897
C22   C     C_1   0.953609 0.386849 0.197157 0.195766
C23   C     C_R   0.481325 0.872954 0.499129 -0.155584
C24   C     C_1   0.046391 0.613151 0.802843 0.195766
C25   C     C_1   0.530554 0.110257 0.250077 0.251362
C26   C     C_1   0.469446 0.889743 0.749923 0.251362
C27   C     C_1   0.432710 0.873441 0.242440 0.226592
C28   C     C_1   0.567290 0.126559 0.757560 0.226592
C29   C     C_1   0.631747 0.669214 0.176851 0.263453
C30   C     C_1   0.368253 0.330786 0.823149 0.263453
C31   C     C_1   0.626016 0.674088 0.885674 0.261556
C32   C     C_1   0.373984 0.325912 0.114326 0.261556
C33   C     C_R   0.518675 0.127045 0.500871 -0.155583
C34   C     C_R   0.563000 0.582908 0.087464 0.009860
C35   C     C_R   0.437000 0.417092 0.912536 0.009859
C36   C     C_R   0.562159 0.583554 0.943081 0.003540
C37   C     C_R   0.437841 0.416446 0.056919 0.003540
C38   C     C_R   0.297510 0.506165 0.469796 0.887698
N1    N     N_R   0.499970 0.499970 0.857200 -0.128275
N2    N     N_1   0.447787 0.851048 0.850348 -0.174698
N3    N     N_1   0.397777 0.825069 0.138374 -0.167712
N4    N     N_1   0.602223 0.174930 0.861626 -0.167712
N5    N     N_1   0.687271 0.738666 0.247736 -0.191339
N6    N     N_1   0.312729 0.261334 0.752264 -0.191339
N7    N     N_1   0.677574 0.747284 0.840810 -0.197326
N8    N     N_1   0.322426 0.252716 0.159190 -0.197326
N9    N     N_R   0.500030 0.500030 0.142800 -0.128275
N10   N     N_1   0.760196 0.253646 0.297718 -0.169704
N11   N     N_1   0.239804 0.746353 0.702282 -0.169704
N12   N     N_1   0.811721 0.529095 0.910560 -0.193321
N13   N     N_1   0.188279 0.470905 0.089440 -0.193321
N14   N     N_1   0.906855 0.342440 0.096661 -0.160547
N15   N     N_1   0.093145 0.657560 0.903339 -0.160547
N16   N     N_1   0.552213 0.148952 0.149652 -0.174698
O1    O     O_R   0.499990 0.316750 0.614620 -0.617428
O2    O     O_R   0.500010 0.683250 0.385380 -0.617427
O3    O     O_R   0.499990 0.316780 0.385290 -0.617371
O4    O     O_R   0.500010 0.683220 0.614710 -0.617371
O5    O     O_R   0.346360 0.499970 0.595710 -0.609415
O6    O     O_R   0.653640 0.500030 0.404290 -0.609415
O7    O     O_R   0.346360 0.499990 0.366380 -0.618356
O8    O     O_R   0.653640 0.500010 0.633620 -0.618356
Zn1   Zn    Zn3+2 0.500000 0.499980 0.653120 0.992641
Zn2   Zn    Zn3+2 0.500000 0.500020 0.346880 0.992641

loop_
_geom_bond_atom_site_label_1
_geom_bond_atom_site_label_2
_ccdc_geom_bond_type
O7    Zn2   S    
C35   N1    A    
O2    Zn2   S    
C6    C24   S    
C1    O3    A    
C37   N9    A    
N1    Zn1   S    
C27   N3    T    
C5    C13   A    
C20   N12   T    
C6    C11   A    
C21   N13   T    
O6    Zn2   S    
C38   O7    A    
C12   O4    A    
C16   C27   S    
C15   C23   A    
C2    C3    S    
C1    O1    A    
C1    C33   S    
C3    C10   A    
C8    C20   S    
C32   C37   S    
C29   N5    T    
C7    C21   S    
C11   C13   A    
C12   C23   S    
C30   N6    T    
O8    Zn1   S    
C2    O6    A    
C17   C33   A    
C30   C35   S    
C14   C33   A    
C4    C7    A    
C26   N2    T    
C28   N4    T    
C12   O2    A    
C4    C38   S    
C16   C23   A    
C34   C36   A    
C9    C11   A    
C14   C25   S    
C10   C18   S    
C14   C16   A    
C32   N8    T    
C38   O5    A    
O4    Zn1   S    
C25   N16   T    
C24   N15   T    
O3    Zn2   S    
C22   N14   T    
C3    C8    A    
C31   N7    T    
N9    Zn2   S    
C15   C17   A    
C19   N11   T    
C5    C7    A    
C15   C26   S    
C6    C8    A    
C34   N9    A    
C35   C37   A    
C4    C9    A    
C31   C36   S    
C17   C28   S    
O5    Zn1   S    
C29   C34   S    
C9    C19   S    
C36   N1    A    
C5    C22   S    
C2    O8    A    
O1    Zn1   S    
C10   C13   A    
C18   N10   T    
