data_mof_unit_5109.cif
_audit_creation_date              2012-12-11T17:08:23-0500
_audit_creation_method            fapswitch 2.2
_symmetry_space_group_name_H-M    P1
_symmetry_Int_Tables_number       1
_space_group_crystal_system       triclinic
_cell_length_a                    6.977056
_cell_length_b                    14.487076
_cell_length_c                    16.129639
_cell_angle_alpha                 90.03922
_cell_angle_beta                  89.988726
_cell_angle_gamma                 89.882613
_cell_volume                      1630.3339522

loop_
_atom_site_label
_atom_site_type_symbol
_atom_type_description
_atom_site_fract_x
_atom_site_fract_y
_atom_site_fract_z
_atom_type_partial_charge
O1    O     O_R   0.505700 0.583890 0.413310 -0.528319
O2    O     O_R   0.175960 0.594920 0.586080 -0.539367
O3    O     O_R   0.005660 0.416110 0.586690 -0.540574
C1    C     C_R   0.344531 0.617228 0.614464 0.704510
O4    O     O_R   0.175980 0.594920 0.413930 -0.534058
O5    O     O_R   0.005680 0.416110 0.413310 -0.544234
C2    C     C_R   0.344800 0.618057 0.386185 0.706437
O6    O     O_R   0.505680 0.583890 0.586690 -0.532611
O7    O     O_3   0.339200 0.441330 0.500000 -0.381371
V1    V     V_3+5 0.064350 0.510880 0.500000 1.455687
O8    O     O_R   0.675960 0.405080 0.413920 -0.543048
C3    C     C_R   0.845063 0.383222 0.385096 0.691230
O9    O     O_R   0.675940 0.405080 0.586070 -0.547016
C4    C     C_R   0.844748 0.383182 0.614850 0.683879
V2    V     V_3+5 0.564340 0.489120 0.500000 1.436373
O10   O     O_3   0.839360 0.558670 0.500000 -0.339226
C5    C     C_R   0.006974 0.317309 0.741246 0.115221
C6    C     C_R   0.852684 0.317811 0.685607 -0.112209
C7    C     C_R   0.701001 0.256321 0.701715 -0.178112
H1    H     H_    0.578381 0.254320 0.660884 0.133460
C8    C     C_R   0.712114 0.192159 0.767233 -0.178007
H2    H     H_    0.597119 0.143001 0.774997 0.125726
C9    C     C_R   0.875586 0.187244 0.818495 -0.109024
C10   C     C_R   0.018432 0.253550 0.805818 0.113939
C11   C     C_3   0.228565 0.240809 0.793906 -0.413288
C12   C     C_3   0.216204 0.310662 0.723876 -0.401093
H3    H     H_    0.264408 0.169961 0.772361 0.163087
H4    H     H_    0.312650 0.265844 0.847926 0.181842
H5    H     H_    0.245676 0.280549 0.661748 0.167552
H6    H     H_    0.292390 0.376250 0.737574 0.175585
C13   C     C_R   0.727550 0.182865 0.241120 0.113290
C14   C     C_R   0.881872 0.182353 0.185486 -0.112790
C15   C     C_R   0.033518 0.243885 0.201540 -0.170826
H7    H     H_    0.156117 0.245865 0.160674 0.136208
C16   C     C_R   0.022397 0.308078 0.267076 -0.160721
C17   C     C_R   0.858975 0.312940 0.318387 -0.107641
C18   C     C_R   0.716094 0.246653 0.305721 0.100362
C19   C     C_3   0.505993 0.259467 0.293800 -0.410025
C20   C     C_3   0.518352 0.189570 0.223727 -0.397372
H8    H     H_    0.470269 0.330314 0.272303 0.173065
H9    H     H_    0.421797 0.234496 0.347795 0.174228
H10   H     H_    0.488996 0.219655 0.161621 0.172786
C21   C     C_R   0.498597 0.679243 0.743671 0.071044
C22   C     C_R   0.351766 0.683034 0.684739 -0.094116
C23   C     C_R   0.204738 0.748272 0.698214 -0.142639
H11   H     H_    0.085053 0.752656 0.655768 0.127462
C24   C     C_R   0.217168 0.812717 0.763690 -0.130776
H12   H     H_    0.106405 0.864729 0.769501 0.109227
C25   C     C_R   0.375811 0.813132 0.818167 -0.112362
C26   C     C_R   0.509600 0.741519 0.809083 0.114158
C27   C     C_3   0.724158 0.741984 0.806437 -0.197675
C28   C     C_3   0.710638 0.674622 0.733672 -0.445223
H13   H     H_    0.784571 0.810251 0.789369 0.097688
C29   C     C_R   0.514063 0.688987 0.265007 0.061909
C30   C     C_R   0.353991 0.685056 0.316777 -0.100665
C31   C     C_R   0.205291 0.747707 0.300810 -0.175361
H14   H     H_    0.085897 0.751050 0.342303 0.153745
C32   C     C_R   0.217457 0.811724 0.235454 -0.129800
H15   H     H_    0.104445 0.862370 0.228591 0.129945
C33   C     C_R   0.377454 0.813336 0.182079 -0.089638
C34   C     C_R   0.522283 0.747745 0.196111 0.086850
C35   C     C_3   0.731213 0.764908 0.208692 -0.280994
C36   C     C_3   0.716434 0.709317 0.289066 -0.243744
H16   H     H_    0.806395 0.645874 0.292130 0.145154
O11   O     O_R   0.229000 0.916070 0.913330 -0.536761
O12   O     O_R   0.558770 0.905070 0.086080 -0.532299
O13   O     O_R   0.729000 0.083900 0.086690 -0.539867
C37   C     C_R   0.390029 0.882956 0.114756 0.716963
O14   O     O_R   0.558720 0.905070 0.913930 -0.539354
O15   O     O_R   0.728960 0.083900 0.913310 -0.545056
C38   C     C_R   0.389805 0.882981 0.885244 0.700696
O16   O     O_R   0.229050 0.916070 0.086710 -0.522148
O17   O     O_3   0.395460 0.058650 0.000020 -0.381135
V3    V     V_3+5 0.670340 0.989120 0.000000 1.462226
O18   O     O_R   0.058670 0.094960 0.913900 -0.544558
C39   C     C_R   0.889554 0.116880 0.885136 0.678431
O19   O     O_R   0.058720 0.094960 0.086050 -0.546737
C40   C     C_R   0.889881 0.116893 0.114791 0.692272
V4    V     V_3+5 0.170330 0.010930 0.999970 1.428247
O20   O     O_3   0.895340 0.941350 0.999980 -0.340451
H17   H     H_    0.442063 0.124015 0.237371 0.172004
C41   C     C_2   0.816069 0.699054 0.881682 0.823318
O21   O     O_2   0.725813 0.690530 0.946237 -0.546490
O22   O     O_R   0.005603 0.668195 0.876680 -0.663709
H18   H     H_    0.050914 0.637422 0.929571 0.290758
H19   H     H_    0.767082 0.604124 0.746268 0.177278
H20   H     H_    0.758135 0.704980 0.673869 0.179775
H21   H     H_    0.765209 0.839391 0.216470 0.141448
C42   C     C_2   0.847608 0.718445 0.141631 0.836224
O23   O     O_2   0.841800 0.634648 0.132191 -0.549416
O24   O     O_R   0.960581 0.772290 0.089394 -0.638426
H22   H     H_    0.039775 0.734008 0.049491 0.294198
C43   C     C_2   0.723433 0.768593 0.366653 0.743665
O25   O     O_2   0.795778 0.737936 0.429908 -0.557182
O26   O     O_R   0.642050 0.856971 0.366814 -0.668526
H23   H     H_    0.654097 0.888818 0.422544 0.285667
H24   H     H_    0.137348 0.357272 0.274839 0.131222

loop_
_geom_bond_atom_site_label_1
_geom_bond_atom_site_label_2
_ccdc_geom_bond_type
O12   C37   A    
C30   C31   A    
C43   O25   D    
O11   V4    S    
O17   V3    S    
C4    C6    S    
C7    H1    S    
C2    C30   S    
C9    C39   S    
C1    O6    A    
C24   C25   A    
O19   C40   A    
C11   H4    S    
C35   C36   S    
C5    C12   S    
C17   C18   A    
C7    C8    A    
O16   V4    S    
C16   H24   S    
O5    C3    A    
C19   C20   S    
C21   C28   S    
C29   C36   S    
C32   C33   A    
V2    O10   S    
O12   V3    S    
C35   C42   S    
C31   H14   S    
C6    C7    A    
O14   C38   A    
O8    V2    S    
O26   H23   S    
C31   C32   A    
O15   V3    S    
C9    C10   A    
O1    V2    S    
C42   O24   S    
O7    V1    S    
C23   C24   A    
C43   O26   S    
V3    O20   S    
O9    C4    A    
O13   C40   A    
C26   C27   S    
C20   H10   S    
O19   V4    S    
C5    C10   A    
C27   C28   S    
C15   H7    S    
C10   C11   S    
C20   H17   S    
C19   H9    S    
O24   H22   S    
O4    C2    A    
C1    C22   S    
C32   H15   S    
C23   H11   S    
C35   H21   S    
C13   C18   A    
C33   C34   A    
C27   H13   S    
C16   C17   A    
O2    C1    A    
O18   C39   A    
C18   C19   S    
C24   H12   S    
C37   O16   A    
C5    C6    A    
O17   V4    S    
O14   V3    S    
O13   V3    S    
O22   H18   S    
C27   C41   S    
O3    C4    A    
C12   H6    S    
O6    V2    S    
C41   O22   S    
C8    C9    A    
C21   C22   A    
O15   C39   A    
C25   C26   A    
V4    O20   S    
C3    C17   S    
O2    V1    S    
C22   C23   A    
C29   C30   A    
O1    C2    A    
C13   C14   A    
O5    V1    S    
O8    C3    A    
C21   C26   A    
C29   C34   A    
C11   H3    S    
C36   C43   S    
C28   H20   S    
C14   C15   A    
O9    V2    S    
C11   C12   S    
O4    V1    S    
O3    V1    S    
V1    O10   S    
C19   H8    S    
C28   H19   S    
C15   C16   A    
C13   C20   S    
O7    V2    S    
C34   C35   S    
C14   C40   S    
C36   H16   S    
O11   C38   A    
C33   C37   S    
C12   H5    S    
C41   O21   D    
C25   C38   S    
C42   O23   D    
C8    H2    S    
O18   V4    S    
