data_mof_unit_67729.cif
_audit_creation_date              2012-10-26T19:56:20-0400
_audit_creation_method            fapswitch 2.2
_symmetry_space_group_name_H-M    P1
_symmetry_Int_Tables_number       1
_space_group_crystal_system       triclinic
_cell_length_a                    11.166466
_cell_length_b                    10.648546
_cell_length_c                    9.681541
_cell_angle_alpha                 92.968666
_cell_angle_beta                  92.173972
_cell_angle_gamma                 87.114288
_cell_volume                      1147.47622019

loop_
_atom_site_label
_atom_site_type_symbol
_atom_type_description
_atom_site_fract_x
_atom_site_fract_y
_atom_site_fract_z
_atom_type_partial_charge
C1    C     C_R   0.504810 0.260371 0.497577 0.582072
C2    C     C_3   0.405060 0.046299 0.435500 0.070012
C3    C     C_3   0.495127 0.876768 0.504387 -0.011439
C4    C     C_3   0.507960 0.123230 0.494669 0.023211
C5    C     C_3   0.403640 0.974184 0.568497 0.093018
C6    C     C_3   0.599279 0.026094 0.430322 0.131734
C7    C     C_3   0.593519 0.549724 0.058933 -0.016367
C8    C     C_3   0.406482 0.450230 0.941126 -0.012924
C9    C     C_3   0.501837 0.612314 0.959118 0.193115
C10   C     C_3   0.498055 0.387534 0.041108 0.197975
C11   C     C_3   0.592030 0.437017 0.949230 -0.015612
C12   C     C_R   0.496451 0.739668 0.502310 0.566379
C13   C     C_3   0.407926 0.562655 0.050772 -0.010492
C14   C     C_R   0.262676 0.502054 0.497921 0.567509
C15   C     C_R   0.737348 0.497966 0.502071 0.560496
C16   C     C_R   0.121986 0.601476 0.058734 0.060872
C17   C     C_R   0.877709 0.398610 0.941079 0.057217
C18   C     C_R   0.097178 0.587327 0.197132 0.121048
C19   C     C_R   0.902655 0.412740 0.802714 0.122852
C20   C     C_R   0.097771 0.464508 0.246927 -0.002924
C21   C     C_R   0.902393 0.535570 0.753015 -0.003933
C22   C     C_R   0.129334 0.359199 0.162163 -0.047325
C23   C     C_R   0.872333 0.497372 0.503795 0.053509
C24   C     C_R   0.871154 0.640891 0.837868 -0.060034
C25   C     C_R   0.147666 0.372332 0.022802 0.091478
C26   C     C_R   0.852264 0.627757 0.977076 0.092233
C27   C     C_R   0.140785 0.493793 0.970777 -0.120815
C28   C     C_R   0.858938 0.506293 0.029054 -0.119278
C29   C     C_R   0.935650 0.431348 0.398930 0.077956
C30   C     C_R   0.064442 0.568808 0.600944 0.077621
C31   C     C_R   0.127734 0.502697 0.496151 0.052758
C32   C     C_R   0.940423 0.552399 0.613533 -0.024630
C33   C     C_R   0.059680 0.447706 0.386399 -0.024195
C34   C     C_3   0.509178 0.051452 0.629911 -0.092317
C35   C     C_3   0.494192 0.948572 0.369049 -0.093849
C36   C     C_3   0.598336 0.953767 0.563047 0.074458
Cu1   Cu    Cu3+1 0.500030 0.499990 0.643150 1.003341
Cu2   Cu    Cu3+1 0.499970 0.500010 0.356850 1.014556
H1    H     H_    0.155815 0.503390 0.863257 0.124258
H2    H     H_    0.485170 0.907611 0.261554 0.193602
H3    H     H_    0.111027 0.197374 0.944461 0.301319
H4    H     H_    0.176623 0.284562 0.832822 0.247528
H5    H     H_    0.888396 0.802918 0.055310 0.302447
H6    H     H_    0.823015 0.715604 0.166949 0.250083
H7    H     H_    0.947297 0.260972 0.289629 0.272419
H8    H     H_    0.814560 0.346461 0.266063 0.273439
H9    H     H_    0.052816 0.739548 0.709646 0.278794
H10   H     H_    0.185441 0.653844 0.733818 0.275558
H11   H     H_    0.746027 0.833918 0.564803 0.240402
H12   H     H_    0.843736 0.496710 0.136524 0.124380
H13   H     H_    0.682277 0.857437 0.718163 0.263732
H14   H     H_    0.242642 0.026158 0.336972 0.286078
H15   H     H_    0.254514 0.162188 0.431452 0.242052
H16   H     H_    0.660467 0.603283 0.118612 0.157275
H17   H     H_    0.339357 0.396913 0.881424 0.156509
H18   H     H_    0.659299 0.373288 0.898856 0.164350
H19   H     H_    0.340401 0.626174 0.101042 0.164651
H20   H     H_    0.135616 0.266246 0.203066 0.162175
H21   H     H_    0.865680 0.733870 0.797203 0.150848
H22   H     H_    0.518310 0.092287 0.737462 0.193082
I1    I     I_    0.504061 0.807129 0.920289 -0.262453
I2    I     I_    0.486257 0.193894 0.083072 -0.210573
I3    I     I_    0.145172 0.785447 0.988995 -0.335652
I4    I     I_    0.853904 0.214715 0.010605 -0.329325
I5    I     I_    0.055128 0.753652 0.326164 -0.309865
I6    I     I_    0.944541 0.246373 0.673658 -0.271294
I7    I     I_    0.241474 0.957035 0.672100 -0.227181
I8    I     I_    0.760808 0.043142 0.325715 -0.200079
N1    N     N_3   0.500090 0.499970 0.858290 -0.267051
N2    N     N_3   0.499910 0.500030 0.141710 -0.268674
N3    N     N_3   0.177289 0.262016 0.936585 -0.577398
N4    N     N_3   0.822310 0.738081 0.063153 -0.586352
N5    N     N_3   0.883003 0.321602 0.336414 -0.562494
N6    N     N_3   0.117130 0.678648 0.663233 -0.559121
N7    N     N_3   0.707243 0.903114 0.631949 -0.542772
N8    N     N_3   0.299524 0.099518 0.362238 -0.566295
O1    O     O_R   0.500060 0.316850 0.620870 -0.515142
O2    O     O_R   0.499940 0.683150 0.379130 -0.511561
O3    O     O_R   0.500000 0.316860 0.379090 -0.450800
O4    O     O_R   0.500000 0.683140 0.620910 -0.468072
O5    O     O_R   0.319670 0.500010 0.620890 -0.519539
O6    O     O_R   0.680330 0.499990 0.379110 -0.522193
O7    O     O_R   0.319620 0.500010 0.379110 -0.491997
O8    O     O_R   0.680380 0.499990 0.620890 -0.498381

loop_
_geom_bond_atom_site_label_1
_geom_bond_atom_site_label_2
_ccdc_geom_bond_type
C2    C35   S    
Cu2   N2    S    
H5    N4    S    
Cu1   N1    S    
Cu2   O7    S    
C1    O1    A    
C14   C31   S    
C5    I7    S    
C7    N2    S    
C18   I5    S    
C7    C11   S    
C8    N1    S    
C8    C13   S    
C9    I1    S    
C23   C29   A    
C19   C21   A    
C9    N1    S    
C17   I4    S    
C30   C31   A    
C30   N6    S    
C29   N5    S    
C13   N2    S    
C29   C33   A    
C26   N4    S    
C6    C35   S    
C19   I6    S    
H7    N5    S    
C9    C13   S    
C3    C12   S    
C28   H12   S    
C27   H1    S    
C22   C25   A    
C12   O2    A    
C31   C33   A    
Cu1   O8    S    
C25   N3    S    
C16   I3    S    
C18   C20   A    
H3    N3    S    
C16   C27   A    
C6    I8    S    
Cu2   O6    S    
C34   H22   S    
Cu1   O5    S    
C10   I2    S    
C14   O7    A    
C8    H17   S    
Cu1   O4    S    
C15   O6    A    
C21   C32   S    
C4    C34   S    
H10   N6    S    
C4    C6    S    
Cu2   O2    S    
H14   N8    S    
Cu1   O1    S    
C2    C4    S    
Cu1   Cu2   S    
C36   N7    S    
C3    C35   S    
C5    C34   S    
H11   N7    S    
C20   C33   S    
C10   N2    S    
C16   C18   A    
C20   C22   A    
C1    O3    A    
H15   N8    S    
C2    N8    S    
C7    C9    S    
C17   C28   A    
C24   C26   A    
H9    N6    S    
H13   N7    S    
C3    C5    S    
C22   H20   S    
C11   N1    S    
C15   O8    A    
C25   C27   A    
C26   C28   A    
C14   O5    A    
C1    C4    S    
C23   C32   A    
C35   H2    S    
C30   C32   A    
C3    C36   S    
C24   H21   S    
C12   O4    A    
C15   C23   S    
H4    N3    S    
C17   C19   A    
C6    C36   S    
H6    N4    S    
C34   C36   S    
C10   C11   S    
C2    C5    S    
C13   H19   S    
C8    C10   S    
Cu2   O3    S    
C21   C24   A    
C7    H16   S    
H8    N5    S    
C11   H18   S    
