data_mof_unit_14064.cif
_audit_creation_date              2012-12-11T14:08:06-0500
_audit_creation_method            fapswitch 2.2
_symmetry_space_group_name_H-M    P1
_symmetry_Int_Tables_number       1
_space_group_crystal_system       triclinic
_cell_length_a                    10.921402
_cell_length_b                    10.976048
_cell_length_c                    18.638505
_cell_angle_alpha                 89.89311
_cell_angle_beta                  89.091408
_cell_angle_gamma                 59.944558
_cell_volume                      1933.56102916

loop_
_atom_site_label
_atom_site_type_symbol
_atom_type_description
_atom_site_fract_x
_atom_site_fract_y
_atom_site_fract_z
_atom_type_partial_charge
C1    C     C_R   0.241005 0.642696 0.610186 0.554541
C2    C     C_3   0.623639 0.623656 0.805142 -0.027516
C3    C     C_3   0.727968 0.682949 0.808315 0.043837
C4    C     C_3   0.674723 0.659388 0.674135 0.073357
C5    C     C_3   0.837484 0.596608 0.684779 -0.181112
C6    C     C_3   0.613722 0.588091 0.725377 0.139951
C7    C     C_2   0.680155 0.139941 0.665444 -0.094813
C8    C     C_2   0.717814 0.114204 0.818620 -0.136776
C9    C     C_2   0.826787 0.051540 0.771228 -0.181894
C10   C     C_2   0.808870 0.091640 0.694264 -0.001356
C11   C     C_2   0.193463 0.651963 0.684605 -0.034240
C12   C     C_R   0.655271 0.626199 0.599819 0.563876
C13   C     C_2   0.208833 0.662669 0.842267 0.186283
C14   C     C_2   0.221758 0.553120 0.805458 -0.113037
C15   C     C_2   0.253575 0.537403 0.727832 0.220535
C16   C     C_2   0.619800 0.615619 0.311868 -0.091686
C17   C     C_2   0.627470 0.658000 0.156562 -0.117707
C18   C     C_2   0.695597 0.531689 0.188418 -0.153765
C19   C     C_2   0.670608 0.510354 0.263812 -0.166279
C20   C     C_2   0.676089 0.138012 0.333185 -0.110928
C21   C     C_2   0.649761 0.147430 0.178981 -0.100272
C22   C     C_2   0.610668 0.074514 0.222445 -0.151117
C23   C     C_R   0.629616 0.223852 0.600343 0.566795
C24   C     C_2   0.595343 0.098292 0.299106 -0.156359
C25   C     C_2   0.121181 0.682363 0.345876 -0.103526
C26   C     C_2   0.111561 0.691348 0.191133 -0.090379
C27   C     C_2   0.041554 0.805012 0.234567 -0.145300
C28   C     C_2   0.074675 0.801025 0.309679 -0.167040
C29   C     C_R   0.725469 0.055057 0.889418 0.536946
C30   C     C_R   0.755152 0.707621 0.882572 0.531583
C31   C     C_R   0.122683 0.705771 0.908539 0.524725
C32   C     C_R   0.674625 0.106150 0.104854 0.553958
C33   C     C_R   0.691283 0.687753 0.094524 0.543738
C34   C     C_R   0.215254 0.651839 0.404931 0.544939
C35   C     C_R   0.085663 0.713501 0.115473 0.553442
C36   C     C_R   0.614318 0.587053 0.387449 0.574808
C37   C     C_R   0.621919 0.222783 0.397310 0.537030
C38   C     C_3   0.652414 0.830635 0.769842 -0.278765
C39   C     C_3   0.601103 0.820684 0.693650 -0.162160
C40   C     C_3   0.871315 0.589668 0.764642 -0.060817
Cr1   Cr    Cr6+3 0.393010 0.398050 0.501480 1.036206
Cr2   Cr    Cr6+3 0.398820 0.707980 0.501630 0.990942
Cr3   Cr    Cr6+3 0.708140 0.393940 0.496850 1.009186
Cr4   Cr    Cr6+3 0.937950 0.938450 0.008940 1.008145
Cr5   Cr    Cr6+3 0.626180 0.937030 0.994750 0.998140
Cr6   Cr    Cr6+3 0.937790 0.625760 0.001410 0.994726
H1    H     H_    0.727517 0.870360 0.764383 0.099293
H2    H     H_    0.903928 0.492870 0.658963 0.173605
H3    H     H_    0.928631 0.966836 0.788652 0.141179
H4    H     H_    0.616000 0.200840 0.802754 0.099827
H5    H     H_    0.600796 0.127845 0.695026 0.091175
H6    H     H_    0.204083 0.475525 0.832201 0.073799
H7    H     H_    0.562610 0.910141 0.803101 0.161178
H8    H     H_    0.121162 0.755728 0.706493 0.090728
H9    H     H_    0.783851 0.442887 0.161265 0.153951
H10   H     H_    0.710341 0.402924 0.281776 0.129354
H11   H     H_    0.533147 0.745084 0.180718 0.101043
H12   H     H_    0.582589 0.723723 0.296184 0.105180
H13   H     H_    0.582720 0.999663 0.201059 0.152725
H14   H     H_    0.505685 0.098755 0.325521 0.157410
H15   H     H_    0.678646 0.222389 0.198871 0.082114
H16   H     H_    0.770920 0.128478 0.307860 0.093112
H17   H     H_    0.969830 0.908418 0.212888 0.158054
H18   H     H_    0.079131 0.890357 0.331632 0.150089
H19   H     H_    0.184718 0.586638 0.210546 0.093088
H20   H     H_    0.107952 0.597094 0.325243 0.116631
H21   H     H_    0.640154 0.870736 0.654428 0.138337
H22   H     H_    0.929588 0.648453 0.770065 0.083762
H23   H     H_    0.871197 0.665117 0.656783 0.058955
H24   H     H_    0.517613 0.713743 0.819434 0.136517
H25   H     H_    0.499094 0.632791 0.713278 0.139845
O1    O     O_R   0.507110 0.256280 0.580300 -0.487389
O2    O     O_R   0.524640 0.695370 0.425100 -0.499770
O3    O     O_R   0.735890 0.504390 0.415980 -0.508192
O4    O     O_R   0.690560 0.277820 0.422350 -0.530794
O5    O     O_3   0.499990 0.499990 0.499980 -0.262009
O6    O     O_R   0.089190 0.825870 0.932320 -0.530145
O7    O     O_R   0.819070 0.053960 0.931440 -0.485431
O8    O     O_R   0.607070 0.076440 0.916460 -0.524544
O9    O     O_R   0.647110 0.806550 0.917690 -0.529230
O10   O     O_R   0.837080 0.593860 0.915300 -0.538819
O11   O     O_R   0.064770 0.636080 0.932550 -0.532834
O12   O     O_R   0.280830 0.527190 0.577940 -0.436579
O13   O     O_R   0.068250 0.829200 0.092940 -0.515422
O14   O     O_R   0.799650 0.057040 0.080330 -0.499412
O15   O     O_R   0.586130 0.079760 0.077080 -0.504935
O16   O     O_R   0.627700 0.809630 0.066580 -0.500848
O17   O     O_R   0.816140 0.597180 0.075920 -0.505843
O18   O     O_R   0.045360 0.639170 0.081440 -0.488343
O19   O     O_3   0.833980 0.833750 0.001700 -0.266307
O20   O     O_R   0.261360 0.738990 0.584270 -0.554244
O21   O     O_R   0.532590 0.694780 0.574370 -0.522270
O22   O     O_R   0.744470 0.503750 0.577000 -0.491826
O23   O     O_R   0.698520 0.277230 0.571620 -0.485769
O24   O     O_R   0.498530 0.256920 0.419280 -0.514935
O25   O     O_R   0.272880 0.527780 0.428680 -0.504474
O26   O     O_R   0.252780 0.739630 0.423250 -0.526477
O27   O     O_3   0.684845 0.442158 0.712565 -0.709977
H26   H     H_    0.612635 0.412541 0.712351 0.332289
C41   C     C_3   0.986351 0.436475 0.787965 -0.258548
C42   C     C_3   0.972962 0.308223 0.768042 -0.388068
H27   H     H_    0.879211 0.309416 0.790643 0.209035
H28   H     H_    0.977173 0.293396 0.709414 0.159271
H29   H     H_    0.065544 0.212474 0.789532 0.107713
H30   H     H_    0.084951 0.414718 0.759160 0.132133
H31   H     H_    0.013120 0.429432 0.845148 0.178130
C43   C     C_3   0.935719 0.071771 0.650316 -0.253255
C44   C     C_3   0.962553 0.978663 0.584164 -0.406933
H32   H     H_    0.977392 0.874998 0.600322 0.135002
H33   H     H_    0.874026 0.025676 0.546160 0.151763
H34   H     H_    0.057039 0.965948 0.554501 0.167064
H35   H     H_    0.920260 0.174810 0.632739 0.185227
H36   H     H_    0.032144 0.022519 0.683634 0.136838
O28   O     O_3   0.342982 0.404980 0.699721 -0.691262
H37   H     H_    0.377372 0.336853 0.739750 0.295819
O29   O     O_3   0.260187 0.744340 0.812065 -0.778938
H38   H     H_    0.246440 0.819569 0.845975 0.332503
C45   C     C_3   0.435249 0.905224 0.692012 -0.303492
C46   C     C_3   0.375040 0.064442 0.691249 -0.449897
H39   H     H_    0.402940 0.100938 0.740497 0.144424
H40   H     H_    0.414847 0.094576 0.643229 0.186781
H41   H     H_    0.257906 0.118577 0.688586 0.137946
H42   H     H_    0.392415 0.881882 0.644322 0.203640
H43   H     H_    0.388687 0.879911 0.738953 0.163476
C47   C     C_3   0.643899 0.506270 0.859715 -0.236325
C48   C     C_3   0.556575 0.562573 0.929368 -0.430297
H44   H     H_    0.592930 0.622150 0.961837 0.199429
H45   H     H_    0.442871 0.631079 0.918095 0.163113
H46   H     H_    0.568515 0.472759 0.962163 0.138988
H47   H     H_    0.610056 0.435679 0.835762 0.164503
H48   H     H_    0.755145 0.440522 0.875259 0.186954

loop_
_geom_bond_atom_site_label_1
_geom_bond_atom_site_label_2
_ccdc_geom_bond_type
C19   H10   S    
C7    C10   D    
C42   H27   S    
C43   H35   S    
C1    C11   S    
C34   O26   A    
O28   H37   S    
Cr6   O18   S    
O29   H38   S    
C25   C28   D    
C41   H30   S    
C48   H44   S    
C31   O11   A    
C8    C29   S    
C6    O27   S    
Cr4   O6    S    
Cr5   O16   S    
C33   O17   A    
C34   O25   A    
Cr2   O20   S    
C38   C39   S    
Cr1   O25   S    
Cr1   O12   S    
Cr3   O23   S    
C44   H32   S    
C37   O24   A    
C18   C19   S    
C45   C46   S    
C43   H36   S    
C5    H23   S    
Cr6   O11   S    
C11   C15   D    
C47   H47   S    
C14   H6    S    
C29   O7    A    
C20   C24   D    
C3    C38   S    
C8    C9    D    
C43   C44   S    
C4    C12   S    
C9    C10   S    
C21   H15   S    
C25   C34   S    
C30   O9    A    
Cr3   O3    S    
C37   O4    A    
C42   H28   S    
C13   C14   D    
C10   C43   S    
C2    C6    S    
C17   C33   S    
C21   C32   S    
C12   O21   A    
C31   O6    A    
Cr6   O17   S    
C46   H40   S    
Cr3   O4    S    
C6    H25   S    
C5    H2    S    
C9    H3    S    
C4    C6    S    
Cr2   O26   S    
C22   H13   S    
C45   H43   S    
C48   H46   S    
C3    C30   S    
C35   O13   A    
Cr6   O10   S    
C47   H48   S    
C29   O8    A    
C4    C39   S    
C24   H14   S    
C32   O15   A    
C17   C18   D    
C26   C27   D    
C15   O28   S    
Cr5   O8    S    
C16   H12   S    
Cr5   O19   S    
C38   H1    S    
C11   H8    S    
C36   O3    A    
C18   H9    S    
Cr1   O1    S    
C35   O18   A    
C3    C40   S    
C42   H29   S    
C47   C48   S    
C22   C24   S    
C12   O22   A    
Cr4   O14   S    
C8    H4    S    
Cr4   O19   S    
C28   H18   S    
C46   H41   S    
Cr3   O5    S    
Cr2   O2    S    
C48   H45   S    
C26   H19   S    
C39   H21   S    
C23   O1    A    
C13   C31   S    
C25   H20   S    
C4    C5    S    
Cr4   O13   S    
C40   C41   S    
C46   H39   S    
C44   H34   S    
Cr6   O19   S    
C41   H31   S    
C1    O12   A    
C39   C45   S    
Cr2   O5    S    
C23   O23   A    
C30   O10   A    
Cr4   O7    S    
Cr5   O15   S    
C33   O16   A    
C7    H5    S    
C2    H24   S    
C16   C36   S    
Cr1   O5    S    
C20   C37   S    
Cr1   O24   S    
C38   H7    S    
C16   C19   D    
C7    C23   S    
C32   O14   A    
C41   C42   S    
Cr3   O22   S    
C44   H33   S    
C2    C3    S    
Cr5   O9    S    
Cr2   O21   S    
C45   H42   S    
C20   H16   S    
C13   O29   S    
C36   O2    A    
C2    C47   S    
C26   C35   S    
C1    O20   A    
O27   H26   S    
C40   H22   S    
C5    C40   S    
C27   C28   S    
C14   C15   S    
C27   H17   S    
C21   C22   D    
C17   H11   S    
