data_mof_unit_10720.cif
_audit_creation_date              2012-12-10T17:58:19-0500
_audit_creation_method            fapswitch 2.2
_symmetry_space_group_name_H-M    P1
_symmetry_Int_Tables_number       1
_space_group_crystal_system       triclinic
_cell_length_a                    9.624275
_cell_length_b                    10.824425
_cell_length_c                    15.930262
_cell_angle_alpha                 89.948026
_cell_angle_beta                  70.927203
_cell_angle_gamma                 90.021903
_cell_volume                      1568.46619731

loop_
_atom_site_label
_atom_site_type_symbol
_atom_type_description
_atom_site_fract_x
_atom_site_fract_y
_atom_site_fract_z
_atom_type_partial_charge
C1    C     C_R   0.999842 0.262406 0.500202 0.785523
C2    C     C_R   0.000040 0.737600 0.500023 0.770812
C3    C     C_R   0.583211 0.624438 0.086567 -0.307100
C4    C     C_R   0.409614 0.615860 0.911322 -0.295193
C5    C     C_R   0.731093 0.607967 0.036892 0.471493
C6    C     C_R   0.262127 0.599655 0.960868 0.497303
C7    C     C_R   0.875204 0.063856 0.497438 -0.179889
C8    C     C_R   0.124365 0.936156 0.503369 -0.189388
C9    C     C_R   0.875310 0.936046 0.497310 -0.190879
C10   C     C_R   0.124232 0.063972 0.503541 -0.193933
C11   C     C_R   0.999929 0.871631 0.500210 -0.011389
C12   C     C_R   0.999728 0.128381 0.500441 -0.014061
C13   C     C_R   0.542681 0.427750 0.557961 -0.030033
C14   C     C_R   0.457368 0.572134 0.441948 -0.044916
C15   C     C_R   0.394658 0.427697 0.557885 0.007096
C16   C     C_R   0.605360 0.572274 0.442085 -0.027817
C17   C     C_R   0.914076 0.501220 0.671300 0.826074
C18   C     C_R   0.085751 0.500783 0.328742 0.848707
C19   C     C_R   0.859455 0.511874 0.768108 -0.178454
C20   C     C_R   0.138305 0.511817 0.232017 -0.147969
C21   C     C_R   0.898383 0.501875 0.909155 -0.168511
C22   C     C_R   0.093327 0.499186 0.092667 -0.159831
C23   C     C_R   0.945987 0.475054 0.819192 0.497986
C24   C     C_R   0.050193 0.471294 0.183112 0.462040
C25   C     C_R   0.717952 0.559432 0.810413 -0.303141
C26   C     C_R   0.276034 0.565109 0.188849 -0.307267
C27   C     C_R   0.667191 0.581140 0.902803 0.040581
C28   C     C_R   0.324942 0.584173 0.096276 0.037638
C29   C     C_R   0.766998 0.564775 0.949634 -0.035929
C30   C     C_R   0.224358 0.563268 0.050155 -0.033250
C31   C     C_R   0.518228 0.606509 0.951963 0.009614
C32   C     C_R   0.473997 0.609497 0.046439 0.023670
Cu1   Cu    Cu3+1 0.140660 0.500020 0.500000 0.955758
Cu2   Cu    Cu3+1 0.859340 0.499980 0.500000 0.952577
H1    H     H_    0.962207 0.467647 0.947283 0.195805
H2    H     H_    0.030469 0.460696 0.055244 0.176659
H3    H     H_    0.778002 0.888005 0.494782 0.149195
H4    H     H_    0.221503 0.112022 0.506123 0.148601
H5    H     H_    0.572510 0.369476 0.604574 0.119032
H6    H     H_    0.427610 0.630260 0.395224 0.110734
H7    H     H_    0.314535 0.369161 0.604329 0.143711
H8    H     H_    0.685521 0.630761 0.395582 0.112718
N1    N     N_R   0.352080 0.500030 0.499980 -0.161143
N2    N     N_R   0.647920 0.499970 0.500020 -0.157021
O1    O     O_R   0.118740 0.319660 0.500000 -0.592857
O2    O     O_R   0.881260 0.680340 0.500000 -0.593743
O3    O     O_R   0.881170 0.319630 0.500010 -0.582851
O4    O     O_R   0.118830 0.680370 0.499990 -0.590741
O5    O     O_R   0.055570 0.500030 0.629830 -0.533356
O6    O     O_R   0.944430 0.499970 0.370170 -0.548972
O7    O     O_R   0.818000 0.500000 0.629840 -0.598402
O8    O     O_R   0.182000 0.500000 0.370160 -0.598214
O9    O     O_3   0.840532 0.624789 0.074323 -0.604854
C33   C     C_3   0.842157 0.748814 0.101213 -0.338440
H9    H     H_    0.749658 0.767646 0.163136 0.150917
H10   H     H_    0.840530 0.814842 0.047831 0.161374
H11   H     H_    0.945527 0.765022 0.116088 0.190675
O10   O     O_3   0.156327 0.610153 0.920331 -0.565552
C34   C     C_3   0.146191 0.734623 0.896322 -0.266861
H12   H     H_    0.241290 0.760813 0.837522 0.150305
H13   H     H_    0.136389 0.798968 0.952529 0.140207
H14   H     H_    0.045540 0.745573 0.877590 0.187471
H15   H     H_    0.343662 0.588532 0.228672 0.164118
H16   H     H_    0.650249 0.579026 0.769955 0.178594
O11   O     O_3   0.936795 0.388653 0.221877 -0.585016
C35   C     C_3   0.802030 0.433867 0.217622 -0.237960
H17   H     H_    0.786761 0.534029 0.233994 0.171589
H18   H     H_    0.711625 0.384221 0.267887 0.174446
H19   H     H_    0.791245 0.413594 0.151761 0.176354
O12   O     O_3   0.081049 0.418962 0.781372 -0.545527
C36   C     C_3   0.059436 0.290036 0.783748 -0.348942
H20   H     H_    0.167642 0.244677 0.753487 0.181575
H21   H     H_    0.987958 0.262399 0.744293 0.147542
H22   H     H_    0.012681 0.255780 0.853282 0.153236
H23   H     H_    0.557057 0.643259 0.156411 0.138132
H24   H     H_    0.435730 0.630134 0.840916 0.156959
H25   H     H_    0.777825 0.111811 0.495001 0.151834
H26   H     H_    0.221751 0.888197 0.505787 0.150747

loop_
_geom_bond_atom_site_label_1
_geom_bond_atom_site_label_2
_ccdc_geom_bond_type
C35   H18   S    
C27   C29   A    
Cu1   O1    S    
C6    O10   S    
C17   O7    A    
C18   O8    A    
O9    C33   S    
C2    O2    A    
Cu1   O8    S    
Cu2   O7    S    
C5    O9    S    
C35   H19   S    
Cu1   O5    S    
C20   C24   A    
O12   C36   S    
Cu2   O2    S    
C3    H23   S    
C16   N2    A    
C18   C20   S    
C7    H25   S    
C35   H17   S    
C34   H12   S    
C8    H26   S    
C23   O12   S    
C1    C12   S    
C2    C11   S    
C5    C29   A    
C7    C12   A    
C13   H5    S    
C33   H10   S    
C34   H13   S    
Cu2   O6    S    
C27   C31   A    
Cu1   N1    S    
C28   C32   A    
Cu2   N2    S    
C15   H7    S    
C4    C6    A    
C17   O5    A    
C36   H21   S    
C1    O3    A    
C2    O4    A    
O10   C34   S    
C21   C29   A    
C25   H16   S    
C19   C23   A    
C26   H15   S    
C31   C32   A    
C9    H3    S    
Cu1   Cu2   S    
C9    C11   A    
C10   C12   A    
C24   O11   S    
C6    C30   A    
C13   C15   A    
C14   C16   A    
C16   H8    S    
C18   O6    A    
C7    C9    A    
C33   H9    S    
C34   H14   S    
C22   C30   A    
C3    C5    A    
C36   H22   S    
C21   H1    S    
C25   C27   A    
C22   H2    S    
C26   C28   A    
C10   H4    S    
C21   C23   A    
C15   N1    A    
C36   H20   S    
C1    O1    A    
C20   C26   A    
C8    C11   A    
C28   C30   A    
C17   C19   S    
C22   C24   A    
C3    C32   A    
C19   C25   A    
C4    H24   S    
C4    C31   A    
C14   H6    S    
C8    C10   A    
O11   C35   S    
Cu1   O4    S    
Cu2   O3    S    
C13   N2    A    
C14   N1    A    
C33   H11   S    
