data_mof_unit_27511.cif
_audit_creation_date              2012-12-11T17:44:00-0500
_audit_creation_method            fapswitch 2.2
_symmetry_space_group_name_H-M    P1
_symmetry_Int_Tables_number       1
_space_group_crystal_system       monoclinic
_cell_length_a                    20.264555
_cell_length_b                    22.717632
_cell_length_c                    6.936426
_cell_angle_alpha                 90.0
_cell_angle_beta                  86.414575
_cell_angle_gamma                 90.0
_cell_volume                      3187.02153319

loop_
_atom_site_label
_atom_site_type_symbol
_atom_type_description
_atom_site_fract_x
_atom_site_fract_y
_atom_site_fract_z
_atom_type_partial_charge
O1    O     O_R   0.751270 0.447300 0.600030 -0.513657
O2    O     O_R   0.248730 0.947300 0.399970 -0.513656
O3    O     O_R   0.613530 0.440160 0.952150 -0.536394
O4    O     O_R   0.386470 0.940160 0.047850 -0.536394
O5    O     O_R   0.613050 0.552700 0.122560 -0.536808
O6    O     O_R   0.386950 0.052700 0.877440 -0.536809
C1    C     C_R   0.591553 0.425458 0.787309 0.658013
C2    C     C_R   0.408447 0.925458 0.212691 0.658013
O7    O     O_R   0.750780 0.440350 0.929820 -0.523034
O8    O     O_R   0.249220 0.940350 0.070180 -0.523034
O9    O     O_R   0.751280 0.552900 0.100070 -0.541466
O10   O     O_R   0.248720 0.052900 0.899930 -0.541466
C3    C     C_R   0.774920 0.427065 0.756253 0.705561
C4    C     C_R   0.225080 0.927065 0.243747 0.705561
O11   O     O_R   0.613040 0.447100 0.622520 -0.540214
O12   O     O_R   0.386960 0.947100 0.377480 -0.540214
O13   O     O_3   0.682160 0.536920 0.777780 -0.379776
O14   O     O_3   0.317840 0.036920 0.222220 -0.379776
V1    V     V_3+5 0.682160 0.493150 0.052630 1.495236
V2    V     V_3+5 0.317840 0.993150 0.947370 1.495236
O15   O     O_R   0.750790 0.559840 0.429870 -0.545278
O16   O     O_R   0.249210 0.059840 0.570130 -0.545278
C5    C     C_R   0.774035 0.573947 0.256805 0.718621
C6    C     C_R   0.225965 0.073947 0.743195 0.718621
O17   O     O_R   0.613540 0.559650 0.452200 -0.543724
O18   O     O_R   0.386460 0.059650 0.547800 -0.543724
C7    C     C_R   0.591476 0.574276 0.287654 0.685523
C8    C     C_R   0.408524 0.074276 0.712346 0.685524
V3    V     V_3+5 0.682160 0.506850 0.552630 1.462314
V4    V     V_3+5 0.317840 0.006850 0.447370 1.462314
O19   O     O_3   0.682150 0.463080 0.277610 -0.342694
O20   O     O_3   0.317850 0.963080 0.722390 -0.342695
C9    C     C_R   0.582511 0.862528 0.195018 -0.046240
C10   C     C_R   0.417489 0.362528 0.804983 -0.046240
H1    H     H_    0.672683 0.773417 0.158448 0.114892
H2    H     H_    0.327317 0.273417 0.841553 0.114892
C11   C     C_R   0.463605 0.882408 0.212433 -0.203656
C12   C     C_R   0.536395 0.382408 0.787567 -0.203656
C13   C     C_R   0.474419 0.597945 0.361580 -0.119991
C14   C     C_R   0.525580 0.097945 0.638420 -0.119991
C15   C     C_R   0.422433 0.637685 0.397200 0.006049
C16   C     C_R   0.577567 0.137685 0.602799 0.006049
C17   C     C_R   0.432382 0.697475 0.356184 -0.165882
C18   C     C_R   0.567618 0.197475 0.643814 -0.165882
C19   C     C_R   0.492990 0.718634 0.270476 0.118651
C20   C     C_R   0.507010 0.218635 0.729523 0.118651
C21   C     C_R   0.546900 0.678213 0.250045 0.059974
C22   C     C_R   0.453100 0.178213 0.749955 0.059974
C23   C     C_R   0.503314 0.779932 0.224033 0.082666
C24   C     C_R   0.496686 0.279932 0.775966 0.082665
C25   C     C_R   0.569486 0.800997 0.199327 0.016302
C26   C     C_R   0.430514 0.300997 0.800673 0.016302
C27   C     C_R   0.621763 0.759896 0.183604 -0.184116
C28   C     C_R   0.378237 0.259896 0.816397 -0.184117
C29   C     C_R   0.610345 0.699833 0.200294 -0.165955
C30   C     C_R   0.389655 0.199833 0.799707 -0.165955
C31   C     C_R   0.450718 0.821181 0.204582 -0.068003
C32   C     C_R   0.549282 0.321181 0.795417 -0.068002
C33   C     C_R   0.529333 0.903240 0.207588 -0.070443
C34   C     C_R   0.470667 0.403240 0.792413 -0.070444
C35   C     C_R   0.536838 0.617496 0.292165 -0.129449
C36   C     C_R   0.463162 0.117496 0.707835 -0.129449
H3    H     H_    0.467239 0.551717 0.395721 0.149003
H4    H     H_    0.532761 0.051717 0.604278 0.149003
H5    H     H_    0.393036 0.727415 0.401418 0.109400
H6    H     H_    0.606963 0.227415 0.598580 0.109400
H7    H     H_    0.652621 0.670665 0.185011 0.105987
H8    H     H_    0.347379 0.170665 0.814991 0.105987
C37   C     C_R   0.168215 0.884975 0.265009 -0.093891
C38   C     C_R   0.831785 0.384975 0.734991 -0.093891
C39   C     C_R   0.158436 0.844332 0.115828 -0.187111
C40   C     C_R   0.841564 0.344332 0.884172 -0.187111
C41   C     C_R   0.104747 0.805233 0.126885 -0.139182
C42   C     C_R   0.895253 0.305233 0.873115 -0.139182
C43   C     C_R   0.058886 0.805914 0.288347 0.415354
C44   C     C_R   0.941114 0.305914 0.711652 0.415354
C45   C     C_R   0.068029 0.846335 0.436065 -0.235087
C46   C     C_R   0.931971 0.346335 0.563935 -0.235087
C47   C     C_R   0.121695 0.885489 0.427847 -0.030660
C48   C     C_R   0.878305 0.385488 0.572153 -0.030660
C49   C     C_R   0.906023 0.684962 0.379686 -0.134562
C50   C     C_R   0.093977 0.184961 0.620314 -0.134562
C51   C     C_R   0.853024 0.645304 0.399137 -0.222808
C52   C     C_R   0.146976 0.145303 0.600863 -0.222808
C53   C     C_R   0.937290 0.697143 0.195983 0.430209
C54   C     C_R   0.062710 0.197143 0.804017 0.430209
N1    N     N_2   0.003870 0.766578 0.312297 -0.298125
N2    N     N_2   0.996130 0.266577 0.687702 -0.298125
N3    N     N_2   0.992320 0.736443 0.167479 -0.301316
N4    N     N_2   0.007680 0.236443 0.832521 -0.301316
C55   C     C_R   0.829651 0.616917 0.236419 -0.056637
C56   C     C_R   0.170349 0.116917 0.763581 -0.056637
H9    H     H_    0.830467 0.636837 0.542110 0.132827
H10   H     H_    0.169533 0.136836 0.457889 0.132827
H11   H     H_    0.922665 0.705527 0.508801 0.137990
H12   H     H_    0.077334 0.205526 0.491199 0.137990
H13   H     H_    0.032701 0.847100 0.560171 0.132447
H14   H     H_    0.967299 0.347100 0.439829 0.132447
C57   C     C_R   0.860829 0.629266 0.053712 -0.194977
C58   C     C_R   0.139171 0.129267 0.946288 -0.194977
C59   C     C_R   0.914056 0.668619 0.034435 -0.178300
C60   C     C_R   0.085945 0.168620 0.965565 -0.178300
H15   H     H_    0.844532 0.608124 0.925080 0.131197
H16   H     H_    0.155469 0.108125 0.074921 0.131196
H17   H     H_    0.099613 0.774407 0.009763 0.151037
H18   H     H_    0.900387 0.274407 0.990237 0.151037
H19   H     H_    0.937340 0.677012 0.892271 0.124748
H20   H     H_    0.062661 0.177013 0.107730 0.124748
H21   H     H_    0.192882 0.842365 0.990177 0.178549
H22   H     H_    0.807118 0.342365 0.009823 0.178549
C61   C     C_2   0.541148 0.968148 0.200826 0.505063
H23   H     H_    0.507352 0.997822 0.279853 0.010183
O21   O     O_2   0.586771 0.989322 0.100402 -0.487185
C62   C     C_2   0.458852 0.468148 0.799175 0.505063
H24   H     H_    0.492648 0.497822 0.720148 0.010183
O22   O     O_2   0.413228 0.489322 0.899600 -0.487186
C63   C     C_2   0.124379 0.927604 0.589285 0.364877
H25   H     H_    0.084627 0.959130 0.615828 0.038168
O23   O     O_2   0.168282 0.924700 0.701488 -0.516610
C64   C     C_2   0.875621 0.427604 0.410715 0.364877
H26   H     H_    0.915373 0.459130 0.384171 0.038168
O24   O     O_2   0.831718 0.424700 0.298512 -0.516610
C65   C     C_2   0.651887 0.884148 0.189949 0.512441
H27   H     H_    0.688164 0.868332 0.080467 0.028303
O25   O     O_2   0.669186 0.918992 0.310992 -0.474761
C66   C     C_2   0.348112 0.384148 0.810052 0.512440
H28   H     H_    0.311836 0.368332 0.919535 0.028303
O26   O     O_2   0.330813 0.418992 0.689009 -0.474761
C67   C     C_2   0.384456 0.802341 0.145918 0.370776
H29   H     H_    0.340388 0.826832 0.193120 0.023319
O27   O     O_2   0.378921 0.760594 0.037151 -0.520750
C68   C     C_2   0.615544 0.302341 0.854079 0.370776
H30   H     H_    0.659612 0.326832 0.806875 0.023319
O28   O     O_2   0.621079 0.260594 0.962846 -0.520750
C69   C     C_2   0.357578 0.617683 0.482935 0.490490
H31   H     H_    0.317845 0.649183 0.510972 0.039831
O29   O     O_2   0.347619 0.565978 0.523274 -0.477258
C70   C     C_2   0.642421 0.117683 0.517063 0.490490
H32   H     H_    0.682155 0.149182 0.489026 0.039832
O30   O     O_2   0.652381 0.065978 0.476724 -0.477258

loop_
_geom_bond_atom_site_label_1
_geom_bond_atom_site_label_2
_ccdc_geom_bond_type
C59   H19   S    
C57   H15   S    
C48   C64   S    
C66   H28   S    
C5    C55   S    
C16   C70   S    
O13   V3    S    
C34   C62   S    
C61   H23   S    
O4    C2    A    
V1    O19   S    
C62   H24   S    
C23   C31   A    
C65   H27   S    
C13   C15   A    
O9    V1    S    
C42   C44   A    
C31   C67   S    
C44   C46   A    
O3    C1    A    
C63   O23   D    
C49   H11   S    
C46   C48   A    
C65   O25   D    
H1    C27   S    
C3    C38   S    
O12   V4    S    
C51   H9    S    
C39   H21   S    
C58   H16   S    
C14   C36   A    
C29   H7    S    
C69   O29   D    
C19   C21   A    
C37   C39   A    
O7    C3    A    
C7    C35   S    
O5    C7    A    
C22   C36   A    
O7    V1    S    
O6    C8    A    
O8    V2    S    
C68   H30   S    
C23   C25   A    
C46   H14   S    
C24   C26   A    
O3    V1    S    
O14   V4    S    
C44   N2    S    
C10   C66   S    
C45   C47   A    
C9    C33   A    
C2    O12   A    
C12   C32   A    
C10   C34   A    
C15   C17   A    
C16   C18   A    
C6    C56   S    
C58   C60   A    
C49   C51   A    
C26   C28   A    
O11   V3    S    
C28   C30   A    
C27   C29   A    
O17   V3    S    
C13   C35   A    
C40   H22   S    
C50   H12   S    
C38   C48   A    
C24   C32   A    
C69   H31   S    
C40   C42   A    
C54   N4    S    
C32   C68   S    
C39   C41   A    
C56   C58   A    
C53   N3    S    
C1    O11   A    
C18   C20   A    
C50   C54   A    
O15   V3    S    
C9    C25   A    
C25   C27   A    
C42   H18   S    
C17   C19   A    
C41   H17   S    
C19   C23   A    
C17   H5    S    
O10   V2    S    
O1    V3    S    
C61   O21   D    
C52   H10   S    
C60   H20   S    
C43   C45   A    
C18   H6    S    
C11   C33   A    
C70   O30   D    
C12   C34   A    
C43   N1    S    
C57   C59   A    
N2    N4    D    
O18   V4    S    
C50   C52   A    
O15   C5    A    
O8    C4    A    
C4    C37   S    
O16   C6    A    
C37   C47   A    
O1    C3    A    
C2    C11   S    
C41   C43   A    
C51   C55   A    
C54   C60   A    
C15   C69   S    
C53   C59   A    
C64   H26   S    
C64   O24   D    
C21   C29   A    
C67   H29   S    
V2    O20   S    
C22   C30   A    
O10   C6    A    
C66   O26   D    
O16   V4    S    
C10   C26   A    
C14   C16   A    
C21   C35   A    
C62   O22   D    
O5    V1    S    
O17   C7    A    
C13   H3    S    
C20   C24   A    
O18   C8    A    
C14   H4    S    
O2    V4    S    
N1    N3    D    
V3    O19   S    
C30   H8    S    
C63   H25   S    
V4    O20   S    
O6    V2    S    
C47   C63   S    
O9    C5    A    
O13   V1    S    
C1    C12   S    
O14   V2    S    
O2    C4    A    
C11   C31   A    
H2    C28   S    
C70   H32   S    
O4    V2    S    
C20   C22   A    
C68   O28   D    
C33   C61   S    
C9    C65   S    
C38   C40   A    
C45   H13   S    
C52   C56   A    
C55   C57   A    
C49   C53   A    
C67   O27   D    
C8    C36   S    
