data_mof_unit_33490.cif
_audit_creation_date              2012-12-10T17:34:36-0500
_audit_creation_method            fapswitch 2.2
_symmetry_space_group_name_H-M    P1
_symmetry_Int_Tables_number       1
_space_group_crystal_system       triclinic
_cell_length_a                    15.652125
_cell_length_b                    15.415383
_cell_length_c                    19.428039
_cell_angle_alpha                 76.982369
_cell_angle_beta                  98.899537
_cell_angle_gamma                 111.895949
_cell_volume                      4224.75058905

loop_
_atom_site_label
_atom_site_type_symbol
_atom_type_description
_atom_site_fract_x
_atom_site_fract_y
_atom_site_fract_z
_atom_type_partial_charge
C1    C     C_R   0.746153 0.539380 0.526786 0.586887
C2    C     C_2   0.517187 0.549850 0.009351 0.249373
C3    C     C_2   0.478618 0.468663 0.983564 -0.079106
C4    C     C_R   0.252960 0.459483 0.470913 0.512720
C5    C     C_R   0.482674 0.477032 0.763701 0.029778
C6    C     C_R   0.998093 0.651189 0.571680 0.260193
C7    C     C_R   0.843428 0.552944 0.536783 0.004569
C8    C     C_R   0.095280 0.346143 0.444136 0.257746
C9    C     C_R   0.002105 0.310206 0.455242 -0.144356
C10   C     C_R   0.963029 0.362052 0.481231 -0.120787
C11   C     C_R   0.013463 0.455956 0.492501 0.037726
C12   C     C_R   0.517199 0.546078 0.086047 -0.032544
C13   C     C_R   0.109047 0.492804 0.481710 -0.071776
C14   C     C_R   0.973562 0.513230 0.516341 -0.048248
C15   C     C_R   0.034115 0.599149 0.539875 -0.023938
C16   C     C_R   0.454732 0.248806 0.528901 0.494298
C17   C     C_R   0.128605 0.634506 0.527564 0.288304
C18   C     C_R   0.160847 0.586263 0.490998 -0.120261
C19   C     C_R   0.876194 0.490377 0.515223 0.202587
C20   C     C_R   0.902937 0.632226 0.564379 0.179082
C21   C     C_R   0.151303 0.434999 0.462546 0.024224
C22   C     C_R   0.438868 0.012459 0.637173 0.259558
C23   C     C_R   0.599600 0.584934 0.127357 0.104514
C24   C     C_R   0.441160 0.147976 0.543987 -0.013525
C25   C     C_R   0.585392 0.903043 0.386687 -0.117643
C26   C     C_R   0.583206 0.994810 0.362953 0.094446
C27   C     C_R   0.551485 0.035719 0.406233 -0.083438
C28   C     C_R   0.545917 0.751286 0.472268 0.481841
C29   C     C_R   0.526535 0.988241 0.475534 0.006787
C30   C     C_R   0.538845 0.899506 0.501384 0.017820
C31   C     C_R   0.490395 0.025858 0.520329 -0.013381
C32   C     C_R   0.475665 0.978141 0.591809 0.058217
C33   C     C_R   0.500100 0.897765 0.617908 -0.142633
C34   C     C_R   0.597484 0.576717 0.200627 0.262393
C35   C     C_R   0.530866 0.858981 0.573570 -0.151986
C36   C     C_R   0.470170 0.110223 0.497122 -0.155853
C37   C     C_R   0.424758 0.099033 0.613191 -0.113853
C38   C     C_R   0.560603 0.853747 0.454738 -0.001146
C39   C     C_R   0.487316 0.485739 0.688159 0.501110
C40   C     C_R   0.511959 0.513270 0.310823 0.554253
C41   C     C_R   0.513802 0.524527 0.233445 0.049134
C42   C     C_R   0.431639 0.486987 0.191280 0.043572
C43   C     C_R   0.434030 0.498972 0.118251 -0.188095
C44   C     C_3   0.874090 0.771254 0.533119 0.025092
C45   C     C_R   0.563716 0.503486 0.877498 -0.113294
C46   C     C_3   0.813205 0.821027 0.549094 -0.255316
C47   C     C_3   0.813195 0.906348 0.491197 -0.484108
C48   C     C_3   0.271508 0.723149 0.579154 0.026624
C49   C     C_3   0.262520 0.645298 0.646194 -0.275440
C50   C     C_3   0.348132 0.669990 0.697948 -0.476191
C51   C     C_3   0.044373 0.710212 0.675879 0.043768
C52   C     C_3   0.052036 0.802450 0.697356 -0.244630
C53   C     C_3   0.035805 0.786350 0.775411 -0.493670
C54   C     C_3   0.749531 0.343895 0.517301 0.007289
C55   C     C_3   0.779431 0.314381 0.596353 -0.292003
C56   C     C_R   0.565295 0.508101 0.805570 -0.165431
C57   C     C_3   0.710207 0.219562 0.629332 -0.457659
C58   C     C_3   0.108780 0.282167 0.353283 0.019291
C59   C     C_3   0.162629 0.230181 0.330283 -0.236336
C60   C     C_3   0.134415 0.216707 0.253528 -0.496115
C61   C     C_3   0.340753 0.947179 0.728513 -0.002306
C62   C     C_3   0.349184 0.996088 0.790847 -0.257323
C63   C     C_3   0.255785 0.969396 0.819779 -0.489077
C64   C     C_3   0.701380 0.710929 0.236619 0.039341
C65   C     C_3   0.779479 0.745716 0.292873 -0.237949
C66   C     C_3   0.806266 0.852028 0.291015 -0.502807
C67   C     C_R   0.397319 0.436860 0.794701 0.089897
C68   C     C_3   0.515804 0.698855 0.957404 0.008261
C69   C     C_3   0.434684 0.677626 0.900596 -0.262816
C70   C     C_3   0.391111 0.754280 0.884228 -0.491989
C71   C     C_R   0.396008 0.431918 0.867668 0.132901
C72   C     C_R   0.479407 0.467304 0.908490 0.065868
H1    H     H_    0.894166 0.322908 0.494690 0.167059
H2    H     H_    0.550057 0.797560 0.597031 0.133205
H3    H     H_    0.441686 0.402574 0.017430 0.102337
H4    H     H_    0.628340 0.529038 0.909057 0.147504
H5    H     H_    0.370321 0.470289 0.086430 0.121579
H6    H     H_    0.318453 0.369276 0.210059 0.229661
H7    H     H_    0.299345 0.472843 0.198170 0.219017
H8    H     H_    0.269001 0.433282 0.874727 0.239203
H9    H     H_    0.276794 0.323644 0.892265 0.251096
H10   H     H_    0.850817 0.752143 0.479512 0.142533
H11   H     H_    0.946873 0.821328 0.532566 0.167960
H12   H     H_    0.960365 0.238664 0.447365 0.113694
H13   H     H_    0.741186 0.769890 0.553459 0.182809
H14   H     H_    0.838753 0.845364 0.600604 0.157030
H15   H     H_    0.884557 0.958406 0.485434 0.144780
H16   H     H_    0.769998 0.941828 0.505369 0.151797
H17   H     H_    0.783919 0.882837 0.439879 0.158942
H18   H     H_    0.305503 0.793624 0.595306 0.171851
H19   H     H_    0.317992 0.719143 0.543146 0.150992
H20   H     H_    0.201853 0.635666 0.673623 0.163592
H21   H     H_    0.252111 0.576667 0.630836 0.165915
H22   H     H_    0.410498 0.680373 0.672053 0.180892
H23   H     H_    0.227476 0.623154 0.470001 0.144056
H24   H     H_    0.340068 0.611491 0.744543 0.150889
H25   H     H_    0.357097 0.735772 0.716980 0.144482
H26   H     H_    0.100180 0.686307 0.706104 0.111896
H27   H     H_    0.977521 0.654210 0.692171 0.144493
H28   H     H_    0.121855 0.856214 0.687631 0.155683
H29   H     H_    0.000032 0.830626 0.664685 0.184600
H30   H     H_    0.964927 0.735453 0.785563 0.157181
H31   H     H_    0.043372 0.854766 0.789719 0.146691
H32   H     H_    0.086784 0.757768 0.809316 0.137184
H33   H     H_    0.734082 0.281916 0.491255 0.132400
H34   H     H_    0.406351 0.131378 0.649959 0.115431
H35   H     H_    0.682566 0.354684 0.511128 0.175231
H36   H     H_    0.848196 0.307186 0.601955 0.144746
H37   H     H_    0.784434 0.368943 0.627021 0.174945
H38   H     H_    0.733529 0.199870 0.685669 0.149189
H39   H     H_    0.704618 0.162472 0.600878 0.146837
H40   H     H_    0.641169 0.225083 0.627186 0.190377
H41   H     H_    0.125995 0.354583 0.319709 0.133951
H42   H     H_    0.033542 0.241821 0.344874 0.119797
H43   H     H_    0.237804 0.271755 0.335885 0.206154
H44   H     H_    0.149464 0.159301 0.365094 0.174643
H45   H     H_    0.631043 0.537592 0.782194 0.124892
H46   H     H_    0.060456 0.171263 0.247679 0.147162
H47   H     H_    0.176771 0.181544 0.237759 0.151106
H48   H     H_    0.145491 0.286522 0.217691 0.144195
H49   H     H_    0.309945 0.869010 0.746186 0.142387
H50   H     H_    0.291629 0.967088 0.685440 0.121384
H51   H     H_    0.397129 0.974933 0.833931 0.173500
H52   H     H_    0.378169 0.074451 0.773546 0.162477
H53   H     H_    0.206377 0.989429 0.777565 0.148184
H54   H     H_    0.264106 0.007739 0.863776 0.151111
H55   H     H_    0.227745 0.891777 0.840512 0.146114
H56   H     H_    0.494867 0.863620 0.673022 0.155981
H57   H     H_    0.628490 0.005399 0.266836 0.219095
H58   H     H_    0.667438 0.106023 0.299738 0.225696
H59   H     H_    0.317613 0.346696 0.729548 0.228981
H60   H     H_    0.301942 0.452599 0.714069 0.245521
H61   H     H_    0.695920 0.581382 0.070133 0.245571
H62   H     H_    0.686517 0.689988 0.060627 0.247362
H63   H     H_    0.640878 0.727300 0.246025 0.121166
H64   H     H_    0.724954 0.750103 0.183482 0.143697
H65   H     H_    0.757158 0.706471 0.346220 0.208756
H66   H     H_    0.840880 0.731220 0.283754 0.176844
H67   H     H_    0.482115 0.151758 0.444630 0.111063
H68   H     H_    0.830269 0.893080 0.238478 0.147601
H69   H     H_    0.863157 0.874750 0.332345 0.143105
H70   H     H_    0.746373 0.867842 0.301612 0.139134
H71   H     H_    0.565741 0.771262 0.939771 0.150352
H72   H     H_    0.491954 0.700437 0.008150 0.121004
H73   H     H_    0.459462 0.673526 0.851205 0.180727
H74   H     H_    0.381127 0.607987 0.919290 0.166802
H75   H     H_    0.367396 0.761024 0.933132 0.144264
H76   H     H_    0.330571 0.734774 0.845154 0.139121
H77   H     H_    0.441793 0.823744 0.861434 0.167683
H78   H     H_    0.603448 0.868815 0.351058 0.117160
H79   H     H_    0.549037 0.105520 0.384351 0.120545
N1    N     N_3   0.344983 0.437651 0.222099 -0.605746
N2    N     N_3   0.310223 0.393686 0.900279 -0.650608
N3    N     N_3   0.608876 0.046102 0.293432 -0.628496
N4    N     N_3   0.312133 0.398344 0.753701 -0.650942
N5    N     N_3   0.686953 0.628757 0.096886 -0.595749
O1    O     O_3   0.500000 0.500000 0.500000 -0.436919
O2    O     O_R   0.533750 0.444440 0.667550 -0.540682
O3    O     O_R   0.573150 0.573190 0.344350 -0.530775
O4    O     O_R   0.446010 0.535260 0.643730 -0.557979
O5    O     O_R   0.447090 0.447110 0.344370 -0.514976
O6    O     O_3   0.866931 0.690117 0.586509 -0.578966
O7    O     O_3   0.185287 0.723027 0.543011 -0.523256
O8    O     O_3   0.056020 0.727906 0.602394 -0.511405
O9    O     O_3   0.815725 0.422531 0.476842 -0.576903
O10   O     O_3   0.133622 0.287737 0.425629 -0.544023
O11   O     O_3   0.430103 0.967771 0.707639 -0.593092
O12   O     O_R   0.412670 0.287020 0.475980 -0.529742
O13   O     O_3   0.679223 0.612120 0.241279 -0.523044
O14   O     O_3   0.562830 0.634213 0.965267 -0.584774
O15   O     O_R   0.592640 0.718300 0.442410 -0.565463
O16   O     O_R   0.691640 0.476740 0.569450 -0.560920
O17   O     O_R   0.303050 0.517940 0.512160 -0.574701
O18   O     O_R   0.716100 0.590510 0.475920 -0.547005
O19   O     O_R   0.289200 0.414810 0.442470 -0.488169
O20   O     O_R   0.514260 0.299330 0.569480 -0.567541
O21   O     O_R   0.480430 0.695350 0.512130 -0.555224
Zn1   Zn    Zn3+2 0.413740 0.413730 0.441720 0.959220
Zn2   Zn    Zn3+2 0.558890 0.431320 0.575310 0.918971
Zn3   Zn    Zn3+2 0.433530 0.561080 0.541290 0.890722
Zn4   Zn    Zn3+2 0.593840 0.593870 0.441680 0.921708

loop_
_geom_bond_atom_site_label_1
_geom_bond_atom_site_label_2
_ccdc_geom_bond_type
C64   H64   S    
C35   H2    S    
C18   H23   S    
C39   O4    A    
C27   C29   A    
H61   N5    S    
C69   H73   S    
C56   H45   S    
C5    C56   A    
C5    C67   A    
C44   H11   S    
C2    C12   S    
C70   H75   S    
C62   H52   S    
H6    N1    S    
H8    N2    S    
C48   O7    S    
C34   C41   A    
C12   C23   A    
C26   C27   A    
C29   C30   A    
C22   C32   A    
C13   C18   A    
C68   H71   S    
C45   H4    S    
C61   H49   S    
C53   H31   S    
C12   C43   A    
C44   H10   S    
O1    Zn2   S    
H57   N3    S    
C11   C14   A    
C57   H40   S    
C53   H32   S    
C71   N2    S    
H60   N4    S    
H9    N2    S    
C30   C38   A    
C60   H47   S    
C67   N4    S    
C41   C42   A    
C64   O13   S    
O4    Zn3   S    
C17   O7    S    
C33   C35   A    
C6    C15   A    
C46   C47   S    
C68   O14   S    
O20   Zn2   S    
H62   N5    S    
C57   H38   S    
C45   C56   A    
C8    C9    A    
C48   H19   S    
C58   H41   S    
C60   H46   S    
C47   H16   S    
C42   N1    S    
C9    C10   A    
C46   H13   S    
C65   H65   S    
O21   Zn3   S    
C51   H26   S    
C64   H63   S    
C59   C60   S    
C16   C24   S    
C48   H18   S    
C23   N5    S    
C55   H37   S    
C45   C72   A    
C69   H74   S    
C47   H17   S    
C61   C62   S    
C70   H77   S    
O1    Zn4   S    
O18   Zn4   S    
C62   H51   S    
C44   C46   S    
C24   C37   A    
O19   Zn1   S    
C51   H27   S    
C1    O18   A    
C52   H29   S    
C51   C52   S    
C66   H69   S    
C68   C69   S    
C40   O5    A    
O17   Zn3   S    
C25   C26   A    
C59   H44   S    
C22   C37   A    
C52   H28   S    
C33   H56   S    
C61   H50   S    
C61   O11   S    
O1    Zn3   S    
C47   H15   S    
O2    Zn2   S    
C62   C63   S    
C25   C38   A    
C28   O15   A    
C31   C32   A    
C14   C15   A    
C28   C38   S    
C53   H30   S    
C23   C34   A    
C20   O6    S    
C17   C18   A    
C13   C21   A    
C51   O8    S    
H58   N3    S    
C24   C36   A    
O3    Zn4   S    
C63   H53   S    
C34   O13   S    
C8    O10   S    
C2    O14   S    
C22   O11   S    
C54   H35   S    
O16   Zn2   S    
C59   H43   S    
C40   C41   S    
C54   O9    S    
C6    O8    S    
C49   C50   S    
C7    C19   A    
C4    O17   A    
C5    C39   S    
C39   O2    A    
C26   N3    S    
C70   H76   S    
C42   C43   A    
C65   H66   S    
C49   H20   S    
C6    C20   A    
C52   C53   S    
C4    O19   A    
C28   O21   A    
C15   C17   A    
C54   C55   S    
C48   C49   S    
C50   H25   S    
C27   H79   S    
C54   H33   S    
C1    C7    S    
C40   O3    A    
C14   C19   A    
O15   Zn4   S    
C50   H22   S    
C8    C21   A    
C68   H72   S    
C66   H70   S    
C43   H5    S    
C30   C35   A    
C1    O16   A    
C55   H36   S    
C32   C33   A    
C55   C57   S    
C3    C72   S    
C3    H3    S    
C37   H34   S    
C44   O6    S    
C64   C65   S    
C4    C21   S    
C11   C13   A    
C50   H24   S    
C57   H39   S    
C16   O12   A    
O12   Zn1   S    
H59   N4    S    
C10   H1    S    
C60   H48   S    
C67   C71   A    
O1    Zn1   S    
C65   C66   S    
C69   C70   S    
C58   O10   S    
C36   H67   S    
C58   C59   S    
C63   H54   S    
C10   C11   A    
C9    H12   S    
C71   C72   A    
C66   H68   S    
C29   C31   A    
C7    C20   A    
C58   H42   S    
C31   C36   A    
C25   H78   S    
C2    C3    D    
C16   O20   A    
C19   O9    S    
C49   H21   S    
O5    Zn1   S    
C63   H55   S    
H7    N1    S    
C46   H14   S    
