data_mof_unit_61867.cif
_audit_creation_date              2012-12-10T20:27:09-0500
_audit_creation_method            fapswitch 2.2
_symmetry_space_group_name_H-M    P1
_symmetry_Int_Tables_number       1
_space_group_crystal_system       triclinic
_cell_length_a                    25.668449
_cell_length_b                    25.668624
_cell_length_c                    39.782514
_cell_angle_alpha                 90.000274
_cell_angle_beta                  90.000235
_cell_angle_gamma                 89.999795
_cell_volume                      26211.6548212

loop_
_atom_site_label
_atom_site_type_symbol
_atom_type_description
_atom_site_fract_x
_atom_site_fract_y
_atom_site_fract_z
_atom_type_partial_charge
Br1   Br    Br    0.915655 0.576986 0.374199 -0.461896
Br2   Br    Br    0.415365 0.923348 0.125822 -0.462803
Br3   Br    Br    0.923374 0.415346 0.874177 -0.461911
Br4   Br    Br    0.077075 0.584269 0.125798 -0.462624
Br5   Br    Br    0.415577 0.923103 0.874192 -0.462466
Br6   Br    Br    0.584632 0.076651 0.125821 -0.462250
Br7   Br    Br    0.076627 0.584655 0.874176 -0.462583
Br8   Br    Br    0.922925 0.415733 0.125795 -0.462071
Br9   Br    Br    0.084661 0.423380 0.625824 -0.462767
Br10  Br    Br    0.423377 0.084658 0.374177 -0.462041
Br11  Br    Br    0.576911 0.915591 0.625806 -0.462651
Br12  Br    Br    0.084346 0.423014 0.374198 -0.461911
Br13  Br    Br    0.915339 0.576621 0.625823 -0.462753
Br14  Br    Br    0.576623 0.915341 0.374177 -0.462081
Br15  Br    Br    0.423088 0.084410 0.625806 -0.462624
Br16  Br    Br    0.584421 0.076896 0.874195 -0.461795
C1    C     C_1   0.171825 0.328302 0.250083 -0.035361
C2    C     C_1   0.828301 0.328175 0.249917 -0.035445
C3    C     C_1   0.500000 0.999999 0.515122 0.002480
C4    C     C_1   0.499997 0.999999 0.984878 0.002478
C5    C     C_1   0.499997 0.999999 0.015128 0.002482
C6    C     C_1   0.000001 0.500003 0.984870 0.002477
C7    C     C_1   0.000001 0.500003 0.015120 0.002483
C8    C     C_R   0.500000 1.000000 0.341058 0.565286
C9    C     C_R   0.500000 0.000000 0.658940 0.565198
C10   C     C_R   0.000000 0.500000 0.341060 0.565104
C11   C     C_R   1.000000 0.500000 0.658942 0.565342
C12   C     C_R   0.000000 0.500000 0.841058 0.565283
C13   C     C_1   0.671698 0.828175 0.749918 -0.035493
C14   C     C_R   1.000000 0.500000 0.158940 0.565112
C15   C     C_R   0.500000 1.000000 0.841059 0.565146
C16   C     C_R   0.500000 1.000000 0.158942 0.565323
C17   C     C_R   0.599067 0.099049 0.249989 0.520312
C18   C     C_R   0.400933 0.900951 0.750011 0.520302
C19   C     C_R   0.900933 0.599049 0.250011 0.520266
C20   C     C_R   0.099067 0.400951 0.749989 0.520323
C21   C     C_R   0.400933 0.900951 0.249989 0.520304
C22   C     C_R   0.599067 0.099049 0.750011 0.520301
C23   C     C_R   0.099067 0.400951 0.250011 0.520261
C24   C     C_1   0.328302 0.171825 0.250084 -0.035357
C25   C     C_R   0.900933 0.599049 0.749989 0.520325
C26   C     C_R   0.599049 0.900933 0.749989 0.520269
C27   C     C_R   0.400951 0.099067 0.250011 0.520334
C28   C     C_R   0.900951 0.400933 0.750011 0.520352
C29   C     C_R   0.099049 0.599067 0.249989 0.520231
C30   C     C_R   0.400951 0.099067 0.749989 0.520275
C31   C     C_R   0.599049 0.900933 0.250011 0.520334
C32   C     C_R   0.099049 0.599067 0.750011 0.520352
C33   C     C_R   0.900951 0.400933 0.249989 0.520240
C34   C     C_R   0.207561 0.246091 0.271986 -0.091672
C35   C     C_1   0.828301 0.328175 0.750084 -0.035293
C36   C     C_R   0.789600 0.751070 0.725774 -0.091808
C37   C     C_R   0.753122 0.208352 0.272586 -0.096402
C38   C     C_R   0.247825 0.790702 0.726666 -0.096454
C39   C     C_R   0.792398 0.753868 0.272022 -0.091660
C40   C     C_R   0.210377 0.248908 0.725790 -0.091824
C41   C     C_R   0.248706 0.789821 0.273981 -0.096580
C42   C     C_R   0.754407 0.207065 0.728527 -0.096207
C43   C     C_R   0.209297 0.752174 0.726667 -0.096449
C44   C     C_R   0.791649 0.246880 0.272586 -0.096408
C45   C     C_R   0.751071 0.789599 0.725774 -0.091825
C46   C     C_1   0.171698 0.671825 0.249918 -0.035539
C47   C     C_R   0.246090 0.207562 0.271986 -0.091658
C48   C     C_R   0.792935 0.245593 0.728527 -0.096203
C49   C     C_R   0.210179 0.751293 0.273981 -0.096586
C50   C     C_R   0.248907 0.210378 0.725790 -0.091807
C51   C     C_R   0.753869 0.792398 0.272022 -0.091674
C52   C     C_R   0.710208 0.748736 0.774001 -0.096543
C53   C     C_R   0.292628 0.254100 0.228250 -0.096281
C54   C     C_R   0.251982 0.709490 0.773562 -0.091740
C55   C     C_R   0.747071 0.291457 0.227182 -0.091731
C56   C     C_R   0.289815 0.251287 0.773985 -0.096557
C57   C     C_1   0.328302 0.171825 0.749918 -0.035492
C58   C     C_R   0.707412 0.745941 0.228214 -0.096272
C59   C     C_R   0.745782 0.292746 0.771710 -0.091615
C60   C     C_R   0.251100 0.710371 0.225795 -0.091850
C61   C     C_R   0.708542 0.252928 0.227182 -0.091732
C62   C     C_R   0.290511 0.748020 0.773562 -0.091741
C63   C     C_R   0.254101 0.292628 0.228250 -0.096273
C64   C     C_R   0.748735 0.710208 0.774001 -0.096555
C65   C     C_R   0.289629 0.748901 0.225795 -0.091851
C66   C     C_R   0.707253 0.254217 0.771710 -0.091616
C67   C     C_R   0.745939 0.707412 0.228214 -0.096292
C68   C     C_1   0.671699 0.828175 0.250084 -0.035359
C69   C     C_R   0.251287 0.289814 0.773986 -0.096537
C70   C     C_R   0.211487 0.288694 0.250113 0.036398
C71   C     C_R   0.788512 0.711305 0.749892 0.036014
C72   C     C_R   0.711488 0.211306 0.249889 0.036263
C73   C     C_1   0.828174 0.671698 0.749919 -0.035490
C74   C     C_R   0.288512 0.788695 0.750109 0.036128
C75   C     C_R   0.788513 0.711306 0.250113 0.036392
C76   C     C_R   0.211488 0.288695 0.749893 0.036018
C77   C     C_R   0.288512 0.788694 0.249892 0.036016
C78   C     C_R   0.711486 0.211307 0.750113 0.036446
C79   C     C_R   0.211306 0.711488 0.750110 0.036135
C80   C     C_R   0.788694 0.288513 0.249889 0.036253
C81   C     C_R   0.711306 0.788512 0.749892 0.036008
C82   C     C_R   0.288693 0.211487 0.250113 0.036407
C83   C     C_R   0.788693 0.288514 0.750113 0.036453
C84   C     C_1   0.671826 0.171698 0.249918 -0.035441
C85   C     C_R   0.211306 0.711488 0.249892 0.036006
C86   C     C_R   0.288695 0.211488 0.749892 0.036011
C87   C     C_R   0.711307 0.788513 0.250113 0.036402
C88   C     C_R   0.965990 0.532614 0.431258 -0.082021
C89   C     C_R   0.034158 0.467538 0.568751 -0.081976
C90   C     C_R   0.467537 0.034155 0.431250 -0.082002
C91   C     C_R   0.532582 0.965959 0.568743 -0.081990
C92   C     C_R   0.034011 0.467387 0.431258 -0.082020
C93   C     C_R   0.965844 0.532462 0.568750 -0.081978
C94   C     C_R   0.532463 0.965844 0.431250 -0.082002
C95   C     C_1   0.328174 0.828302 0.750082 -0.035414
C96   C     C_R   0.467417 0.034040 0.568743 -0.081992
C97   C     C_R   0.534043 0.032576 0.931257 -0.082016
C98   C     C_R   0.465854 0.967524 0.068750 -0.081982
C99   C     C_R   0.967535 0.465849 0.931249 -0.082002
C100  C     C_R   0.032651 0.533976 0.068741 -0.082003
C101  C     C_R   0.465953 0.967422 0.931256 -0.082027
C102  C     C_R   0.534142 0.032474 0.068749 -0.081969
C103  C     C_R   0.032466 0.534155 0.931249 -0.082014
C104  C     C_R   0.967349 0.466028 0.068739 -0.081990
C105  C     C_1   0.361479 0.138598 0.250049 0.030649
C106  C     C_1   0.828174 0.671698 0.250083 -0.035365
C107  C     C_1   0.638521 0.861402 0.749952 0.030631
C108  C     C_1   0.861479 0.361402 0.249951 0.030593
C109  C     C_1   0.138521 0.638598 0.750049 0.030687
C110  C     C_1   0.638521 0.861402 0.250049 0.030650
C111  C     C_1   0.361479 0.138598 0.749951 0.030631
C112  C     C_1   0.138521 0.638598 0.249952 0.030577
C113  C     C_1   0.861479 0.361402 0.750049 0.030703
C114  C     C_1   0.361401 0.861480 0.750048 0.030680
C115  C     C_1   0.638599 0.138520 0.249952 0.030602
C116  C     C_1   0.861402 0.638520 0.749952 0.030638
C117  C     C_1   0.171826 0.328302 0.749919 -0.035489
C118  C     C_1   0.138598 0.361480 0.250048 0.030640
C119  C     C_1   0.638598 0.138520 0.750049 0.030695
C120  C     C_1   0.361402 0.861479 0.249952 0.030587
C121  C     C_1   0.138598 0.361480 0.749952 0.030637
C122  C     C_1   0.861401 0.638520 0.250048 0.030638
C123  C     C_R   0.000000 0.500000 0.378123 0.054189
C124  C     C_R   0.000000 0.500000 0.621883 0.054408
C125  C     C_R   0.500000 1.000000 0.378118 0.054304
C126  C     C_R   0.500000 1.000000 0.621878 0.054315
C127  C     C_R   0.499999 1.000000 0.878122 0.054229
C128  C     C_1   0.328174 0.828302 0.249919 -0.035535
C129  C     C_R   0.499999 1.000000 0.121882 0.054381
C130  C     C_R   0.000000 0.500001 0.878117 0.054316
C131  C     C_R   1.000000 0.500001 0.121876 0.054247
C132  C     C_R   0.965696 0.532880 0.396124 0.130769
C133  C     C_R   0.034447 0.467271 0.603885 0.130769
C134  C     C_R   0.467270 0.034446 0.396115 0.130722
C135  C     C_R   0.532849 0.965666 0.603878 0.130807
C136  C     C_R   0.034305 0.467121 0.396123 0.130764
C137  C     C_R   0.965553 0.532729 0.603885 0.130773
C138  C     C_R   0.532731 0.965554 0.396115 0.130717
C139  C     C_1   0.671825 0.171698 0.750083 -0.035296
C140  C     C_R   0.467151 0.034334 0.603878 0.130810
C141  C     C_R   0.534338 0.032843 0.896122 0.130735
C142  C     C_R   0.465564 0.967257 0.103884 0.130788
C143  C     C_R   0.967268 0.465557 0.896114 0.130700
C144  C     C_R   0.032916 0.534271 0.103875 0.130842
C145  C     C_R   0.465659 0.967157 0.896121 0.130775
C146  C     C_R   0.534433 0.032742 0.103884 0.130756
C147  C     C_R   0.032733 0.534445 0.896114 0.130739
C148  C     C_R   0.967084 0.465732 0.103874 0.130810
C149  C     C_R   0.000001 0.500000 0.448790 -0.027517
C150  C     C_1   0.171698 0.671825 0.750082 -0.035410
C151  C     C_R   0.000001 0.500000 0.551218 -0.027492
C152  C     C_R   0.500000 0.999999 0.448782 -0.027507
C153  C     C_R   0.500000 1.000000 0.551211 -0.027499
C154  C     C_R   0.499998 0.999999 0.948789 -0.027518
C155  C     C_R   0.499998 0.999999 0.051217 -0.027492
C156  C     C_R   0.000001 0.500003 0.948781 -0.027511
C157  C     C_R   0.000001 0.500002 0.051208 -0.027503
C158  C     C_1   0.000001 0.500000 0.484879 0.002482
C159  C     C_1   0.000001 0.500000 0.515129 0.002479
C160  C     C_1   0.500000 0.999999 0.484872 0.002481
H1    H     H_    0.939393 0.557681 0.444900 0.162105
H2    H     H_    0.439153 0.942568 0.055108 0.162067
H3    H     H_    0.942586 0.439142 0.944890 0.162128
H4    H     H_    0.057748 0.560545 0.055099 0.162069
H5    H     H_    0.439328 0.942384 0.944897 0.162076
H6    H     H_    0.560843 0.057431 0.055108 0.162117
H7    H     H_    0.057416 0.560863 0.944890 0.162075
H8    H     H_    0.942253 0.439460 0.055097 0.162119
H9    H     H_    0.242671 0.174772 0.288994 0.132520
H10   H     H_    0.752282 0.820182 0.707020 0.133749
H11   H     H_    0.823669 0.244229 0.290248 0.125894
H12   H     H_    0.060868 0.442592 0.555110 0.162087
H13   H     H_    0.178014 0.754088 0.708424 0.125974
H14   H     H_    0.757258 0.825156 0.289057 0.132519
H15   H     H_    0.247677 0.179778 0.707047 0.133760
H16   H     H_    0.179581 0.752521 0.292725 0.125936
H17   H     H_    0.825956 0.241941 0.711728 0.125912
H18   H     H_    0.245910 0.821985 0.708424 0.125977
H19   H     H_    0.755773 0.176332 0.290249 0.125890
H20   H     H_    0.820183 0.752281 0.707020 0.133754
H21   H     H_    0.174771 0.242673 0.288993 0.132519
H22   H     H_    0.758060 0.174044 0.711727 0.125916
H23   H     H_    0.442589 0.060865 0.444891 0.162104
H24   H     H_    0.247478 0.820418 0.292725 0.125931
H25   H     H_    0.179776 0.247679 0.707048 0.133724
H26   H     H_    0.825157 0.757255 0.289057 0.132557
H27   H     H_    0.747529 0.679634 0.792762 0.125962
H28   H     H_    0.257514 0.325410 0.211236 0.125896
H29   H     H_    0.321802 0.746100 0.791798 0.133409
H30   H     H_    0.676513 0.255584 0.209526 0.132932
H31   H     H_    0.252511 0.320406 0.792734 0.125981
H32   H     H_    0.742557 0.674662 0.211172 0.125878
H33   H     H_    0.674224 0.257875 0.788503 0.132427
H34   H     H_    0.557624 0.939339 0.555101 0.162088
H35   H     H_    0.320235 0.747667 0.207056 0.133698
H36   H     H_    0.744413 0.323485 0.209525 0.132954
H37   H     H_    0.253902 0.678199 0.791799 0.133394
H38   H     H_    0.325411 0.257512 0.211236 0.125870
H39   H     H_    0.679633 0.747531 0.792761 0.125985
H40   H     H_    0.252334 0.679766 0.207056 0.133720
H41   H     H_    0.742124 0.325775 0.788503 0.132413
H42   H     H_    0.674660 0.742559 0.211173 0.125891
H43   H     H_    0.320408 0.252509 0.792733 0.125965
H44   H     H_    0.060608 0.442320 0.444900 0.162105
H45   H     H_    0.939133 0.557409 0.555109 0.162087
H46   H     H_    0.557410 0.939134 0.444891 0.162102
H47   H     H_    0.442375 0.060660 0.555101 0.162089
H48   H     H_    0.560668 0.057614 0.944899 0.162129
O1    O     O_3   0.500000 1.000000 0.250000 -0.466154
O2    O     O_R   0.457230 0.000000 0.675160 -0.501850
O3    O     O_R   1.000000 0.542770 0.324840 -0.501842
O4    O     O_R   0.000000 0.457230 0.675160 -0.501850
O5    O     O_R   0.957230 0.500000 0.824840 -0.501902
O6    O     O_R   0.042770 0.500000 0.175160 -0.501780
O7    O     O_R   0.500000 0.957230 0.824840 -0.501844
O8    O     O_R   0.500000 0.042770 0.175160 -0.501868
O9    O     O_R   0.042770 0.500000 0.824840 -0.501899
O10   O     O_R   0.957230 0.500000 0.175160 -0.501789
O11   O     O_R   0.500000 0.042770 0.824840 -0.501849
O12   O     O_3   0.500000 1.000000 0.750000 -0.466195
O13   O     O_R   0.500000 0.957230 0.175160 -0.501863
O14   O     O_R   0.602770 0.060140 0.269640 -0.535712
O15   O     O_R   0.397230 0.939860 0.730360 -0.535656
O16   O     O_R   0.939860 0.602770 0.269640 -0.515145
O17   O     O_R   0.060140 0.397230 0.730360 -0.515231
O18   O     O_R   0.397230 0.939860 0.269640 -0.535702
O19   O     O_R   0.602770 0.060140 0.730360 -0.535665
O20   O     O_R   0.060140 0.397230 0.269640 -0.515182
O21   O     O_R   0.939860 0.602770 0.730360 -0.515185
O22   O     O_R   0.602770 0.939860 0.730360 -0.515200
O23   O     O_3   1.000000 0.500000 0.250000 -0.466187
O24   O     O_R   0.397230 0.060140 0.269640 -0.515183
O25   O     O_R   0.939860 0.397230 0.730360 -0.535674
O26   O     O_R   0.060140 0.602770 0.269640 -0.535694
O27   O     O_R   0.397230 0.060140 0.730360 -0.515154
O28   O     O_R   0.602770 0.939860 0.269640 -0.515220
O29   O     O_R   0.060140 0.602770 0.730360 -0.535662
O30   O     O_R   0.939860 0.397230 0.269640 -0.535704
O31   O     O_R   0.102770 0.560140 0.769640 -0.515182
O32   O     O_R   0.897230 0.439860 0.230360 -0.515177
O33   O     O_R   0.439860 0.102770 0.769640 -0.535694
O34   O     O_3   1.000000 0.500000 0.750000 -0.466172
O35   O     O_R   0.560140 0.897230 0.230360 -0.535673
O36   O     O_R   0.897230 0.439860 0.769640 -0.515181
O37   O     O_R   0.102770 0.560140 0.230360 -0.515169
O38   O     O_R   0.560140 0.897230 0.769640 -0.535652
O39   O     O_R   0.439860 0.102770 0.230360 -0.535708
O40   O     O_R   0.102770 0.439860 0.230360 -0.535660
O41   O     O_R   0.897230 0.560140 0.769640 -0.535701
O42   O     O_R   0.439860 0.897230 0.230360 -0.515216
O43   O     O_R   0.560140 0.102770 0.769640 -0.515154
O44   O     O_R   0.897230 0.560140 0.230360 -0.535695
O45   O     O_R   0.457230 0.000000 0.324840 -0.501913
O46   O     O_R   0.102770 0.439860 0.769640 -0.535659
O47   O     O_R   0.560140 0.102770 0.230360 -0.515222
O48   O     O_R   0.439860 0.897230 0.769640 -0.515151
O49   O     O_R   0.542770 0.000000 0.675160 -0.501791
O50   O     O_R   1.000000 0.457230 0.324840 -0.501796
O51   O     O_R   0.000000 0.542770 0.675160 -0.501905
O52   O     O_R   0.542770 0.000000 0.324840 -0.501869
Zn1   Zn    Zn3+2 0.500000 0.061050 0.221990 1.000842
Zn2   Zn    Zn3+2 1.000000 0.438950 0.278010 1.000798
Zn3   Zn    Zn3+2 0.438950 0.000000 0.721990 1.000851
Zn4   Zn    Zn3+2 0.561050 1.000000 0.278010 1.000839
Zn5   Zn    Zn3+2 1.000000 0.438950 0.721990 1.000875
Zn6   Zn    Zn3+2 1.000000 0.561050 0.278010 1.000800
Zn7   Zn    Zn3+2 0.561050 0.000000 0.721990 1.000850
Zn8   Zn    Zn3+2 0.438950 1.000000 0.278010 1.000840
Zn9   Zn    Zn3+2 0.500000 0.938950 0.778010 1.000846
Zn10  Zn    Zn3+2 0.938950 0.500000 0.221990 1.000809
Zn11  Zn    Zn3+2 0.061050 0.500000 0.778010 1.000875
Zn12  Zn    Zn3+2 0.500000 0.938950 0.221990 1.000854
Zn13  Zn    Zn3+2 0.500000 0.061050 0.778010 1.000838
Zn14  Zn    Zn3+2 0.061050 0.500000 0.221990 1.000820
Zn15  Zn    Zn3+2 0.938950 0.500000 0.778010 1.000866
Zn16  Zn    Zn3+2 1.000000 0.561050 0.721990 1.000877

loop_
_geom_bond_atom_site_label_1
_geom_bond_atom_site_label_2
_ccdc_geom_bond_type
O34   Zn15  S    
O8    Zn1   S    
C4    C154  S    
C92   C149  A    
C16   O8    A    
C27   O39   A    
C117  C121  T    
C66   C78   A    
C33   O30   A    
C54   C62   A    
O12   Zn3   S    
C2    C80   S    
C50   C86   A    
C25   O41   A    
C9    C126  S    
C36   H20   S    
C49   C85   A    
O46   Zn11  S    
C26   O38   A    
C42   C78   A    
C56   C69   A    
C35   C113  T    
C84   C115  T    
O33   Zn13  S    
C14   C131  S    
C91   H34   S    
O9    Zn11  S    
C62   C74   A    
C24   C105  T    
Br9   C133  S    
C73   C116  T    
O25   Zn5   S    
C100  C157  A    
C16   C129  S    
C38   H18   S    
C20   O17   A    
O30   Zn2   S    
C89   H12   S    
C151  C159  S    
C98   H2    S    
C38   C74   A    
C47   C82   A    
O14   Zn4   S    
O51   Zn16  S    
C19   C122  S    
C24   C82   S    
C158  C159  T    
C101  H5    S    
C125  C138  A    
C41   C77   A    
C64   H27   S    
C16   O13   A    
C59   H41   S    
C29   C112  S    
C104  C157  A    
O31   Zn11  S    
C9    O2    A    
C60   C85   A    
C119  C139  T    
O1    Zn8   S    
C90   C134  A    
C52   H39   S    
C88   C132  A    
C3    C160  T    
C98   C142  A    
C9    O49   A    
C17   O14   A    
C93   C151  A    
O19   Zn7   S    
C32   C109  S    
C92   C136  A    
C94   C152  A    
C101  C154  A    
C69   C76   A    
C48   C83   A    
C26   O22   A    
Br6   C146  S    
C61   C72   A    
C31   O35   A    
C78   C139  S    
C47   H9    S    
C75   C106  S    
C15   O7    A    
C125  C134  A    
O13   Zn12  S    
C39   C75   A    
O45   Zn8   S    
C19   O44   A    
C37   C72   A    
C93   C137  A    
C20   C121  S    
C27   O24   A    
O23   Zn6   S    
O6    Zn14  S    
C12   O9    A    
O2    Zn3   S    
C66   H33   S    
C91   C135  A    
C53   C82   A    
C17   C115  S    
C76   C117  S    
C88   C149  A    
O36   Zn15  S    
C48   H17   S    
O16   Zn6   S    
C17   O47   A    
C22   O19   A    
Br3   C143  S    
C34   C47   A    
O26   Zn6   S    
C18   O48   A    
O12   Zn7   S    
C43   C79   A    
C74   C95   S    
O23   Zn10  S    
C131  C144  A    
O18   Zn8   S    
C34   H21   S    
C26   C107  S    
C127  C141  A    
C38   C43   A    
C102  H6    S    
O21   Zn16  S    
C68   C110  T    
C98   C155  A    
C123  C132  A    
C51   H14   S    
C19   O16   A    
C51   C87   A    
C1    C70   S    
O49   Zn7   S    
O1    Zn12  S    
O52   Zn4   S    
C30   C111  S    
O5    Zn15  S    
C106  C122  T    
C12   O5    A    
C10   C123  S    
Br8   C148  S    
C103  C147  A    
C10   O50   A    
C33   O32   A    
C104  C148  A    
C52   C81   A    
C18   C114  S    
O40   Zn14  S    
C130  C143  A    
C42   C48   A    
C101  C145  A    
C149  C158  S    
C57   C111  T    
C33   C108  S    
Br7   C147  S    
C40   H25   S    
C89   C151  A    
O15   Zn3   S    
O34   Zn11  S    
O24   Zn8   S    
C90   C152  A    
C126  C135  A    
C22   O43   A    
C97   H48   S    
C67   H32   S    
C94   C138  A    
C29   O26   A    
C28   O36   A    
C35   C83   S    
C65   C77   A    
C60   H40   S    
C95   C114  T    
C29   O37   A    
C88   H1    S    
C49   H16   S    
O43   Zn13  S    
C8    C125  S    
Br2   C142  S    
O37   Zn14  S    
C58   H42   S    
C59   C83   A    
Br15  C140  S    
C21   C120  S    
O32   Zn10  S    
O22   Zn7   S    
C103  H7    S    
C22   C119  S    
C14   O10   A    
C32   O31   A    
C25   O21   A    
C18   O15   A    
C104  H8    S    
Br13  C137  S    
C31   O28   A    
C72   C84   S    
C77   C128  S    
C7    C157  S    
C44   C80   A    
O12   Zn13  S    
Br11  C135  S    
C57   C86   S    
C65   H35   S    
C55   H36   S    
C44   H11   S    
C100  H4    S    
C50   H15   S    
C96   C140  A    
C37   H19   S    
C96   H47   S    
C53   C63   A    
O29   Zn16  S    
O28   Zn4   S    
C46   C85   S    
C52   C64   A    
C94   H46   S    
O3    Zn6   S    
C55   C61   A    
C93   H45   S    
C69   H31   S    
C31   C110  S    
C11   O51   A    
C23   O20   A    
C91   C153  A    
O34   Zn16  S    
C79   C150  S    
C152  C160  S    
C56   H43   S    
C27   C105  S    
C102  C146  A    
C20   O46   A    
C21   O18   A    
O44   Zn10  S    
Br16  C141  S    
O50   Zn2   S    
C54   H37   S    
O39   Zn1   S    
C36   C71   A    
C45   C81   A    
C53   H38   S    
O11   Zn13  S    
C41   C49   A    
C99   C156  A    
O48   Zn9   S    
C60   C65   A    
Br10  C134  S    
C25   C116  S    
C39   C51   A    
C59   C66   A    
C100  C144  A    
C97   C154  A    
C55   C80   A    
C23   O40   A    
C64   C71   A    
C89   C133  A    
C67   C75   A    
C130  C147  A    
C103  C156  A    
C12   C130  S    
C11   C124  S    
O23   Zn2   S    
O4    Zn5   S    
C13   C81   S    
C123  C136  A    
C36   C45   A    
C126  C140  A    
Br5   C145  S    
C14   O6    A    
C10   O3    A    
C71   C73   S    
C54   C79   A    
C28   C113  S    
C62   H29   S    
C41   H24   S    
C5    C155  S    
C61   H30   S    
Br14  C138  S    
C46   C112  T    
C129  C142  A    
C39   H26   S    
C6    C156  S    
C3    C153  S    
C23   C118  S    
Br4   C144  S    
C15   O11   A    
C102  C155  A    
C30   O33   A    
C40   C50   A    
C13   C107  T    
O23   Zn14  S    
O10   Zn10  S    
C45   H10   S    
O1    Zn4   S    
C131  C148  A    
C109  C150  T    
O34   Zn5   S    
C58   C67   A    
C21   O42   A    
C15   C127  S    
O35   Zn12  S    
C11   O4    A    
C56   C86   A    
O27   Zn3   S    
C30   O27   A    
C90   H23   S    
C42   H22   S    
C37   C44   A    
C34   C70   A    
Br12  C136  S    
C92   H44   S    
C43   H13   S    
O42   Zn12  S    
C28   O25   A    
O47   Zn1   S    
O38   Zn9   S    
C4    C5    T    
C96   C153  A    
C120  C128  T    
C63   H28   S    
C129  C146  A    
O20   Zn2   S    
C99   C143  A    
C1    C118  T    
O41   Zn15  S    
C68   C87   S    
O1    Zn1   S    
C6    C7    T    
O7    Zn9   S    
Br1   C132  S    
O17   Zn5   S    
O12   Zn9   S    
C124  C137  A    
C97   C141  A    
C32   O29   A    
C40   C76   A    
C124  C133  A    
C127  C145  A    
C63   C70   A    
C99   H3    S    
C2    C108  T    
C58   C87   A    
C8    O45   A    
C8    O52   A    
