data_mof_unit_58687.cif
_audit_creation_date              2012-12-10T16:55:00-0500
_audit_creation_method            fapswitch 2.2
_symmetry_space_group_name_H-M    P1
_symmetry_Int_Tables_number       1
_space_group_crystal_system       triclinic
_cell_length_a                    9.761761
_cell_length_b                    10.925543
_cell_length_c                    15.669452
_cell_angle_alpha                 90.729798
_cell_angle_beta                  72.395759
_cell_angle_gamma                 89.620822
_cell_volume                      1592.69697397

loop_
_atom_site_label
_atom_site_type_symbol
_atom_type_description
_atom_site_fract_x
_atom_site_fract_y
_atom_site_fract_z
_atom_type_partial_charge
C1    C     C_R   0.999922 0.265534 0.501744 0.865808
C2    C     C_R   0.681943 0.548592 0.917453 0.011267
C3    C     C_R   0.777542 0.498797 0.960341 0.101166
C4    C     C_R   0.547009 0.596256 0.971969 0.046244
C5    C     C_R   0.495064 0.562673 0.063016 0.015114
C6    C     C_R   0.596369 0.522735 0.106084 0.128296
C7    C     C_R   0.734626 0.487045 0.053249 -0.211512
C8    C     C_R   0.466692 0.683780 0.940938 -0.179153
C9    C     C_R   0.327516 0.716462 0.991244 -0.227110
C10   C     C_R   0.263646 0.660018 0.072661 0.170551
C11   C     C_R   0.345575 0.578131 0.107474 0.089519
C12   C     C_R   0.914562 0.502449 0.672401 0.802451
C13   C     C_R   0.120624 0.687240 0.121445 -0.195623
C14   C     C_R   0.059000 0.633187 0.204152 -0.215272
C15   C     C_R   0.274167 0.511128 0.183584 -0.267329
C16   C     C_2   0.876637 0.936887 0.534933 0.153504
C17   C     C_2   0.996254 0.867635 0.497878 -0.381019
C18   C     C_2   0.881870 0.068885 0.517127 -0.144169
C19   C     C_2   0.999396 0.133978 0.511666 -0.374764
C20   C     C_2   0.453605 0.442039 0.443628 0.019182
C21   C     C_2   0.609632 0.463145 0.434608 -0.105743
C22   C     C_R   0.998265 0.734754 0.501594 0.836039
C23   C     C_R   0.084580 0.506215 0.328602 0.789376
C24   C     C_R   0.864597 0.507090 0.771920 -0.134663
C25   C     C_R   0.134483 0.543103 0.234862 -0.042722
C26   C     C_R   0.917187 0.463990 0.910355 -0.177208
C27   C     C_R   0.961469 0.472030 0.817642 -0.195393
C28   C     C_R   0.721521 0.541820 0.822159 -0.053678
Cu1   Cu    Cu3+1 0.138640 0.500020 0.499980 0.929333
Cu2   Cu    Cu3+1 0.861360 0.499980 0.500020 0.946951
H1    H     H_    0.811062 0.452395 0.085055 0.153797
H2    H     H_    0.059112 0.754521 0.097765 0.137554
H3    H     H_    0.095910 0.908790 0.458611 0.139333
H4    H     H_    0.785145 0.114061 0.512367 0.178923
H5    H     H_    0.094966 0.091552 0.520565 0.156263
H6    H     H_    0.429985 0.378983 0.396086 0.111159
H7    H     H_    0.688430 0.445212 0.370219 0.164282
H8    H     H_    0.587230 0.473173 0.562609 0.230206
H9    H     H_    0.329173 0.438076 0.206449 0.140912
H10   H     H_    0.956146 0.666805 0.246341 0.157341
H11   H     H_    0.268772 0.783592 0.965317 0.143698
H12   H     H_    0.992856 0.430453 0.943174 0.147449
H13   H     H_    0.070602 0.444565 0.781331 0.174458
H14   H     H_    0.512924 0.732372 0.879621 0.168191
N1    N     N_2   0.346430 0.498660 0.500980 -0.158169
N2    N     N_2   0.652550 0.498630 0.501000 -0.285102
O1    O     O_R   0.117050 0.321960 0.499980 -0.580278
O2    O     O_R   0.882890 0.321920 0.500020 -0.574168
O3    O     O_R   0.052910 0.500040 0.629810 -0.599499
O4    O     O_R   0.818750 0.499990 0.629840 -0.550232
O5    O     O_R   0.117110 0.678080 0.499980 -0.588857
O6    O     O_R   0.882950 0.678040 0.500020 -0.567099
O7    O     O_R   0.181250 0.500010 0.370160 -0.584854
O8    O     O_R   0.947090 0.499960 0.370190 -0.586575
C29   C     C_3   0.738011 0.881997 0.594614 -0.318726
C30   C     C_3   0.629310 0.974682 0.651868 -0.854069
H15   H     H_    0.681366 0.035156 0.690189 0.266423
H16   H     H_    0.581173 0.030615 0.609423 0.241348
H17   H     H_    0.540961 0.925020 0.700223 0.253653
H18   H     H_    0.684436 0.829025 0.553059 0.223750
H19   H     H_    0.767089 0.819452 0.641767 0.246691
C31   C     C_3   0.367447 0.609957 0.548697 -0.044072
C32   C     C_3   0.432569 0.715000 0.485636 -0.833961
H20   H     H_    0.387843 0.717556 0.428420 0.264885
H21   H     H_    0.408018 0.803588 0.522934 0.214672
H22   H     H_    0.550986 0.705638 0.459242 0.240159
H23   H     H_    0.261714 0.641636 0.592763 0.203752
H24   H     H_    0.423238 0.594475 0.598547 0.104827
C33   C     C_2   0.608818 0.554137 0.777159 0.844395
O9    O     O_2   0.512301 0.479261 0.790846 -0.599498
O10   O     O_R   0.609942 0.654217 0.722534 -0.797876
H25   H     H_    0.520740 0.659408 0.702689 0.313356
C34   C     C_3   0.570131 0.537428 0.206605 -0.406890
C35   C     C_3   0.688598 0.610071 0.228411 -0.863098
H26   H     H_    0.783699 0.549835 0.219515 0.248673
H27   H     H_    0.718284 0.691132 0.184765 0.262407
H28   H     H_    0.651713 0.642739 0.299059 0.245573
H29   H     H_    0.470140 0.589777 0.239339 0.229552
H30   H     H_    0.562535 0.445693 0.237315 0.185897

loop_
_geom_bond_atom_site_label_1
_geom_bond_atom_site_label_2
_ccdc_geom_bond_type
C29   C30   S    
C32   H21   S    
C34   C35   S    
C13   H2    S    
C28   C33   S    
C24   C27   A    
C4    C8    A    
C12   O3    A    
Cu1   O3    S    
Cu2   O8    S    
C26   C27   A    
C31   C32   S    
C35   H27   S    
C31   H23   S    
Cu1   O1    S    
Cu2   O2    S    
C5    C11   A    
C3    C7    A    
C5    C6    A    
C15   C25   A    
N1    C31   S    
C30   H15   S    
C18   C19   D    
C33   O10   S    
C11   C15   A    
C8    C9    A    
C35   H28   S    
C34   H29   S    
C9    C10   A    
C20   N1    D    
Cu2   O4    S    
C32   H22   S    
C13   C14   A    
C17   H3    S    
C23   O7    A    
C1    C19   S    
C7    H1    S    
C35   H26   S    
C24   C28   A    
C1    O1    A    
Cu1   N1    S    
C2    C4    A    
Cu1   Cu2   S    
C6    C34   S    
C34   H30   S    
C18   H4    S    
C15   H9    S    
C26   H12   S    
C23   O8    A    
C22   O6    A    
C21   N2    D    
Cu1   O5    S    
Cu2   O6    S    
Cu2   N2    S    
C3    C26   A    
C8    H14   S    
C4    C5    A    
C10   C13   A    
C12   O4    A    
C1    O2    A    
C6    C7    A    
C12   C24   S    
C9    H11   S    
C17   C22   S    
C30   H17   S    
C31   H24   S    
C2    C3    A    
C16   C29   S    
O10   H25   S    
C19   H5    S    
C16   C17   D    
Cu1   O7    S    
C29   H19   S    
C30   H16   S    
C23   C25   S    
C14   C25   A    
C33   O9    D    
H8    N2    S    
C10   C11   A    
C14   H10   S    
C32   H20   S    
C20   H6    S    
C27   H13   S    
C21   H7    S    
C20   C21   S    
C16   C18   S    
C2    C28   A    
C29   H18   S    
C22   O5    A    
