data_mof_unit_42544.cif
_audit_creation_date              2012-12-11T15:37:16-0500
_audit_creation_method            fapswitch 2.2
_symmetry_space_group_name_H-M    P1
_symmetry_Int_Tables_number       1
_space_group_crystal_system       triclinic
_cell_length_a                    17.453325
_cell_length_b                    24.547236
_cell_length_c                    14.820069
_cell_angle_alpha                 90.458466
_cell_angle_beta                  126.048857
_cell_angle_gamma                 88.871132
_cell_volume                      5132.52124319

loop_
_atom_site_label
_atom_site_type_symbol
_atom_type_description
_atom_site_fract_x
_atom_site_fract_y
_atom_site_fract_z
_atom_type_partial_charge
C1    C     C_R   0.821494 0.638769 0.909555 0.620808
C2    C     C_R   0.150559 0.347568 0.090684 0.628882
C3    C     C_R   0.162001 0.646788 0.091740 0.652238
C4    C     C_R   0.847979 0.349377 0.907817 0.608245
C5    C     C_R   0.321607 0.138800 0.908770 0.628035
C6    C     C_R   0.650533 0.847492 0.090668 0.593937
C7    C     C_R   0.662791 0.146368 0.092015 0.664469
C8    C     C_R   0.346638 0.849749 0.908055 0.596803
C9    C     C_3   0.403515 0.499723 0.460509 -0.246358
C10   C     C_3   0.577164 0.498005 0.645622 -0.241115
C11   C     C_3   0.906337 0.999354 0.455122 -0.244892
C12   C     C_3   0.077688 0.998285 0.643548 -0.240155
C13   C     C_R   0.852861 0.230199 0.040476 0.384260
C14   C     C_R   0.172045 0.764888 0.981097 0.417347
C15   C     C_R   0.190567 0.224626 0.094690 0.490970
C16   C     C_R   0.653999 0.688707 0.893051 0.507902
C17   C     C_R   0.346887 0.728710 0.026651 0.391969
C18   C     C_R   0.668318 0.263000 0.968764 0.416643
C19   C     C_R   0.685314 0.723331 0.092384 0.508838
C20   C     C_R   0.154501 0.190073 0.891239 0.520581
C21   C     C_R   0.287008 0.691230 0.024199 0.346639
C22   C     C_R   0.727781 0.300970 0.971997 0.302219
C23   C     C_R   0.745677 0.683755 0.095094 0.261134
C24   C     C_R   0.097687 0.230668 0.893604 0.222934
C25   C     C_R   0.793773 0.192460 0.038788 0.358220
C26   C     C_R   0.231868 0.802415 0.983771 0.297985
C27   C     C_R   0.243425 0.181092 0.091974 0.255153
C28   C     C_R   0.596576 0.729992 0.893126 0.217522
C29   C     C_R   0.199803 0.710149 0.998358 -0.234023
C30   C     C_R   0.818829 0.283530 0.007512 -0.271943
C31   C     C_R   0.739777 0.674009 0.996820 -0.283374
C32   C     C_R   0.130702 0.255302 0.995815 -0.199880
C33   C     C_R   0.701791 0.209488 0.999614 -0.235807
C34   C     C_R   0.318611 0.783448 0.007834 -0.263678
C35   C     C_R   0.239118 0.173953 0.994336 -0.278944
C36   C     C_R   0.627356 0.754636 0.994625 -0.209123
C37   C     C_R   0.107510 0.448189 0.629722 -0.194745
C38   C     C_R   0.115295 0.546988 0.543948 -0.153284
C39   C     C_R   0.111616 0.448448 0.539328 -0.148393
C40   C     C_R   0.111856 0.546672 0.634915 -0.170087
C41   C     C_R   0.607155 0.948127 0.629421 -0.192308
C42   C     C_R   0.615288 0.046933 0.543935 -0.153947
C43   C     C_R   0.611268 0.948396 0.539051 -0.156582
C44   C     C_R   0.611816 0.046604 0.634872 -0.175619
C45   C     C_R   0.104274 0.498106 0.488287 0.173994
C46   C     C_R   0.095912 0.497576 0.668749 0.143629
C47   C     C_R   0.604114 0.998068 0.488165 0.176598
C48   C     C_R   0.595701 0.997515 0.668549 0.145075
C49   C     C_R   0.939857 0.352282 0.095532 -0.149059
C50   C     C_R   0.068380 0.645213 0.905428 -0.269845
C51   C     C_R   0.050741 0.347821 0.906922 -0.243720
C52   C     C_R   0.907784 0.629511 0.094234 -0.290505
C53   C     C_R   0.439792 0.852291 0.095620 -0.146904
C54   C     C_R   0.569533 0.144762 0.905615 -0.275990
C55   C     C_R   0.550086 0.847717 0.906805 -0.246871
C56   C     C_R   0.406595 0.129143 0.093350 -0.295108
C57   C     C_R   0.051875 0.545066 0.307230 -0.135266
C58   C     C_R   0.019477 0.453057 0.751373 -0.111810
C59   C     C_R   0.017056 0.544818 0.748071 -0.094295
C60   C     C_R   0.050608 0.453825 0.305414 -0.108015
C61   C     C_R   0.551767 0.045075 0.307172 -0.128709
C62   C     C_R   0.519425 0.953027 0.751348 -0.110368
C63   C     C_R   0.516785 0.044789 0.747728 -0.096951
C64   C     C_R   0.550575 0.953821 0.305376 -0.102446
C65   C     C_R   0.733538 0.454398 0.755438 -0.081929
C66   C     C_R   0.262394 0.545162 0.296330 -0.102635
C67   C     C_R   0.261942 0.454627 0.299697 -0.064641
C68   C     C_R   0.730566 0.544642 0.752417 -0.075894
C69   C     C_R   0.233422 0.954632 0.755547 -0.077766
C70   C     C_R   0.764227 0.045063 0.293386 -0.090815
C71   C     C_R   0.763708 0.954427 0.296691 -0.075111
C72   C     C_R   0.230637 0.044800 0.752413 -0.078983
C73   C     C_R   0.819985 0.648911 0.000890 0.075610
C74   C     C_R   0.111861 0.314070 0.998291 0.007678
C75   C     C_R   0.140959 0.671814 0.997971 0.146423
C76   C     C_R   0.876115 0.321641 0.003834 0.121249
C77   C     C_R   0.319277 0.148689 0.999252 0.053666
C78   C     C_R   0.610787 0.813809 0.997976 0.016385
C79   C     C_R   0.643089 0.170769 0.998443 0.134192
C80   C     C_R   0.375631 0.821695 0.004016 0.127870
C81   C     C_R   0.069016 0.499086 0.371102 0.050706
C82   C     C_R   0.049500 0.498366 0.724843 0.035071
C83   C     C_R   0.568915 0.999083 0.371028 0.052589
C84   C     C_R   0.549300 0.998327 0.724628 0.035188
C85   C     C_R   0.677285 0.499215 0.731522 0.208878
C86   C     C_R   0.313308 0.499792 0.354531 0.197618
C87   C     C_R   0.177211 0.999496 0.731639 0.207400
C88   C     C_R   0.816441 0.999502 0.349101 0.200604
C89   C     C_3   0.511371 0.448318 0.596119 0.251208
C90   C     C_3   0.469147 0.549147 0.509990 0.241704
C91   C     C_3   0.484966 0.463155 0.480957 0.274486
C92   C     C_3   0.495425 0.534373 0.625244 0.312140
C93   C     C_3   0.010552 0.949200 0.596027 0.253348
C94   C     C_3   0.973325 0.048144 0.502615 0.239090
C95   C     C_3   0.987490 0.960756 0.481122 0.271402
C96   C     C_3   0.996085 0.036645 0.617383 0.297015
C97   C     C_3   0.429727 0.484656 0.576473 0.393949
C98   C     C_3   0.548899 0.512587 0.527715 0.374713
C99   C     C_3   0.929050 0.987580 0.570696 0.397223
C100  C     C_3   0.052936 0.009560 0.525975 0.379298
H1    H     H_    0.977203 0.341183 0.182495 0.142299
H2    H     H_    0.029848 0.658935 0.819921 0.133499
H3    H     H_    0.999895 0.335990 0.821706 0.196243
H4    H     H_    0.937716 0.634856 0.181221 0.188298
H5    H     H_    0.477491 0.841109 0.182589 0.134885
H6    H     H_    0.531292 0.158629 0.820240 0.139011
H7    H     H_    0.498318 0.835816 0.821837 0.197159
H8    H     H_    0.434215 0.133854 0.179915 0.182291
H9    H     H_    0.070587 0.586393 0.336796 0.087528
H10   H     H_    0.031412 0.410659 0.742874 0.090788
H11   H     H_    0.023864 0.586295 0.731774 0.093394
H12   H     H_    0.067925 0.411809 0.332133 0.092966
H13   H     H_    0.570269 0.086431 0.336644 0.082566
H14   H     H_    0.531432 0.910614 0.743015 0.091427
H15   H     H_    0.523218 0.086235 0.730913 0.090138
H16   H     H_    0.567902 0.911805 0.332081 0.093227
H17   H     H_    0.712566 0.412471 0.739057 0.180618
H18   H     H_    0.277115 0.586666 0.324424 0.212053
H19   H     H_    0.276689 0.413660 0.332510 0.169392
H20   H     H_    0.703189 0.585478 0.726754 0.177654
H21   H     H_    0.211748 0.912928 0.737673 0.176471
H22   H     H_    0.780145 0.086462 0.322099 0.209440
H23   H     H_    0.779090 0.913606 0.330166 0.171007
H24   H     H_    0.203278 0.085641 0.726076 0.177939
H25   H     H_    0.102966 0.409292 0.659756 0.111889
H26   H     H_    0.116781 0.585951 0.511657 0.113757
H27   H     H_    0.110275 0.409649 0.503605 0.112951
H28   H     H_    0.111545 0.585416 0.669840 0.115733
H29   H     H_    0.602467 0.909229 0.659330 0.112913
H30   H     H_    0.616928 0.085892 0.511752 0.109738
H31   H     H_    0.609802 0.909600 0.503247 0.114527
H32   H     H_    0.611626 0.085338 0.669910 0.112808
N1    N     N_R   0.892620 0.603790 0.941800 -0.120029
N2    N     N_R   0.107380 0.396210 0.058200 -0.112502
N3    N     N_R   0.107380 0.603790 0.058200 -0.112240
N4    N     N_R   0.892620 0.396210 0.941800 -0.101056
N5    N     N_R   0.392620 0.103790 0.941800 -0.119158
N6    N     N_R   0.607380 0.896210 0.058200 -0.110526
N7    N     N_R   0.607380 0.103790 0.058200 -0.115043
N8    N     N_R   0.392620 0.896210 0.941800 -0.100551
N9    N     N_R   0.952210 0.397600 0.057910 -0.088793
N10   N     N_R   0.047790 0.602400 0.942090 -0.076648
N11   N     N_R   0.047790 0.397600 0.942090 -0.083196
N12   N     N_R   0.952210 0.602400 0.057910 -0.082392
N13   N     N_R   0.452210 0.897600 0.057910 -0.085719
N14   N     N_R   0.547790 0.102400 0.942090 -0.078015
N15   N     N_R   0.547790 0.897600 0.942090 -0.082754
N16   N     N_R   0.452210 0.102400 0.057910 -0.079641
N17   N     N_R   0.026300 0.529110 0.206760 -0.038543
N18   N     N_R   0.973700 0.470890 0.793240 -0.033340
N19   N     N_R   0.973700 0.529110 0.793240 -0.041304
N20   N     N_R   0.026300 0.470890 0.206760 -0.037747
N21   N     N_R   0.526300 0.029110 0.206760 -0.038644
N22   N     N_R   0.473700 0.970890 0.793240 -0.033193
N23   N     N_R   0.473700 0.029110 0.793240 -0.040538
N24   N     N_R   0.526300 0.970890 0.206760 -0.037482
N25   N     N_R   0.818530 0.472270 0.792960 -0.055868
N26   N     N_R   0.181470 0.527730 0.207040 -0.068142
N27   N     N_R   0.181470 0.472270 0.207040 -0.063526
N28   N     N_R   0.818530 0.527730 0.792960 -0.068771
N29   N     N_R   0.318530 0.972270 0.792960 -0.053782
N30   N     N_R   0.681470 0.027730 0.207040 -0.070341
N31   N     N_R   0.681470 0.972270 0.207040 -0.063406
N32   N     N_R   0.318530 0.027730 0.792960 -0.067635
Ni1   Ni    Ni4+2 0.934150 0.565840 0.869060 0.202752
Ni2   Ni    Ni4+2 0.065850 0.434160 0.130940 0.240468
Ni3   Ni    Ni4+2 0.065850 0.565840 0.130940 0.197741
Ni4   Ni    Ni4+2 0.934150 0.434160 0.869060 0.257215
Ni5   Ni    Ni4+2 0.434150 0.065840 0.869060 0.202416
Ni6   Ni    Ni4+2 0.565850 0.934160 0.130940 0.244721
Ni7   Ni    Ni4+2 0.565850 0.065840 0.130940 0.196436
Ni8   Ni    Ni4+2 0.434150 0.934160 0.869060 0.257915
O1    O     O_3   0.775269 0.670715 0.813845 -0.643785
C101  C     C_3   0.829629 0.675922 0.772464 -0.314896
H33   H     H_    0.840244 0.636112 0.744750 0.153640
H34   H     H_    0.898389 0.695309 0.835542 0.180175
H35   H     H_    0.790542 0.703159 0.698386 0.179674
O2    O     O_3   0.222300 0.335099 0.199835 -0.621323
C102  C     C_3   0.309053 0.340694 0.213761 -0.307219
H36   H     H_    0.317110 0.382676 0.192780 0.177891
H37   H     H_    0.316646 0.310507 0.162982 0.118779
H38   H     H_    0.367885 0.332966 0.302650 0.200443
O3    O     O_3   0.214345 0.668819 0.197710 -0.623084
C103  C     C_3   0.155352 0.676702 0.232927 -0.325061
H39   H     H_    0.136738 0.637376 0.251036 0.146168
H40   H     H_    0.089493 0.700196 0.170445 0.138012
H41   H     H_    0.194493 0.700507 0.311379 0.190452
O4    O     O_3   0.821712 0.326272 0.807781 -0.638462
C104  C     C_3   0.740059 0.294626 0.760141 -0.252655
H42   H     H_    0.683102 0.316255 0.759359 0.188598
H43   H     H_    0.757605 0.254416 0.802204 0.124704
H44   H     H_    0.711384 0.286623 0.671859 0.178789
O5    O     O_3   0.276347 0.170862 0.813290 -0.643722
C105  C     C_3   0.331535 0.175905 0.772982 -0.321805
H45   H     H_    0.342025 0.136070 0.745236 0.155086
H46   H     H_    0.400335 0.195064 0.836726 0.182867
H47   H     H_    0.293199 0.203292 0.699118 0.179696
O6    O     O_3   0.718297 0.834081 0.200750 -0.601204
C106  C     C_3   0.807624 0.835020 0.219796 -0.162425
H48   H     H_    0.822465 0.876105 0.202704 0.140063
H49   H     H_    0.813757 0.804110 0.169017 0.113951
H50   H     H_    0.863119 0.825229 0.308909 0.198355
O7    O     O_3   0.714590 0.168844 0.197660 -0.614876
C107  C     C_3   0.656002 0.175670 0.233690 -0.328707
H51   H     H_    0.639855 0.136008 0.253634 0.145701
H52   H     H_    0.588759 0.197972 0.170957 0.131576
H53   H     H_    0.694349 0.200153 0.311260 0.189777
O8    O     O_3   0.315178 0.827099 0.805852 -0.642518
C108  C     C_3   0.229206 0.799733 0.758558 -0.267504
H54   H     H_    0.178422 0.822866 0.767194 0.191901
H55   H     H_    0.242143 0.758155 0.793985 0.127350
H56   H     H_    0.194743 0.795065 0.667872 0.185119
O9    O     O_3   0.358733 0.471037 0.589788 -0.611550
C109  C     C_3   0.400730 0.457502 0.702102 -0.152265
H57   H     H_    0.442376 0.491668 0.759004 0.165488
H58   H     H_    0.445665 0.420019 0.727392 0.168167
H59   H     H_    0.343512 0.449041 0.711436 0.154689
O10   O     O_3   0.615580 0.527882 0.508011 -0.616746
C110  C     C_3   0.571539 0.531528 0.392337 -0.157361
H60   H     H_    0.501925 0.553555 0.346552 0.157078
H61   H     H_    0.563094 0.490333 0.356523 0.171493
H62   H     H_    0.618224 0.554578 0.379115 0.141310
O11   O     O_3   0.855662 0.976976 0.581587 -0.612972
C111  C     C_3   0.894629 0.965734 0.694023 -0.147185
H63   H     H_    0.937514 0.000022 0.749515 0.166697
H64   H     H_    0.937514 0.927346 0.722581 0.168924
H65   H     H_    0.835635 0.960094 0.701449 0.156213
O12   O     O_3   0.122414 0.021682 0.508912 -0.616191
C112  C     C_3   0.080676 0.024594 0.393748 -0.139108
H66   H     H_    0.015164 0.050493 0.347534 0.163610
H67   H     H_    0.065632 0.983197 0.357018 0.166835
H68   H     H_    0.131961 0.043188 0.382503 0.150289
O13   O     O_3   0.535300 0.395982 0.642587 -0.763933
H69   H     H_    0.479597 0.373455 0.589766 0.330346
O14   O     O_3   0.445556 0.601816 0.464769 -0.747245
H70   H     H_    0.504268 0.616754 0.479735 0.327660
O15   O     O_3   0.476652 0.425963 0.403844 -0.774008
H71   H     H_    0.538743 0.406505 0.443588 0.329624
O16   O     O_3   0.502617 0.570476 0.702954 -0.689557
H72   H     H_    0.438895 0.587773 0.664939 0.337652
O17   O     O_3   0.032219 0.897952 0.646775 -0.764973
H73   H     H_    0.976583 0.875295 0.594357 0.334363
O18   O     O_3   0.952715 0.099692 0.453014 -0.737476
H74   H     H_    0.014820 0.116054 0.483191 0.328477
O19   O     O_3   0.979858 0.921200 0.407981 -0.774373
H75   H     H_    0.041629 0.901312 0.450485 0.330725
O20   O     O_3   0.001877 0.075095 0.690821 -0.687096
H76   H     H_    0.938210 0.092752 0.649836 0.336914
O21   O     O_3   0.944113 0.215789 0.077171 -0.597540
C113  C     C_3   0.941193 0.195629 0.985761 -0.116129
H77   H     H_    0.885873 0.164321 0.937584 0.104180
H78   H     H_    0.010383 0.175687 0.017881 0.181627
H79   H     H_    0.930211 0.229510 0.929830 0.192497
O22   O     O_3   0.085567 0.780528 0.958413 -0.616429
C114  C     C_3   0.101121 0.802509 0.056171 -0.245966
H80   H     H_    0.128032 0.844640 0.070802 0.162795
H81   H     H_    0.151005 0.777070 0.131384 0.160566
H82   H     H_    0.032496 0.804424 0.045108 0.162671
O23   O     O_3   0.180437 0.232731 0.180588 -0.571650
C115  C     C_3   0.264346 0.222684 0.288452 0.093782
H83   H     H_    0.330041 0.231511 0.295572 0.094147
H84   H     H_    0.265639 0.180232 0.314617 0.140117
H85   H     H_    0.263601 0.249846 0.348127 0.119402
O24   O     O_3   0.622314 0.655423 0.801175 -0.562232
C116  C     C_3   0.581038 0.684759 0.700336 0.077835
H86   H     H_    0.611236 0.726009 0.712540 0.063833
H87   H     H_    0.502745 0.686348 0.653075 0.147623
H88   H     H_    0.596272 0.662216 0.647477 0.139310
O25   O     O_3   0.433393 0.712484 0.050179 -0.629289
C117  C     C_3   0.419640 0.696813 0.949784 -0.177621
H89   H     H_    0.358364 0.669304 0.898190 0.121757
H90   H     H_    0.483486 0.674085 0.970124 0.163171
H91   H     H_    0.411172 0.733267 0.900733 0.218743
O26   O     O_3   0.576884 0.276959 0.932040 -0.618270
C118  C     C_3   0.580156 0.299704 0.021971 -0.262465
H92   H     H_    0.612712 0.340577 0.044066 0.160896
H93   H     H_    0.619216 0.272850 0.096883 0.156789
H94   H     H_    0.506575 0.304789 0.996425 0.165348
O27   O     O_3   0.685923 0.734204 0.184823 -0.552684
C119  C     C_3   0.664029 0.687416 0.220034 0.023488
H95   H     H_    0.730216 0.668069 0.291781 0.145355
H96   H     H_    0.622188 0.656743 0.153081 0.074419
H97   H     H_    0.621242 0.700414 0.249814 0.149352
O28   O     O_3   0.122109 0.158017 0.797664 -0.557045
C120  C     C_3   0.082890 0.188791 0.698812 0.067213
H98   H     H_    0.113175 0.230237 0.714043 0.059014
H99   H     H_    0.004448 0.190309 0.649642 0.137463
H100  H     H_    0.099468 0.167359 0.646084 0.141737
O29   O     O_3   0.310261 0.636247 0.045264 -0.746479
H101  H     H_    0.376246 0.629831 0.070274 0.346795
O30   O     O_3   0.699667 0.354778 0.940102 -0.754665
H102  H     H_    0.630213 0.358619 0.900003 0.360053
O31   O     O_3   0.808358 0.655955 0.193185 -0.751221
H103  H     H_    0.807997 0.617267 0.173157 0.323229
O32   O     O_3   0.005664 0.240277 0.803276 -0.726854
H104  H     H_    0.008768 0.261253 0.748837 0.291650
O33   O     O_3   0.822165 0.138840 0.072393 -0.740738
H105  H     H_    0.890422 0.134117 0.105679 0.352899
O34   O     O_3   0.207704 0.857227 0.961233 -0.752446
H106  H     H_    0.138763 0.862298 0.923756 0.357361
O35   O     O_3   0.291460 0.144327 0.179183 -0.775389
H107  H     H_    0.291961 0.108321 0.148705 0.341333
O36   O     O_3   0.506061 0.740627 0.800541 -0.735204
H108  H     H_    0.512391 0.762176 0.749167 0.292247

loop_
_geom_bond_atom_site_label_1
_geom_bond_atom_site_label_2
_ccdc_geom_bond_type
C105  H46   S    
C114  H81   S    
C92   O16   S    
O30   H102  S    
C15   C32   A    
C10   C85   S    
O35   H107  S    
C16   C31   A    
C40   C46   A    
N9    Ni2   S    
C52   N12   A    
C71   N31   A    
O28   C120  S    
C62   H14   S    
C58   C82   A    
C105  H47   S    
C113  H78   S    
C40   H28   S    
C96   C99   S    
O26   C118  S    
C38   C45   A    
C7    O7    S    
N2    N11   A    
N29   Ni8   S    
N3    N10   A    
C57   H9    S    
N30   Ni7   S    
C118  H92   S    
C59   H11   S    
C51   C74   A    
N7    Ni7   S    
C47   C83   S    
C63   H15   S    
C113  H79   S    
C106  H48   S    
O19   H75   S    
C72   H24   S    
C41   C43   A    
C42   C44   A    
C70   N30   A    
N25   Ni4   S    
O12   C112  S    
N26   Ni3   S    
C13   C30   A    
C17   O25   S    
C27   C35   A    
C21   C29   A    
C17   C21   A    
C23   C31   A    
N8    N13   A    
C19   C23   A    
O3    C103  S    
C24   C32   A    
C112  H66   S    
C30   C76   S    
N23   Ni5   S    
C15   C27   A    
O36   H108  S    
N18   Ni4   S    
C91   O15   S    
C2    N2    A    
C14   C26   A    
N21   N24   A    
C94   C96   S    
C101  H35   S    
N22   N23   A    
N25   N28   A    
C98   O10   S    
N26   N27   A    
C117  H90   S    
C12   C93   S    
C17   C34   A    
C5    C77   A    
C7    C79   A    
C54   C79   A    
N13   Ni6   S    
C58   H10   S    
C45   C81   S    
C9    C90   S    
C5    N5    A    
C51   N11   A    
C44   H32   S    
C13   O21   S    
C63   C84   A    
C8    N8    A    
C4    O4    S    
C43   H31   S    
C120  H99   S    
C44   C48   A    
N24   Ni6   S    
C90   O14   S    
C91   C98   S    
C71   C88   A    
C62   N22   A    
C37   C39   A    
O5    C105  S    
C55   H7    S    
C67   N27   A    
C68   N28   A    
C43   C47   A    
C58   N18   A    
C56   N16   A    
N5    N16   A    
C59   C82   A    
C108  H56   S    
O2    C102  S    
C1    O1    S    
O21   C113  S    
C71   H23   S    
C112  H68   S    
C32   C74   S    
C109  H58   S    
C6    C78   A    
C103  H39   S    
C11   C99   S    
O17   H73   S    
C89   O13   S    
C104  H43   S    
N31   Ni6   S    
C101  H33   S    
C56   H8    S    
C46   C82   S    
C20   C35   A    
C10   C89   S    
O24   C116  S    
C57   N17   A    
C26   O34   S    
C106  H50   S    
C89   C91   S    
C3    C75   A    
O13   H69   S    
C11   C88   S    
C96   O20   S    
O23   C115  S    
C39   C45   A    
C93   C95   S    
O15   H71   S    
C68   C85   A    
C1    N1    A    
C38   H26   S    
C92   C97   S    
O29   H101  S    
C99   O11   S    
N12   Ni3   S    
C118  H94   S    
C119  H95   S    
C55   C78   A    
C53   C80   A    
N19   Ni1   S    
C94   O18   S    
C28   O36   S    
O31   H103  S    
C60   C81   A    
C70   H22   S    
C14   O22   S    
C94   C100  S    
O27   C119  S    
C108  H54   S    
C22   O30   S    
C116  H87   S    
C14   C29   A    
C72   C87   A    
N15   Ni8   S    
C62   C84   A    
N1    N12   A    
C22   C30   A    
C18   C22   A    
C115  H83   S    
C66   C86   A    
N20   Ni2   S    
C103  H41   S    
C4    N4    A    
C93   O17   S    
C95   O19   S    
C110  H62   S    
N4    N9    A    
C18   C33   A    
C53   H5    S    
C107  H51   S    
N14   Ni5   S    
C25   O33   S    
N3    Ni3   S    
N18   N19   A    
C2    O2    S    
C67   H19   S    
C50   N10   A    
C25   C33   A    
C18   O26   S    
C19   O27   S    
N7    N14   A    
C64   H16   S    
O16   H72   S    
N17   Ni3   S    
C119  H97   S    
C111  H63   S    
O9    C109  S    
C49   H1    S    
C51   H3    S    
O18   H74   S    
N16   Ni7   S    
C60   N20   A    
C100  O12   S    
O8    C108  S    
C49   N9    A    
O14   H70   S    
N2    Ni2   S    
C93   C99   S    
C69   C87   A    
C54   N14   A    
C102  H38   S    
C105  H45   S    
C114  H82   S    
C10   C92   S    
C97   O9    S    
O25   C117  S    
C117  H91   S    
C115  H85   S    
C54   H6    S    
O11   C111  S    
C65   N25   A    
C61   C83   A    
O32   H104  S    
C95   C100  S    
C33   C79   S    
C113  H77   S    
C35   C77   S    
C61   N21   A    
O34   H106  S    
C64   C83   A    
C120  H98   S    
N1    Ni1   S    
C107  H53   S    
C53   N13   A    
C72   N32   A    
N28   Ni1   S    
C11   C94   S    
C50   H2    S    
C21   O29   S    
C111  H65   S    
C110  H60   S    
N29   N32   A    
C5    O5    S    
N30   N31   A    
C52   H4    S    
C67   C86   A    
C9    C97   S    
C69   N29   A    
C1    C73   A    
C112  H67   S    
C50   C75   A    
C38   C40   A    
C103  H40   S    
C3    N3    A    
C104  H42   S    
C101  H34   S    
C12   C100  S    
C102  H36   S    
C28   C36   A    
C106  H49   S    
C117  H89   S    
C12   C96   S    
C20   O28   S    
C37   C46   A    
C23   O31   S    
C68   H20   S    
C16   C28   A    
C7    N7    A    
O7    C107  S    
N6    Ni6   S    
O33   H105  S    
C70   C88   A    
C9    C91   S    
O1    C101  S    
O22   C114  S    
C118  H93   S    
C119  H96   S    
C120  H100  S    
C19   C36   A    
C31   C73   S    
C8    O8    S    
C10   C98   S    
C34   C80   S    
C90   C92   S    
C26   C34   A    
C20   C24   A    
O6    C106  S    
C116  H86   S    
N5    Ni5   S    
C2    C74   A    
N8    Ni8   S    
C13   C25   A    
N32   Ni5   S    
C37   H25   S    
C39   H27   S    
C115  H84   S    
C52   C73   A    
N17   N20   A    
C6    O6    S    
C109  H57   S    
N4    Ni4   S    
C56   C77   A    
C48   C84   S    
C89   C97   S    
O4    C104  S    
C6    N6    A    
C104  H44   S    
C60   H12   S    
C9    C86   S    
C110  H61   S    
C55   N15   A    
C69   H21   S    
N6    N15   A    
N21   Ni7   S    
C49   C76   A    
N22   Ni8   S    
C42   H30   S    
C107  H52   S    
C61   H13   S    
C57   C81   A    
C114  H80   S    
C66   N26   A    
C24   O32   S    
C15   O23   S    
C11   C95   S    
C65   H17   S    
C12   C87   S    
C109  H59   S    
C111  H64   S    
O20   H76   S    
C65   C85   A    
C29   C75   S    
C59   N19   A    
C64   N24   A    
N27   Ni2   S    
C27   O35   S    
C63   N23   A    
C36   C78   S    
N10   Ni1   S    
C41   H29   S    
O10   C110  S    
C3    O3    S    
C108  H55   S    
C41   C48   A    
C42   C47   A    
C116  H88   S    
N11   Ni4   S    
C4    C76   A    
C16   O24   S    
C66   H18   S    
C8    C80   A    
C90   C98   S    
C102  H37   S    
