data_mof_unit_32345.cif
_audit_creation_date              2012-12-10T18:25:17-0500
_audit_creation_method            fapswitch 2.2
_symmetry_space_group_name_H-M    P1
_symmetry_Int_Tables_number       1
_space_group_crystal_system       triclinic
_cell_length_a                    18.655273
_cell_length_b                    18.778195
_cell_length_c                    19.190563
_cell_angle_alpha                 110.153783
_cell_angle_beta                  109.880989
_cell_angle_gamma                 109.088038
_cell_volume                      5128.98104328

loop_
_atom_site_label
_atom_site_type_symbol
_atom_type_description
_atom_site_fract_x
_atom_site_fract_y
_atom_site_fract_z
_atom_type_partial_charge
C1    C     C_R   0.382675 0.501990 0.381624 0.778512
C2    C     C_R   0.872695 0.853372 0.848717 -0.270782
C3    C     C_R   0.337082 0.332055 0.784238 -0.112081
C4    C     C_R   0.077750 0.327109 0.817332 -0.199875
C5    C     C_R   0.997121 0.312991 0.812091 -0.074117
C6    C     C_R   0.917952 0.235688 0.742406 -0.007254
C7    C     C_R   0.921387 0.174318 0.679127 -0.241970
C8    C     C_R   0.001998 0.188589 0.684584 -0.044801
C9    C     C_R   0.081330 0.265590 0.754345 0.047454
C10   C     C_R   0.779388 0.148504 0.735759 -0.134682
C11   C     C_R   0.695002 0.130173 0.721302 -0.143824
C12   C     C_R   0.660946 0.181243 0.701388 -0.125578
C13   C     C_R   0.826740 0.820596 0.575346 -0.231031
C14   C     C_R   0.711350 0.250918 0.696195 -0.121539
C15   C     C_R   0.795914 0.269735 0.711111 -0.129806
C16   C     C_R   0.830469 0.218723 0.731115 0.127870
C17   C     C_R   0.810375 0.814368 0.496746 -0.103623
C18   C     C_R   0.728427 0.747917 0.421045 0.071641
C19   C     C_R   0.668176 0.684603 0.425448 -0.144353
C20   C     C_R   0.687209 0.688264 0.504173 -0.081876
C21   C     C_R   0.766738 0.758424 0.580736 -0.011966
C22   C     C_R   0.671680 0.801097 0.321821 0.159756
C23   C     C_R   0.661821 0.808014 0.247841 0.216961
C24   C     C_R   0.679340 0.757006 0.190583 -0.165260
C25   C     C_R   0.621695 0.619508 0.503525 0.767513
C26   C     C_R   0.703185 0.697709 0.202749 -0.283503
C27   C     C_R   0.715427 0.690436 0.275330 0.015556
C28   C     C_R   0.703189 0.744947 0.337479 0.019339
C29   C     C_R   0.424635 0.803943 0.525008 -0.143734
C30   C     C_R   0.361360 0.722495 0.449763 -0.151516
C31   C     C_R   0.387533 0.670214 0.404265 0.125530
C32   C     C_R   0.477796 0.701361 0.434672 -0.091416
C33   C     C_R   0.540917 0.782743 0.510076 -0.122313
C34   C     C_R   0.514364 0.834001 0.555207 -0.129357
C35   C     C_R   0.255814 0.580068 0.257519 -0.242011
C36   C     C_R   0.619659 0.500609 0.618099 0.860489
C37   C     C_R   0.187130 0.499521 0.183843 -0.058026
C38   C     C_R   0.181949 0.420379 0.176356 0.007250
C39   C     C_R   0.248860 0.423802 0.240804 -0.240218
C40   C     C_R   0.317498 0.504259 0.315036 -0.079060
C41   C     C_R   0.320082 0.583495 0.324886 -0.003026
C42   C     C_R   0.035168 0.295557 0.118716 -0.090551
C43   C     C_R   0.959689 0.213448 0.052745 0.214227
C44   C     C_R   0.955417 0.169752 0.974312 -0.281977
C45   C     C_R   0.025035 0.206129 0.961524 0.050014
C46   C     C_R   0.099444 0.288699 0.027556 -0.146804
C47   C     C_R   0.379262 0.380793 0.497681 0.853990
C48   C     C_R   0.104354 0.333498 0.105978 0.015796
C49   C     C_R   0.188202 0.503577 0.540909 -0.145056
C50   C     C_R   0.208031 0.439923 0.548290 -0.141246
C51   C     C_R   0.217553 0.385748 0.484436 0.125678
C52   C     C_R   0.205772 0.395411 0.412589 -0.145284
C53   C     C_R   0.185005 0.458596 0.405077 -0.119087
C54   C     C_R   0.176750 0.512940 0.469370 -0.091953
C55   C     C_R   0.173231 0.250506 0.491606 -0.251258
C56   C     C_R   0.186930 0.183768 0.498929 -0.075254
C57   C     C_R   0.262977 0.181085 0.503780 -0.017188
C58   C     C_R   0.789027 0.839378 0.799306 0.210079
C59   C     C_R   0.323531 0.244954 0.500286 -0.157886
C60   C     C_R   0.310848 0.312827 0.495171 -0.069685
C61   C     C_R   0.235132 0.316169 0.491026 -0.021938
C62   C     C_R   0.334675 0.126667 0.591226 -0.085309
C63   C     C_R   0.354917 0.062932 0.597280 -0.147558
C64   C     C_R   0.322018 0.984588 0.522612 -0.211225
C65   C     C_R   0.267916 0.968977 0.441050 0.078298
C66   C     C_R   0.246637 0.032809 0.435300 -0.142172
C67   C     C_R   0.280294 0.111746 0.510253 0.067802
C68   C     C_R   0.784459 0.529515 0.626014 -0.208700
C69   C     C_R   0.751100 0.800722 0.709795 -0.152508
C70   C     C_R   0.857874 0.531577 0.621322 -0.137420
C71   C     C_R   0.912952 0.513734 0.674011 0.234274
C72   C     C_R   0.895712 0.497660 0.734213 -0.185375
C73   C     C_R   0.824040 0.500088 0.743451 0.022828
C74   C     C_R   0.764197 0.509533 0.684070 0.052874
C75   C     C_R   0.685263 0.497948 0.683338 -0.159848
C76   C     C_R   0.666445 0.479868 0.742526 -0.051366
C77   C     C_R   0.730644 0.481251 0.808962 0.064013
C78   C     C_R   0.810313 0.492316 0.809612 -0.130394
C79   C     C_R   0.999802 0.880137 0.381646 0.791213
C80   C     C_R   0.793725 0.771765 0.668623 -0.058491
C81   C     C_R   0.879989 0.879794 0.497651 0.788039
C82   C     C_R   0.001446 0.120492 0.618445 0.785887
C83   C     C_R   0.119479 0.117484 0.499258 0.799389
C84   C     C_R   0.998382 0.380544 0.879976 0.773305
C85   C     C_R   0.119348 0.499512 0.117837 0.809102
C86   C     C_R   0.999511 0.619007 0.117829 0.808368
C87   C     C_R   0.880063 0.498040 0.880107 0.798749
C88   C     C_R   0.156828 0.782501 0.550843 -0.161648
C89   C     C_R   0.137520 0.783727 0.474336 -0.131201
C90   C     C_R   0.050668 0.755603 0.414907 0.122679
C91   C     C_R   0.876499 0.781557 0.718429 0.000070
C92   C     C_R   0.983818 0.726923 0.433439 -0.102532
C93   C     C_R   0.003186 0.725639 0.509840 -0.068721
C94   C     C_R   0.089652 0.753322 0.568538 -0.094595
C95   C     C_R   0.029410 0.692034 0.267063 -0.031375
C96   C     C_R   0.001323 0.686194 0.186034 -0.073873
C97   C     C_R   0.974004 0.743690 0.170392 0.005404
C98   C     C_R   0.976148 0.807298 0.236351 -0.201665
C99   C     C_R   0.001234 0.812553 0.316181 -0.087471
C100  C     C_R   0.028899 0.755162 0.332587 -0.066598
C101  C     C_R   0.011323 0.765819 0.064783 -0.114916
C102  C     C_R   0.917298 0.825358 0.809744 -0.009891
C103  C     C_R   0.988062 0.750243 0.981950 -0.131504
C104  C     C_R   0.900302 0.714593 0.921236 -0.169006
C105  C     C_R   0.835971 0.697472 0.944058 -0.144321
C106  C     C_R   0.857271 0.709719 0.026893 0.167867
C107  C     C_R   0.946394 0.740440 0.086440 0.007831
C108  C     C_R   0.318932 0.318447 0.844865 -0.153352
C109  C     C_R   0.235347 0.296065 0.834728 -0.098750
C110  C     C_R   0.168499 0.285167 0.762622 0.109348
C111  C     C_R   0.187245 0.298974 0.701900 -0.166561
C112  C     C_R   0.271638 0.323208 0.713390 -0.121028
Cu1   Cu    Cu3+1 0.499980 0.561800 0.561790 0.968032
Cu2   Cu    Cu3+1 0.500020 0.438200 0.438210 0.974402
Cu3   Cu    Cu3+1 0.061810 0.999960 0.561770 1.016366
Cu4   Cu    Cu3+1 0.938190 0.999990 0.438190 0.927315
Cu5   Cu    Cu3+1 0.061790 0.561750 0.999970 0.950754
Cu6   Cu    Cu3+1 0.938180 0.438170 0.000010 0.992472
H1    H     H_    0.903294 0.886338 0.918379 0.145737
H2    H     H_    0.674235 0.763467 0.135531 0.153325
H3    H     H_    0.713226 0.657520 0.155249 0.144914
H4    H     H_    0.563294 0.897027 0.613472 0.114392
H5    H     H_    0.404094 0.843586 0.560091 0.115165
H6    H     H_    0.292071 0.699762 0.427514 0.110636
H7    H     H_    0.498965 0.662570 0.399723 0.091179
H8    H     H_    0.610393 0.806325 0.533237 0.127185
H9    H     H_    0.257762 0.640398 0.263609 0.144431
H10   H     H_    0.245012 0.362934 0.235000 0.155428
H11   H     H_    0.041028 0.331352 0.180093 0.143385
H12   H     H_    0.897843 0.106263 0.923296 0.109654
H13   H     H_    0.153383 0.318084 0.018305 0.155509
H14   H     H_    0.160913 0.561903 0.463457 0.133923
H15   H     H_    0.181171 0.545278 0.590395 0.130278
H16   H     H_    0.216044 0.432839 0.603718 0.121339
H17   H     H_    0.211303 0.353235 0.361971 0.103108
H18   H     H_    0.174599 0.465160 0.349172 0.144157
H19   H     H_    0.690981 0.798595 0.672867 0.146912
H20   H     H_    0.114483 0.252247 0.487704 0.155200
H21   H     H_    0.381973 0.242869 0.503552 0.177044
H22   H     H_    0.361624 0.187751 0.649419 0.133819
H23   H     H_    0.396997 0.074663 0.659893 0.128724
H24   H     H_    0.339493 0.936500 0.528480 0.107779
H25   H     H_    0.205322 0.022090 0.372861 0.159532
H26   H     H_    0.744050 0.543778 0.583544 0.142354
H27   H     H_    0.871081 0.545826 0.575469 0.136173
H28   H     H_    0.937541 0.480494 0.771338 0.143464
H29   H     H_    0.104580 0.752108 0.627633 0.162313
H30   H     H_    0.223800 0.803914 0.596250 0.128340
H31   H     H_    0.189931 0.805920 0.461161 0.093033
H32   H     H_    0.917024 0.705935 0.388727 0.133302
H33   H     H_    0.951038 0.702958 0.523242 0.152078
H34   H     H_    0.958384 0.853500 0.225194 0.155349
H35   H     H_    0.079998 0.793350 0.110979 0.193691
H36   H     H_    0.038296 0.764064 0.964692 0.177360
H37   H     H_    0.881532 0.699513 0.855879 0.168365
H38   H     H_    0.769432 0.671789 0.894830 0.152672
H39   H     H_    0.402108 0.350368 0.792610 0.130852
H40   H     H_    0.369948 0.326245 0.900285 0.134408
H41   H     H_    0.223020 0.287697 0.883314 0.173906
H42   H     H_    0.137271 0.292918 0.646968 0.105925
H43   H     H_    0.286964 0.336163 0.668068 0.153473
H44   H     H_    0.887635 0.875072 0.633879 0.177543
H45   H     H_    0.138469 0.386508 0.871043 0.144233
H46   H     H_    0.860799 0.114799 0.625312 0.142401
H47   H     H_    0.804910 0.108119 0.750473 0.106940
H48   H     H_    0.655851 0.076132 0.725118 0.115757
H49   H     H_    0.595512 0.166822 0.689934 0.130878
H50   H     H_    0.684816 0.290225 0.680458 0.152629
H51   H     H_    0.833896 0.322929 0.705708 0.106132
H52   H     H_    0.605900 0.632509 0.367161 0.142009
O1    O     O_R   0.409800 0.552180 0.462000 -0.570254
O2    O     O_R   0.947810 0.909820 0.357620 -0.594404
O3    O     O_R   0.962020 0.909790 0.552160 -0.564294
O4    O     O_R   0.857630 0.909810 0.447800 -0.599504
O5    O     O_R   0.052190 0.090140 0.642340 -0.552864
O6    O     O_R   0.947800 0.090160 0.537980 -0.600171
O7    O     O_R   0.142370 0.090150 0.552150 -0.570752
O8    O     O_R   0.037980 0.090170 0.447800 -0.592667
O9    O     O_R   0.052180 0.461950 0.909820 -0.601649
O10   O     O_R   0.947800 0.357590 0.909850 -0.572862
O11   O     O_R   0.142360 0.552150 0.090150 -0.591564
O12   O     O_R   0.409830 0.447810 0.357640 -0.589017
O13   O     O_R   0.037980 0.447790 0.090180 -0.553782
O14   O     O_R   0.052170 0.642340 0.090130 -0.587061
O15   O     O_R   0.947790 0.537980 0.090160 -0.546103
O16   O     O_R   0.962000 0.552140 0.909800 -0.586653
O17   O     O_R   0.857610 0.447780 0.909830 -0.587866
O18   O     O_R   0.590160 0.642370 0.552180 -0.595624
O19   O     O_R   0.590190 0.537990 0.447820 -0.574867
O20   O     O_R   0.590170 0.552190 0.642360 -0.591596
O21   O     O_R   0.590200 0.447820 0.538000 -0.580024
O22   O     O_R   0.409810 0.462010 0.552180 -0.563494
O23   O     O_R   0.409840 0.357630 0.447820 -0.593251
O24   O     O_R   0.052200 0.909800 0.461980 -0.568332
C113  C     C_2   0.741709 0.625264 0.282356 0.303717
H53   H     H_    0.755705 0.590712 0.235048 0.080105
O25   O     O_2   0.747511 0.608193 0.339206 -0.550255
C114  C     C_3   0.742820 0.870672 0.842971 -0.417416
C115  C     C_3   0.715387 0.817592 0.883460 -0.832494
H54   H     H_    0.672533 0.746552 0.833809 0.257682
H55   H     H_    0.774390 0.827793 0.935704 0.252169
H56   H     H_    0.678136 0.839286 0.911737 0.237736
H57   H     H_    0.787469 0.941258 0.893724 0.190094
H58   H     H_    0.682803 0.864537 0.796030 0.191623
C116  C     C_3   0.882291 0.169032 0.062005 -0.424097
C117  C     C_3   0.891023 0.219154 0.149158 -0.830243
H59   H     H_    0.949138 0.228818 0.202042 0.249650
H60   H     H_    0.896984 0.283627 0.161100 0.264519
H61   H     H_    0.831160 0.180663 0.148799 0.245683
H62   H     H_    0.821815 0.158030 0.010747 0.204049
H63   H     H_    0.872766 0.103666 0.051012 0.201879
C118  C     C_2   0.019048 0.155901 0.879211 0.359034
H64   H     H_    0.957828 0.096411 0.826247 0.059206
O26   O     O_2   0.082576 0.179223 0.869881 -0.566467
C119  C     C_2   0.235972 0.886847 0.362755 0.327289
H65   H     H_    0.251660 0.837612 0.368586 0.045072
O27   O     O_2   0.192339 0.873301 0.290851 -0.565496
C120  C     C_2   0.577773 0.456273 0.732672 0.369719
H66   H     H_    0.570607 0.491571 0.785485 0.050783
O28   O     O_2   0.511482 0.395557 0.664660 -0.581411
C121  C     C_2   0.920879 0.751849 0.673142 0.427438
H67   H     H_    0.881820 0.691077 0.611353 0.034899
O29   O     O_2   0.998953 0.797832 0.700303 -0.519539
C122  C     C_3   0.991010 0.513416 0.667043 -0.420685
C123  C     C_3   0.961608 0.432623 0.584262 -0.834783
H68   H     H_    0.923973 0.371877 0.582765 0.256324
H69   H     H_    0.919652 0.432193 0.526732 0.256317
H70   H     H_    0.020430 0.433468 0.581639 0.242848
H71   H     H_    0.029117 0.573799 0.668214 0.212072
H72   H     H_    0.036259 0.513808 0.722896 0.205068
C124  C     C_3   0.712802 0.471094 0.878160 -0.363352
C125  C     C_3   0.660801 0.374754 0.850514 -0.797987
H73   H     H_    0.698614 0.341222 0.841196 0.275598
H74   H     H_    0.646955 0.370597 0.901289 0.227607
H75   H     H_    0.597010 0.339803 0.789370 0.245025
H76   H     H_    0.773944 0.507379 0.941698 0.213733
H77   H     H_    0.674899 0.502357 0.892557 0.176668
C126  C     C_2   0.061078 0.633536 0.284488 0.338259
H78   H     H_    0.129188 0.661181 0.332480 0.032922
O30   O     O_2   0.010540 0.554812 0.247622 -0.519777
C127  C     C_2   0.006313 0.844598 0.867899 0.392874
H79   H     H_    0.043986 0.898193 0.934438 0.055216
O31   O     O_2   0.036760 0.798819 0.844547 -0.523573
C128  C     C_3   0.786349 0.685882 0.050588 -0.423784
C129  C     C_3   0.699388 0.676702 0.992813 -0.891677
H80   H     H_    0.710911 0.740304 0.997104 0.261144
H81   H     H_    0.667245 0.625268 0.924708 0.234396
H82   H     H_    0.652009 0.656672 0.014201 0.244105
H83   H     H_    0.772944 0.624193 0.051499 0.192730
H84   H     H_    0.811351 0.738155 0.116535 0.215812
C130  C     C_3   0.650946 0.854178 0.384548 -0.415871
C131  C     C_3   0.551727 0.818424 0.345644 -0.830291
H85   H     H_    0.524583 0.830315 0.292605 0.259831
H86   H     H_    0.516750 0.746771 0.320369 0.252294
H87   H     H_    0.538570 0.851861 0.396001 0.253641
H88   H     H_    0.674949 0.853443 0.445421 0.201552
H89   H     H_    0.685993 0.924644 0.405356 0.196825
C132  C     C_3   0.637082 0.871252 0.228398 -0.425117
C133  C     C_3   0.547444 0.822404 0.145902 -0.832827
H90   H     H_    0.550429 0.785633 0.088604 0.245308
H91   H     H_    0.495927 0.775572 0.149358 0.257084
H92   H     H_    0.528391 0.870295 0.137360 0.245912
H93   H     H_    0.635509 0.917708 0.281329 0.209885
H94   H     H_    0.688143 0.912509 0.220181 0.192868

loop_
_geom_bond_atom_site_label_1
_geom_bond_atom_site_label_2
_ccdc_geom_bond_type
C78   C87   S    
C101  C107  A    
C55   C56   A    
C75   C76   A    
C93   C94   A    
Cu2   O23   S    
Cu4   O8    S    
C43   C116  S    
C36   O21   A    
C73   C74   A    
C95   C96   A    
C51   C61   S    
C19   H52   S    
C43   C44   A    
C133  H92   S    
C122  C123  S    
C12   H49   S    
C97   C98   A    
C120  H66   S    
Cu5   O14   S    
C7    C8    A    
Cu1   O1    S    
C98   H34   S    
C77   C78   A    
C108  C109  A    
Cu1   O20   S    
Cu4   O2    S    
C26   C27   A    
C121  H67   S    
C79   O24   A    
C128  H84   S    
C62   C67   A    
C36   O20   A    
Cu3   O3    S    
C37   C85   S    
C25   O18   A    
C37   C38   A    
C24   C26   A    
C65   C119  S    
C39   C40   A    
Cu5   O16   S    
C119  O27   D    
C5    C6    A    
Cu5   O11   S    
C57   C59   A    
C108  H40   S    
C106  C107  A    
C116  H63   S    
C68   C74   A    
C15   C16   A    
C55   C61   A    
C9    C110  S    
C123  H70   S    
C128  C129  S    
C15   H51   S    
C127  H79   S    
C47   O22   A    
C84   O10   A    
C110  C111  A    
C92   C93   A    
Cu3   O5    S    
C103  C104  A    
C1    C40   S    
C47   C60   S    
C34   H4    S    
C120  O28   D    
C21   C80   S    
C132  H93   S    
C23   C132  S    
C76   C120  S    
C8    C9    A    
C64   C65   A    
C115  H56   S    
C23   C24   A    
C114  C115  S    
C39   H10   S    
C26   H3    S    
C59   H21   S    
Cu3   Cu4   S    
C91   C121  S    
C49   C54   A    
C109  C110  A    
C38   C48   S    
C83   O8    A    
C72   C73   A    
C88   C89   A    
C89   H31   S    
C66   C67   A    
C59   C60   A    
C101  C103  A    
Cu2   O19   S    
C22   C28   A    
C129  H80   S    
C86   O14   A    
C114  H57   S    
C53   H18   S    
C57   C67   S    
C90   C100  S    
C104  C105  A    
Cu6   O15   S    
C33   C34   A    
C87   O16   A    
C88   C94   A    
C63   H23   S    
C38   C39   A    
C126  O30   D    
C77   C124  S    
C45   C118  S    
C24   H2    S    
C128  H83   S    
C83   O7    A    
C7    H46   S    
C51   C52   A    
C130  C131  S    
C18   C28   S    
C76   C77   A    
C50   H16   S    
C106  C128  S    
C46   H13   S    
C70   H27   S    
C5    C84   S    
Cu4   O6    S    
C117  H59   S    
C18   C19   A    
C87   O17   A    
C66   H25   S    
C50   C51   A    
Cu6   O13   S    
Cu1   O18   S    
C29   C34   A    
C1    O1    A    
C125  H75   S    
C63   C64   A    
C33   H8    S    
C60   C61   A    
C127  O31   D    
C95   C126  S    
C81   O3    A    
C79   O2    A    
C84   O9    A    
C111  H42   S    
C29   C30   A    
C112  H43   S    
C36   C75   S    
C122  H72   S    
C11   H48   S    
C103  H36   S    
C90   C92   A    
C31   C32   A    
C14   C15   A    
C101  H35   S    
C3    C112  A    
C73   C78   A    
C96   C97   A    
C62   C63   A    
C125  H74   S    
C17   C18   A    
C88   H30   S    
C4    H45   S    
C13   C21   A    
C102  C127  S    
C42   C48   A    
C20   C21   A    
C35   H9    S    
C55   H20   S    
C124  H76   S    
C86   C96   S    
C86   O15   A    
C131  H87   S    
C85   O13   A    
C40   C41   A    
Cu3   O24   S    
C30   H6    S    
C65   C66   A    
C129  H81   S    
C92   H32   S    
C49   C50   A    
C8    C82   S    
C69   H19   S    
C93   H33   S    
C27   C113  S    
C42   C43   A    
C91   C102  A    
C14   H50   S    
C133  H90   S    
C109  H41   S    
C124  C125  S    
C70   C71   A    
C52   C53   A    
C35   C37   A    
C56   C83   S    
C131  H86   S    
Cu1   Cu2   S    
C82   O6    A    
C79   C99   S    
C94   H29   S    
C56   C57   A    
Cu1   O22   S    
C116  C117  S    
C126  H78   S    
C58   C114  S    
C85   O11   A    
C71   C122  S    
C31   C41   S    
C111  C112  A    
C123  H68   S    
C95   C100  A    
C47   O23   A    
C132  H94   S    
C44   C45   A    
C12   C14   A    
C4    C5    A    
C133  H91   S    
C3    H39   S    
C1    O12   A    
C2    C58   A    
C58   C69   A    
C53   C54   A    
C6    C7    A    
Cu2   O21   S    
C13   C17   A    
C3    C108  A    
C54   H14   S    
C105  C106  A    
Cu5   Cu6   S    
C99   C100  A    
Cu4   O4    S    
C124  H77   S    
C71   C72   A    
C81   O4    A    
C13   H44   S    
C19   C20   A    
C132  C133  S    
C89   C90   A    
C22   C130  S    
C121  O29   D    
C25   O19   A    
C122  H71   S    
C32   C33   A    
C114  H58   S    
C117  H61   S    
C130  H88   S    
C30   C31   A    
C64   H24   S    
C116  H62   S    
C80   C91   A    
C10   H47   S    
C72   H28   S    
C29   H5    S    
C2    H1    S    
C125  H73   S    
C123  H69   S    
C32   H7    S    
C68   H26   S    
C42   H11   S    
C17   C81   S    
C119  H65   S    
C35   C41   A    
C10   C11   A    
C118  O26   D    
C6    C16   S    
C113  H53   S    
C97   C107  S    
C46   C48   A    
C45   C46   A    
C104  H37   S    
C115  H54   S    
C105  H38   S    
Cu3   O7    S    
C74   C75   A    
Cu2   O12   S    
C68   C70   A    
C98   C99   A    
C20   C25   S    
C129  H82   S    
C49   H15   S    
C27   C28   A    
C115  H55   S    
C52   H17   S    
C2    C102  A    
C22   C23   A    
C69   C80   A    
C10   C16   A    
C82   O5    A    
C62   H22   S    
C4    C9    A    
Cu6   O17   S    
C117  H60   S    
C44   H12   S    
C130  H89   S    
Cu5   O9    S    
C11   C12   A    
C118  H64   S    
C131  H85   S    
C113  O25   D    
Cu6   O10   S    
