data_mof_unit_27510.cif
_audit_creation_date              2012-12-10T20:40:58-0500
_audit_creation_method            fapswitch 2.2
_symmetry_space_group_name_H-M    P1
_symmetry_Int_Tables_number       1
_space_group_crystal_system       triclinic
_cell_length_a                    27.743546
_cell_length_b                    10.668082
_cell_length_c                    9.846837
_cell_angle_alpha                 89.936042
_cell_angle_beta                  90.142075
_cell_angle_gamma                 90.069462
_cell_volume                      2914.35961132

loop_
_atom_site_label
_atom_site_type_symbol
_atom_type_description
_atom_site_fract_x
_atom_site_fract_y
_atom_site_fract_z
_atom_type_partial_charge
C1    C     C_R   0.501514 0.259879 0.500099 0.888125
C2    C     C_R   0.277396 0.474530 0.383216 -0.097046
C3    C     C_R   0.252941 0.500825 0.503770 0.316945
C4    C     C_R   0.101719 0.499497 0.506679 -0.057205
C5    C     C_R   0.127374 0.385975 0.498154 -0.021729
C6    C     C_R   0.102365 0.272765 0.489544 -0.138539
C7    C     C_R   0.127235 0.613446 0.514837 -0.020228
C8    C     C_R   0.353357 0.500897 0.500825 -0.042463
C9    C     C_R   0.646654 0.499767 0.500675 -0.042212
C10   C     C_R   0.974523 0.382854 0.511578 -0.042880
C11   C     C_R   0.974395 0.614159 0.501198 0.064208
C12   C     C_R   0.406013 0.500224 0.499997 0.875914
C13   C     C_R   0.949199 0.498220 0.505968 0.073237
C14   C     C_R   0.947848 0.270700 0.525850 -0.308359
C15   C     C_R   0.897874 0.270828 0.527308 0.697036
C16   C     C_R   0.872458 0.383730 0.515216 -0.172395
C17   C     C_R   0.898114 0.497723 0.504990 -0.127155
C18   C     C_R   0.872599 0.611438 0.493681 0.001349
C19   C     C_R   0.822251 0.609442 0.492318 0.512967
C20   C     C_R   0.821891 0.386595 0.513981 0.553645
C21   C     C_R   0.722184 0.502400 0.378356 -0.096258
C22   C     C_R   0.672107 0.502766 0.377565 -0.206418
C23   C     C_R   0.501638 0.740076 0.499957 0.888561
C24   C     C_R   0.671957 0.496373 0.624339 -0.205288
C25   C     C_R   0.722017 0.495789 0.624689 -0.096855
C26   C     C_R   0.747010 0.498779 0.501828 0.307482
C27   C     C_R   0.025511 0.383140 0.503949 0.085354
C28   C     C_R   0.050665 0.499086 0.506846 0.073604
C29   C     C_R   0.025368 0.614639 0.509670 0.045257
C30   C     C_R   0.052413 0.271104 0.492004 -0.210963
C31   C     C_R   0.102086 0.726226 0.524005 -0.132380
C32   C     C_R   0.947578 0.726021 0.486568 -0.208749
C33   C     C_R   0.897668 0.724419 0.483147 -0.105931
C34   C     C_R   0.593991 0.500013 0.500178 0.871478
C35   C     C_R   0.052125 0.727076 0.521817 -0.215106
C36   C     C_R   0.509115 0.063696 0.623512 0.148349
C37   C     C_R   0.509415 0.128559 0.500809 -0.106639
C38   C     C_R   0.519172 0.064983 0.379328 -0.213277
C39   C     C_R   0.519291 0.935368 0.379272 -0.212960
C40   C     C_R   0.509640 0.871362 0.500693 -0.105051
C41   C     C_R   0.509284 0.935862 0.623479 0.131737
C42   C     C_3   0.474696 0.928078 0.739403 -0.470137
C43   C     C_3   0.474381 0.070119 0.739124 -0.491100
C44   C     C_R   0.478141 0.405124 0.071251 0.216192
C45   C     C_R   0.177773 0.388584 0.497430 0.506708
C46   C     C_R   0.525242 0.587271 0.072111 -0.129782
C47   C     C_R   0.525231 0.587312 0.927997 -0.134300
C48   C     C_R   0.478157 0.405080 0.928498 0.214471
C49   C     C_3   0.426085 0.371089 0.922445 -0.503688
C50   C     C_3   0.426060 0.371525 0.076413 -0.510197
C51   C     C_R   0.177639 0.611716 0.514162 0.505517
C52   C     C_R   0.278452 0.527382 0.622845 -0.097386
C53   C     C_R   0.328508 0.527391 0.621545 -0.218213
C54   C     C_R   0.327457 0.474659 0.381626 -0.213803
H1    H     H_    0.345728 0.453139 0.287783 0.151825
H2    H     H_    0.259415 0.547729 0.716141 0.140776
H3    H     H_    0.120940 0.814852 0.532894 0.191286
H4    H     H_    0.964034 0.816763 0.474130 0.149711
H5    H     H_    0.653168 0.494010 0.720584 0.163871
H6    H     H_    0.878776 0.812697 0.472050 0.216728
H7    H     H_    0.741467 0.493111 0.720117 0.139852
H8    H     H_    0.035592 0.817731 0.532967 0.142696
H9    H     H_    0.523255 0.114206 0.283736 0.171361
H10   H     H_    0.523437 0.886428 0.283667 0.166587
H11   H     H_    0.439470 0.886053 0.710062 0.210551
H12   H     H_    0.257531 0.454013 0.291058 0.140777
H13   H     H_    0.491598 0.887351 0.831923 0.202791
H14   H     H_    0.439006 0.110576 0.708978 0.204020
H15   H     H_    0.490954 0.111569 0.831686 0.205285
H16   H     H_    0.544857 0.659086 0.126647 0.144911
H17   H     H_    0.544825 0.659179 0.873569 0.148931
H18   H     H_    0.403509 0.446558 0.877673 0.217230
H19   H     H_    0.420083 0.276524 0.878614 0.201364
H20   H     H_    0.403755 0.448016 0.119407 0.215311
H21   H     H_    0.420016 0.277315 0.121636 0.205801
H22   H     H_    0.121324 0.184438 0.480548 0.192464
H23   H     H_    0.653424 0.505460 0.280925 0.163086
H24   H     H_    0.741765 0.504653 0.283397 0.139424
H25   H     H_    0.964575 0.180532 0.539499 0.168722
H26   H     H_    0.036003 0.180166 0.480892 0.143429
H27   H     H_    0.347654 0.548932 0.714557 0.153347
N1    N     N_R   0.201614 0.500370 0.505274 -0.358580
N2    N     N_R   0.798279 0.498237 0.502542 -0.370648
N3    N     N_R   0.499670 0.499140 0.142800 -0.107481
N4    N     N_R   0.499670 0.499180 0.857150 -0.107373
O1    O     O_R   0.500010 0.316790 0.614690 -0.614611
O2    O     O_2   0.796289 0.279319 0.523605 -0.457504
O3    O     O_2   0.202594 0.720231 0.521214 -0.550601
O4    O     O_2   0.797290 0.717565 0.481403 -0.528797
O5    O     O_R   0.500000 0.316760 0.385350 -0.623247
O6    O     O_R   0.428760 0.500040 0.614660 -0.623972
O7    O     O_R   0.428750 0.500000 0.385310 -0.618133
O8    O     O_R   0.500000 0.683240 0.614650 -0.621142
O9    O     O_R   0.499990 0.683210 0.385310 -0.624451
O10   O     O_R   0.571250 0.500000 0.614690 -0.622281
O11   O     O_R   0.571240 0.499960 0.385340 -0.623363
O12   O     O_2   0.202865 0.280491 0.489802 -0.550716
Zn1   Zn    Zn3+2 0.500000 0.500020 0.653130 0.949977
Zn2   Zn    Zn3+2 0.500000 0.499980 0.346870 0.951056
F1    F     F_    0.874800 0.159147 0.540891 -0.613715

loop_
_geom_bond_atom_site_label_1
_geom_bond_atom_site_label_2
_ccdc_geom_bond_type
C10   C27   A    
C44   C48   A    
C21   C26   A    
C20   O2    S    
C40   C41   A    
C1    O5    A    
C41   C42   S    
C12   O6    A    
C45   N1    A    
C32   H4    S    
C15   F1    S    
O10   Zn1   S    
C39   H10   S    
C26   N2    S    
C47   N4    A    
C36   C37   A    
C34   O11   A    
C50   H20   S    
C5    C6    A    
C9    C22   A    
C16   C20   A    
C23   C40   S    
O11   Zn2   S    
C53   H27   S    
C18   C19   A    
N4    Zn1   S    
C46   C47   A    
C16   C17   A    
C49   H18   S    
C21   H24   S    
C42   H11   S    
C1    C37   S    
C30   H26   S    
C43   H15   S    
C21   C22   A    
C27   C30   A    
C36   C41   A    
C4    C7    A    
C19   N2    A    
C4    C28   A    
C7    C31   A    
C24   C25   A    
C10   C14   A    
C8    C54   A    
C39   C40   A    
C43   H14   S    
C2    H12   S    
C25   C26   A    
C5    C45   A    
C23   O8    A    
C51   O3    S    
C37   C38   A    
C19   O4    S    
C8    C12   S    
C3    N1    S    
C17   C18   A    
C25   H7    S    
C14   H25   S    
C34   O10   A    
C51   N1    A    
C47   H17   S    
C46   N3    A    
C48   C49   S    
C6    C30   A    
C11   C32   A    
C33   H6    S    
C2    C54   A    
C42   H13   S    
C49   H19   S    
C42   C43   S    
O5    Zn2   S    
C52   C53   A    
C38   H9    S    
C44   C50   S    
C1    O1    A    
C54   H1    S    
C28   C29   A    
C14   C15   A    
N3    Zn2   S    
C12   O7    A    
C22   H23   S    
C4    C5    A    
C44   N3    A    
C10   C13   A    
C8    C53   A    
C3    C52   A    
C9    C24   A    
C6    H22   S    
C29   C35   A    
C23   O9    A    
C13   C17   A    
C32   C33   A    
C31   H3    S    
C2    C3    A    
C7    C51   A    
C45   O12   S    
C50   H21   S    
C11   C13   A    
C38   C39   A    
O9    Zn2   S    
C24   H5    S    
C9    C34   S    
C35   H8    S    
C31   C35   A    
O6    Zn1   S    
O1    Zn1   S    
C18   C33   A    
C46   H16   S    
C52   H2    S    
C11   C29   A    
C49   C50   S    
C20   N2    A    
C27   C28   A    
C48   N4    A    
C36   C43   S    
O8    Zn1   S    
C15   C16   A    
O7    Zn2   S    
