data_mof_unit_55650.cif
_audit_creation_date              2012-12-10T17:12:30-0500
_audit_creation_method            fapswitch 2.2
_symmetry_space_group_name_H-M    P1
_symmetry_Int_Tables_number       1
_space_group_crystal_system       triclinic
_cell_length_a                    11.695881
_cell_length_b                    13.014374
_cell_length_c                    11.82799
_cell_angle_alpha                 100.304102
_cell_angle_beta                  93.834003
_cell_angle_gamma                 93.166004
_cell_volume                      1763.24711438

loop_
_atom_site_label
_atom_site_type_symbol
_atom_type_description
_atom_site_fract_x
_atom_site_fract_y
_atom_site_fract_z
_atom_type_partial_charge
C1    C     C_R   0.511349 0.300040 0.478343 0.801045
C2    C     C_R   0.493784 0.700806 0.522412 0.809223
C3    C     C_R   0.390481 0.394832 0.022124 -0.106827
C4    C     C_R   0.632026 0.575524 0.975229 -0.134956
C5    C     C_R   0.400453 0.408198 0.144366 0.121230
C6    C     C_R   0.615194 0.573324 0.854865 0.121444
C7    C     C_R   0.548682 0.542833 0.156648 0.111677
C8    C     C_R   0.443744 0.463565 0.843712 0.126722
C9    C     C_R   0.546961 0.527767 0.033052 -0.021778
C10   C     C_R   0.459052 0.461334 0.965415 -0.039461
C11   C     C_R   0.284181 0.499645 0.499974 0.813128
C12   C     C_R   0.715827 0.500392 0.500034 0.830590
C13   C     C_1   0.162448 0.499751 0.500040 -0.076789
C14   C     C_1   0.837557 0.500283 0.500027 -0.144173
C15   C     C_1   0.059925 0.499904 0.500069 0.070472
C16   C     C_1   0.940083 0.500124 0.500058 0.046430
C17   C     C_R   0.491478 0.816442 0.538824 -0.129042
C18   C     C_R   0.535908 0.187022 0.465682 -0.178630
C19   C     C_R   0.516512 0.012573 0.345222 -0.061242
C20   C     C_R   0.579319 0.980547 0.648200 -0.079391
C21   C     C_R   0.533768 0.122256 0.355236 -0.048785
C22   C     C_R   0.532270 0.878987 0.645929 -0.092818
C23   C     C_R   0.559649 0.141286 0.564599 -0.037720
C24   C     C_R   0.464292 0.865043 0.444029 -0.075142
C25   C     C_R   0.552698 0.030728 0.553388 0.114720
C26   C     C_R   0.507619 0.969373 0.446711 0.064451
Cu1   Cu    Cu3+1 0.508350 0.507730 0.615930 0.999250
Cu2   Cu    Cu3+1 0.491650 0.492270 0.384070 0.978304
N1    N     N_R   0.520920 0.519350 0.790130 -0.236540
N2    N     N_R   0.479080 0.480650 0.209870 -0.250338
O1    O     O_R   0.505930 0.354460 0.582000 -0.632275
O2    O     O_R   0.494070 0.645540 0.418000 -0.626487
O3    O     O_R   0.491820 0.341410 0.386200 -0.580448
O4    O     O_R   0.508180 0.658590 0.613800 -0.497033
O5    O     O_R   0.344250 0.506540 0.597900 -0.569281
O6    O     O_R   0.655750 0.493460 0.402100 -0.585718
O7    O     O_R   0.330140 0.493480 0.402100 -0.565280
O8    O     O_R   0.669860 0.506520 0.597900 -0.604363
C27   C     C_2   0.364920 0.818043 0.361747 0.362163
H1    H     H_    0.341723 0.734775 0.345205 0.123762
O9    O     O_2   0.301676 0.873704 0.317228 -0.524085
C28   C     C_2   0.582152 0.208767 0.680374 0.425219
H2    H     H_    0.650017 0.271135 0.694965 0.106532
O10   O     O_2   0.522770 0.196974 0.758712 -0.609357
C29   C     C_2   0.513071 0.845009 0.757298 0.503666
H3    H     H_    0.576431 0.864033 0.830226 0.094814
O11   O     O_2   0.422468 0.798761 0.770125 -0.491531
C30   C     C_2   0.551134 0.166770 0.249771 0.479172
H4    H     H_    0.498402 0.136483 0.170509 0.053901
O12   O     O_2   0.628658 0.233453 0.249114 -0.503295
C31   C     C_2   0.527253 0.943073 0.231867 0.445855
H5    H     H_    0.468951 0.875322 0.200338 0.149241
O13   O     O_2   0.605492 0.959789 0.172744 -0.485068
C32   C     C_2   0.669213 0.025909 0.741691 0.442631
H6    H     H_    0.658515 0.020537 0.830748 0.087541
O14   O     O_2   0.758202 0.068465 0.718729 -0.503432
C33   C     C_2   0.339276 0.412743 0.775818 0.450709
H7    H     H_    0.344801 0.349842 0.703351 0.091571
O15   O     O_2   0.245022 0.441550 0.800666 -0.496027
C34   C     C_2   0.613308 0.635324 0.228003 0.409661
H8    H     H_    0.672721 0.628563 0.299479 0.104712
O16   O     O_2   0.600997 0.722161 0.205793 -0.535583
C35   C     C_2   0.707704 0.622771 0.799725 0.552402
H9    H     H_    0.792139 0.592053 0.800766 0.053677
O17   O     O_2   0.693231 0.700621 0.758317 -0.545803
C36   C     C_2   0.323616 0.343153 0.201175 0.565523
H10   H     H_    0.351894 0.272082 0.225961 0.011716
O18   O     O_2   0.224648 0.365459 0.213663 -0.486513
C37   C     C_2   0.321280 0.301261 0.955457 0.371372
H11   H     H_    0.357755 0.251587 0.885409 0.114329
O19   O     O_2   0.222539 0.280543 0.975819 -0.446479
C38   C     C_2   0.746001 0.614610 0.037030 0.385258
H12   H     H_    0.785812 0.570569 0.096960 0.069548
O20   O     O_2   0.793895 0.697308 0.024940 -0.461974

loop_
_geom_bond_atom_site_label_1
_geom_bond_atom_site_label_2
_ccdc_geom_bond_type
C6    C35   S    
C15   C16   S    
C36   O18   D    
C35   O17   D    
C11   O7    A    
C8    C33   S    
Cu1   N1    S    
C18   C21   A    
C9    C10   A    
C17   C22   A    
C1    O1    A    
C4    C9    A    
C3    C5    A    
C21   C30   S    
Cu1   O5    S    
C7    C9    A    
C2    O4    A    
C4    C38   S    
C30   O12   D    
C36   H10   S    
C1    C18   S    
C1    O3    A    
C27   O9    D    
C3    C10   A    
C29   H3    S    
C2    C17   S    
C12   O8    A    
C11   C13   S    
C20   C32   S    
C33   H7    S    
C23   C28   S    
C28   O10   D    
Cu2   O7    S    
C34   H8    S    
C18   C23   A    
C8    N1    A    
C2    O2    A    
Cu2   N2    S    
C30   H4    S    
C19   C21   A    
C12   C14   S    
Cu2   O3    S    
C5    N2    A    
C14   C16   T    
C13   C15   T    
Cu1   O4    S    
C34   O16   D    
C37   H11   S    
C24   C26   A    
C32   O14   D    
C33   O15   D    
C17   C24   A    
C12   O6    A    
C28   H2    S    
Cu1   O8    S    
C4    C6    A    
C31   H5    S    
C27   H1    S    
C19   C31   S    
C7    C34   S    
Cu2   O2    S    
C6    N1    A    
C22   C29   S    
Cu2   O6    S    
C38   O20   D    
C23   C25   A    
C20   C25   A    
C29   O11   D    
Cu1   Cu2   S    
C37   O19   D    
C19   C26   A    
C32   H6    S    
C38   H12   S    
C3    C37   S    
C25   C26   A    
Cu1   O1    S    
C11   O5    A    
C8    C10   A    
C35   H9    S    
C20   C22   A    
C5    C36   S    
C31   O13   D    
C24   C27   S    
C7    N2    A    
