data_mof_unit_43385.cif
_audit_creation_date              2012-12-10T18:51:33-0500
_audit_creation_method            fapswitch 2.2
_symmetry_space_group_name_H-M    P1
_symmetry_Int_Tables_number       1
_space_group_crystal_system       triclinic
_cell_length_a                    10.641681
_cell_length_b                    9.97993
_cell_length_c                    10.57788
_cell_angle_alpha                 90.494136
_cell_angle_beta                  91.62032
_cell_angle_gamma                 90.335463
_cell_volume                      1122.89318079

loop_
_atom_site_label
_atom_site_type_symbol
_atom_type_description
_atom_site_fract_x
_atom_site_fract_y
_atom_site_fract_z
_atom_type_partial_charge
C1    C     C_R   0.872054 0.501062 0.500517 -0.070267
C2    C     C_3   0.511513 0.372990 0.038781 0.102607
C3    C     C_3   0.402915 0.423356 0.953923 0.045990
C4    C     C_3   0.592282 0.574643 0.045796 0.054584
C5    C     C_3   0.497933 0.501202 0.875321 -0.122277
C6    C     C_3   0.497210 0.497208 0.124554 -0.094333
C7    C     C_R   0.592406 0.071387 0.563869 0.080470
C8    C     C_R   0.408027 0.928018 0.436138 0.128265
C9    C     C_R   0.408031 0.069948 0.436279 0.138018
C10   C     C_R   0.591250 0.928325 0.564490 0.165277
C11   C     C_R   0.061242 0.436083 0.398893 0.007425
C12   C     C_R   0.128366 0.499889 0.498195 -0.064800
C13   C     C_R   0.939487 0.567465 0.598350 0.013620
C14   C     C_R   0.930765 0.435183 0.400902 0.007694
C15   C     C_R   0.069855 0.566774 0.597056 0.009395
C16   C     C_R   0.260840 0.499741 0.497852 0.949785
C17   C     C_R   0.739326 0.500382 0.501686 0.940776
C18   C     C_R   0.498536 0.499216 0.258330 0.921183
C19   C     C_R   0.499086 0.500529 0.741601 0.904726
C20   C     C_3   0.388376 0.547301 0.039012 0.026334
C21   C     C_3   0.606600 0.450513 0.960954 0.033080
C22   C     C_3   0.483387 0.625220 0.961322 0.082732
H1    H     H_    0.757218 0.172693 0.563802 0.215245
H2    H     H_    0.244419 0.399672 0.844317 0.184807
H3    H     H_    0.747775 0.689030 0.021168 0.180104
H4    H     H_    0.751909 0.597792 0.153684 0.193296
H5    H     H_    0.211025 0.612860 0.002991 0.183219
H6    H     H_    0.286238 0.692511 0.122571 0.189001
H7    H     H_    0.712024 0.295974 0.897221 0.189348
H8    H     H_    0.745978 0.443926 0.834300 0.173926
H9    H     H_    0.457041 0.822379 0.000110 0.185155
H10   H     H_    0.550939 0.792623 0.878942 0.194702
H11   H     H_    0.537011 0.175516 0.000328 0.183231
H12   H     H_    0.659674 0.217137 0.683245 0.230761
H13   H     H_    0.442821 0.205759 0.120870 0.189903
H14   H     H_    0.100176 0.429328 0.212441 0.196242
H15   H     H_    0.098482 0.278177 0.283852 0.185426
H16   H     H_    0.903033 0.731936 0.704099 0.184041
H17   H     H_    0.904015 0.587353 0.784652 0.170339
H18   H     H_    0.880198 0.409925 0.215237 0.181570
H19   H     H_    0.878568 0.267777 0.302069 0.194043
H20   H     H_    0.122840 0.734252 0.695807 0.190453
H21   H     H_    0.120799 0.591889 0.782547 0.162844
H22   H     H_    0.339622 0.780689 0.319819 0.227174
H23   H     H_    0.242516 0.828430 0.438242 0.210900
H24   H     H_    0.339293 0.214456 0.320179 0.235563
H25   H     H_    0.243663 0.168036 0.440169 0.214562
H26   H     H_    0.689023 0.888640 0.725913 0.164143
H27   H     H_    0.773720 0.884587 0.593016 0.177614
H28   H     H_    0.246672 0.309859 0.977745 0.184135
N1    N     N_R   0.500000 0.857200 0.500000 -0.124596
N2    N     N_3   0.725799 0.397278 0.919187 -0.465296
N3    N     N_3   0.467007 0.762791 0.919344 -0.431113
N4    N     N_3   0.527102 0.235316 0.080960 -0.424635
N5    N     N_3   0.126360 0.378241 0.294779 -0.476021
N6    N     N_3   0.875082 0.631521 0.699648 -0.463864
N7    N     N_3   0.856802 0.369757 0.302412 -0.444209
N8    N     N_3   0.144063 0.632146 0.695427 -0.449490
N9    N     N_R   0.500000 0.142800 0.500000 -0.128391
N10   N     N_3   0.694029 0.138114 0.629904 -0.493470
N11   N     N_3   0.305767 0.861162 0.371349 -0.451946
N12   N     N_3   0.305683 0.134603 0.372246 -0.455504
N13   N     N_3   0.687895 0.857307 0.631369 -0.383364
N14   N     N_3   0.301191 0.339475 0.902134 -0.444956
N15   N     N_3   0.694269 0.658420 0.097175 -0.443207
N16   N     N_3   0.269056 0.597927 0.082830 -0.476202
O1    O     O_R   0.316770 0.614620 0.499990 -0.635543
O2    O     O_R   0.683230 0.385380 0.500010 -0.635488
O3    O     O_R   0.683230 0.614620 0.500010 -0.587799
O4    O     O_R   0.316770 0.385380 0.499990 -0.635997
O5    O     O_R   0.499970 0.614650 0.313950 -0.632671
O6    O     O_R   0.500030 0.385350 0.686050 -0.632845
O7    O     O_R   0.500030 0.614650 0.686050 -0.590457
O8    O     O_R   0.499970 0.385350 0.313950 -0.622217
Zn1   Zn    Zn3+2 0.500000 0.653120 0.500000 0.963419
Zn2   Zn    Zn3+2 0.500000 0.346880 0.500000 0.933826

loop_
_geom_bond_atom_site_label_1
_geom_bond_atom_site_label_2
_ccdc_geom_bond_type
C7    C10   A    
C17   O3    A    
H27   N13   S    
H28   N14   S    
C7    N10   S    
C10   N13   S    
O6    Zn2   S    
H20   N8    S    
H25   N12   S    
C3    N14   S    
O8    Zn2   S    
H24   N12   S    
C20   N16   S    
N1    Zn1   S    
C4    N15   S    
C11   C14   A    
C18   O5    A    
H21   N8    S    
C5    C22   S    
C12   C16   S    
C8    C9    A    
C8    N11   S    
C13   N6    S    
C18   O8    A    
H13   N4    S    
H12   N10   S    
O7    Zn1   S    
C19   O6    A    
C2    C6    S    
C10   N1    A    
C7    N9    A    
C22   N3    S    
H1    N10   S    
C6    C18   S    
C9    N12   S    
C19   O7    A    
C16   O4    A    
C4    C6    S    
C2    N4    S    
H26   N13   S    
C9    N9    A    
C1    C13   A    
H6    N16   S    
C4    C22   S    
H17   N6    S    
C12   C15   A    
C2    C21   S    
C5    C21   S    
C3    C20   S    
C16   O1    A    
H9    N3    S    
C8    N1    A    
C20   C22   S    
C13   C15   A    
O4    Zn2   S    
C15   N8    S    
O1    Zn1   S    
H10   N3    S    
C11   N5    S    
H11   N4    S    
C14   N7    S    
H8    N2    S    
C17   O2    A    
H18   N7    S    
H4    N15   S    
C3    C5    S    
C11   C12   A    
C5    C19   S    
H22   N11   S    
O2    Zn2   S    
C6    C20   S    
C1    C17   S    
C2    C3    S    
H19   N7    S    
H14   N5    S    
O5    Zn1   S    
C4    C21   S    
H23   N11   S    
O3    Zn1   S    
H15   N5    S    
H16   N6    S    
H2    N14   S    
H5    N16   S    
H3    N15   S    
C1    C14   A    
N9    Zn2   S    
C21   N2    S    
H7    N2    S    
