data_mof_unit_23539.cif
_audit_creation_date              2012-12-10T20:40:03-0500
_audit_creation_method            fapswitch 2.2
_symmetry_space_group_name_H-M    P1
_symmetry_Int_Tables_number       1
_space_group_crystal_system       triclinic
_cell_length_a                    23.430517
_cell_length_b                    10.667281
_cell_length_c                    9.857267
_cell_angle_alpha                 89.872495
_cell_angle_beta                  90.029573
_cell_angle_gamma                 90.231826
_cell_volume                      2463.69783081

loop_
_atom_site_label
_atom_site_type_symbol
_atom_type_description
_atom_site_fract_x
_atom_site_fract_y
_atom_site_fract_z
_atom_type_partial_charge
C1    C     C_R   0.501809 0.259887 0.500127 0.884659
C2    C     C_R   0.120353 0.622752 0.498167 0.507077
C3    C     C_R   0.238686 0.545548 0.617270 -0.099755
C4    C     C_R   0.389337 0.500342 0.500095 0.868634
C5    C     C_R   0.297895 0.542940 0.616698 -0.220692
C6    C     C_R   0.327170 0.502676 0.500648 -0.039961
C7    C     C_R   0.296574 0.465456 0.385186 -0.222770
C8    C     C_R   0.237369 0.468290 0.385836 -0.097350
C9    C     C_R   0.208505 0.508246 0.501864 0.323772
C10   C     C_R   0.762261 0.503978 0.377492 -0.103099
C11   C     C_R   0.703019 0.502432 0.376971 -0.212463
C12   C     C_R   0.970646 0.281359 0.511174 -0.163266
C13   C     C_R   0.672954 0.501104 0.500203 -0.039976
C14   C     C_R   0.702875 0.501198 0.623717 -0.211559
C15   C     C_R   0.762103 0.502674 0.623779 -0.103631
C16   C     C_R   0.502107 0.740037 0.499896 0.886670
C17   C     C_R   0.791589 0.504143 0.500791 0.327667
C18   C     C_R   0.511082 0.063542 0.623289 0.147524
C19   C     C_R   0.511314 0.128581 0.500761 -0.107772
C20   C     C_R   0.522952 0.065243 0.379340 -0.213279
C21   C     C_R   0.523205 0.935594 0.379231 -0.216514
C22   C     C_R   0.511878 0.871331 0.500579 -0.106290
C23   C     C_R   0.029868 0.282653 0.511711 -0.162217
C24   C     C_R   0.511567 0.935667 0.623276 0.135769
C25   C     C_3   0.470704 0.927023 0.739389 -0.474897
C26   C     C_3   0.469752 0.068983 0.738545 -0.491827
C27   C     C_R   0.463418 0.423815 0.071601 0.174081
C28   C     C_R   0.610704 0.500207 0.500010 0.871289
C29   C     C_R   0.539326 0.566970 0.071858 -0.131115
C30   C     C_R   0.539293 0.567091 0.927850 -0.142868
C31   C     C_R   0.463427 0.423380 0.928713 0.212774
C32   C     C_3   0.399652 0.428514 0.924640 -0.064684
C33   C     C_3   0.400022 0.428111 0.078738 -0.515549
C34   C     C_R   0.059837 0.396803 0.507454 0.001254
C35   C     C_R   0.879881 0.618634 0.497265 0.514108
C36   C     C_R   0.880756 0.394782 0.505786 0.503013
C37   C     C_R   0.940342 0.394207 0.506508 -0.002802
C38   C     C_R   0.970004 0.509677 0.502424 -0.022261
C39   C     C_R   0.939542 0.622772 0.497867 -0.063181
C40   C     C_3   0.372357 0.311208 0.863125 -0.849241
C41   C     C_3   0.056188 0.870132 0.490792 -0.758737
C42   C     C_R   0.030060 0.511624 0.502826 -0.058729
C43   C     C_R   0.060093 0.627498 0.498543 -0.035682
C44   C     C_R   0.028605 0.741799 0.494497 0.167091
C45   C     C_R   0.968875 0.737128 0.494150 -0.150347
C46   C     C_R   0.119195 0.398578 0.507768 0.498202
H1    H     H_    0.948761 0.191742 0.514387 0.190800
H2    H     H_    0.570191 0.623498 0.873353 0.151855
H3    H     H_    0.383525 0.517643 0.880879 0.177169
H4    H     H_    0.384226 0.517456 0.122479 0.199766
H5    H     H_    0.382132 0.341846 0.126221 0.206739
H6    H     H_    0.945027 0.823942 0.490916 0.194831
H7    H     H_    0.216170 0.576491 0.707007 0.139172
H8    H     H_    0.320642 0.573904 0.706071 0.151824
H9    H     H_    0.318228 0.432946 0.295297 0.153075
H10   H     H_    0.213819 0.439252 0.296632 0.139757
H11   H     H_    0.680887 0.502462 0.280470 0.160348
H12   H     H_    0.680641 0.500282 0.720031 0.160949
H13   H     H_    0.528055 0.886801 0.283669 0.169981
H14   H     H_    0.427762 0.107677 0.707527 0.206757
H15   H     H_    0.389471 0.224604 0.910710 0.238036
H16   H     H_    0.325482 0.313960 0.879098 0.251690
H17   H     H_    0.380715 0.308162 0.752514 0.258118
H18   H     H_    0.082356 0.880556 0.397571 0.270555
H19   H     H_    0.024162 0.946658 0.489199 0.196138
H20   H     H_    0.082813 0.884301 0.582720 0.268342
H21   H     H_    0.785459 0.505086 0.282496 0.135472
H22   H     H_    0.785176 0.502847 0.719008 0.135451
H23   H     H_    0.527725 0.114629 0.283831 0.173052
H24   H     H_    0.429139 0.883864 0.710605 0.207867
H25   H     H_    0.490941 0.886989 0.831787 0.206110
H26   H     H_    0.488889 0.111409 0.830991 0.209246
H27   H     H_    0.570270 0.623259 0.126160 0.146339
H28   H     H_    0.052071 0.193822 0.515313 0.189396
N1    N     N_R   0.852180 0.505890 0.501163 -0.360415
N2    N     N_R   0.147772 0.509966 0.502796 -0.359272
N3    N     N_R   0.499610 0.499140 0.142800 -0.105570
N4    N     N_R   0.499610 0.499180 0.857150 -0.122411
O1    O     O_R   0.500010 0.316790 0.614690 -0.612292
O2    O     O_R   0.583850 0.500060 0.614640 -0.623188
O3    O     O_R   0.583840 0.500020 0.385300 -0.625125
O4    O     O_2   0.849624 0.726014 0.492958 -0.547995
O5    O     O_2   0.851441 0.285614 0.509559 -0.546040
O6    O     O_2   0.148467 0.289885 0.513607 -0.556266
O7    O     O_2   0.151887 0.728563 0.492169 -0.560608
O8    O     O_R   0.500000 0.316760 0.385350 -0.619584
O9    O     O_R   0.416160 0.499980 0.614700 -0.628295
O10   O     O_R   0.416150 0.499940 0.385360 -0.616055
O11   O     O_R   0.500000 0.683240 0.614650 -0.618802
O12   O     O_R   0.499990 0.683210 0.385310 -0.621090
Zn1   Zn    Zn3+2 0.500000 0.500020 0.653130 0.944528
Zn2   Zn    Zn3+2 0.500000 0.499980 0.346870 0.948579

loop_
_geom_bond_atom_site_label_1
_geom_bond_atom_site_label_2
_ccdc_geom_bond_type
N3    Zn2   S    
C16   O12   A    
O9    Zn1   S    
C26   H26   S    
C19   C20   A    
C18   C26   S    
C7    H9    S    
C8    H10   S    
C46   N2    A    
C7    C8    A    
C4    O9    A    
C10   H21   S    
C27   C33   S    
C12   C23   A    
C35   N1    A    
C29   C30   A    
C40   H17   S    
C18   C24   A    
C30   H2    S    
C36   C37   A    
C38   C42   A    
C5    C6    A    
C29   H27   S    
C10   C17   A    
C40   H16   S    
C2    O7    S    
C18   C19   A    
C12   C37   A    
O3    Zn2   S    
O10   Zn2   S    
C8    C9    A    
C34   C42   A    
C13   C28   S    
C34   C46   A    
C9    N2    S    
O11   Zn1   S    
O1    Zn1   S    
C39   C45   A    
C16   O11   A    
C21   C22   A    
C3    H7    S    
C12   H1    S    
C35   O4    S    
C14   H12   S    
C1    C19   S    
C27   C31   A    
C5    H8    S    
C24   C25   S    
C4    C6    S    
C41   H19   S    
C45   H6    S    
C3    C5    A    
C25   C26   S    
C40   H15   S    
C35   C39   A    
C43   C44   A    
C37   C38   A    
C3    C9    A    
C36   N1    A    
O12   Zn2   S    
C31   C32   S    
C2    C43   A    
C23   C34   A    
C41   H20   S    
C11   H11   S    
C25   H25   S    
C1    O1    A    
C41   C44   S    
C46   O6    S    
C20   H23   S    
C42   C43   A    
C23   H28   S    
C2    N2    A    
C44   C45   A    
C31   N4    A    
C1    O8    A    
C15   C17   A    
C16   C22   S    
C28   O3    A    
C27   N3    A    
C21   H13   S    
C6    C7    A    
C4    O10   A    
N4    Zn1   S    
C33   H5    S    
C32   C33   S    
O2    Zn1   S    
C33   H4    S    
O8    Zn2   S    
C11   C13   A    
C38   C39   A    
C15   H22   S    
C22   C24   A    
C32   C40   S    
C28   O2    A    
C32   H3    S    
C10   C11   A    
C30   N4    A    
C29   N3    A    
C20   C21   A    
C17   N1    S    
C14   C15   A    
C25   H24   S    
C36   O5    S    
C41   H18   S    
C13   C14   A    
C26   H14   S    
