data_mof_unit_62403.cif
_audit_creation_date              2012-12-10T19:40:24-0500
_audit_creation_method            fapswitch 2.2
_symmetry_space_group_name_H-M    P1
_symmetry_Int_Tables_number       1
_space_group_crystal_system       triclinic
_cell_length_a                    15.781932
_cell_length_b                    17.115143
_cell_length_c                    23.532211
_cell_angle_alpha                 90.336549
_cell_angle_beta                  92.634184
_cell_angle_gamma                 96.814404
_cell_volume                      6304.30323079

loop_
_atom_site_label
_atom_site_type_symbol
_atom_type_description
_atom_site_fract_x
_atom_site_fract_y
_atom_site_fract_z
_atom_type_partial_charge
C1    C     C_R   0.489120 0.348515 0.501023 0.849579
C2    C     C_R   0.432247 0.525763 0.699081 -0.259392
C3    C     C_R   0.569638 0.473897 0.241769 -0.086094
C4    C     C_R   0.430519 0.526258 0.758245 -0.085976
C5    C     C_R   0.504170 0.502637 0.208998 0.281876
C6    C     C_R   0.495882 0.497318 0.790999 0.281706
C7    C     C_R   0.482526 0.262377 0.502945 -0.108318
C8    C     C_R   0.517481 0.737630 0.497098 -0.108405
C9    C     C_R   0.549368 0.224953 0.482183 -0.273178
C10   C     C_R   0.450577 0.775035 0.517795 -0.273207
C11   C     C_R   0.546089 0.143528 0.483465 -0.134218
C12   C     C_R   0.510881 0.651487 0.498984 0.849456
C13   C     C_R   0.453878 0.856465 0.516568 -0.134277
C14   C     C_R   0.475487 0.097741 0.505966 0.319541
C15   C     C_R   0.524567 0.902277 0.494193 0.319536
C16   C     C_R   0.500055 0.501522 0.390820 0.849170
C17   C     C_R   0.499943 0.498471 0.609178 0.849303
C18   C     C_R   0.409007 0.134901 0.526763 -0.207022
C19   C     C_R   0.591105 0.865138 0.473459 -0.207042
C20   C     C_R   0.411757 0.216600 0.525711 0.357535
C21   C     C_R   0.588330 0.783436 0.474450 0.357516
C22   C     C_R   0.750908 0.461853 0.472218 0.068737
C23   C     C_R   0.437165 0.532303 0.235706 -0.128740
C24   C     C_R   0.249092 0.538145 0.527784 0.068734
C25   C     C_R   0.840365 0.464065 0.473836 -0.258266
C26   C     C_R   0.159635 0.535933 0.526165 -0.258269
C27   C     C_R   0.891418 0.516215 0.511716 0.382951
C28   C     C_R   0.108582 0.483787 0.488282 0.382939
C29   C     C_R   0.849579 0.564524 0.546770 -0.271380
C30   C     C_R   0.150421 0.435480 0.453227 -0.271344
C31   C     C_R   0.759988 0.560423 0.543780 0.152481
C32   C     C_R   0.240012 0.439580 0.456217 0.152567
C33   C     C_R   0.507576 0.568837 0.880565 0.547441
C34   C     C_R   0.562751 0.467456 0.764265 -0.128686
C35   C     C_R   0.492505 0.431115 0.119439 0.547460
C36   C     C_R   0.483289 0.428294 0.880210 0.551011
C37   C     C_R   0.516806 0.571658 0.119793 0.551034
C38   C     C_R   0.485252 0.427539 0.939859 -0.023148
C39   C     C_R   0.514849 0.572412 0.060146 -0.023168
C40   C     C_R   0.498744 0.499629 0.969986 -0.014604
C41   C     C_R   0.501353 0.500323 0.030019 -0.014603
C42   C     C_R   0.509719 0.571021 0.940227 -0.019944
C43   C     C_R   0.490372 0.428930 0.059778 -0.019967
C44   C     C_R   0.474342 0.356677 0.969956 -0.147689
C45   C     C_R   0.434682 0.533118 0.294907 0.349665
C46   C     C_R   0.525762 0.643274 0.030049 -0.147709
C47   C     C_R   0.476889 0.357365 0.029299 -0.150333
C48   C     C_R   0.523205 0.642586 0.970706 -0.150326
C49   C     C_R   0.565199 0.466642 0.705063 0.349612
C50   C     C_R   0.500320 0.503241 0.328224 -0.116407
C51   C     C_R   0.499681 0.496732 0.671770 -0.116294
C52   C     C_R   0.567887 0.474406 0.300932 -0.259288
Cl1   Cl    Cl    0.327143 0.258100 0.556233 -0.570775
Cl2   Cl    Cl    0.673026 0.741981 0.443996 -0.570896
Cl3   Cl    Cl    0.350143 0.575561 0.324709 -0.569886
Cl4   Cl    Cl    0.649517 0.423918 0.675215 -0.569724
Cu1   Cu    Cu3+1 0.415220 0.496180 0.497250 1.018795
Cu2   Cu    Cu3+1 0.584780 0.503820 0.502750 1.018781
H1    H     H_    0.463885 0.300476 0.947789 0.195280
H2    H     H_    0.271280 0.401963 0.428925 0.139948
H3    H     H_    0.468196 0.301682 0.051166 0.193934
H4    H     H_    0.531894 0.698269 0.948839 0.193936
H5    H     H_    0.386901 0.554994 0.210155 0.179342
H6    H     H_    0.612932 0.444607 0.789797 0.179448
H7    H     H_    0.618983 0.451286 0.325385 0.169478
H8    H     H_    0.381247 0.549048 0.674640 0.169375
H9    H     H_    0.621856 0.451145 0.221329 0.158947
H10   H     H_    0.378401 0.549159 0.778700 0.159047
H11   H     H_    0.395684 0.741217 0.535417 0.173442
H12   H     H_    0.536223 0.699475 0.052216 0.195273
H13   H     H_    0.604192 0.258753 0.464466 0.173373
H14   H     H_    0.401085 0.883134 0.533106 0.172244
H15   H     H_    0.598825 0.116842 0.466863 0.172241
H16   H     H_    0.355034 0.099858 0.544519 0.183311
H17   H     H_    0.645142 0.900202 0.455794 0.183314
H18   H     H_    0.287650 0.578283 0.556953 0.120759
H19   H     H_    0.712350 0.421713 0.443049 0.120759
H20   H     H_    0.131208 0.574661 0.554290 0.162202
H21   H     H_    0.868792 0.425336 0.445711 0.162203
H22   H     H_    0.886333 0.605360 0.576415 0.156420
H23   H     H_    0.113667 0.394646 0.423580 0.156429
H24   H     H_    0.728720 0.598042 0.571071 0.139914
N1    N     N_R   0.494765 0.498210 0.851913 -0.461556
N2    N     N_R   0.505317 0.501742 0.148089 -0.461600
N3    N     N_2   0.468674 0.014550 0.508923 -0.233221
N4    N     N_2   0.531388 0.985469 0.491262 -0.233224
N5    N     N_R   0.712130 0.509560 0.506880 -0.166542
N6    N     N_R   0.287870 0.490440 0.493120 -0.166552
N7    N     N_2   0.983261 0.522340 0.516193 -0.225072
N8    N     N_2   0.016739 0.477662 0.483805 -0.225067
O1    O     O_R   0.420530 0.382500 0.497430 -0.547702
O2    O     O_2   0.480834 0.363333 0.148606 -0.527873
O3    O     O_2   0.469766 0.359790 0.850655 -0.511679
O4    O     O_2   0.530327 0.640159 0.149351 -0.511651
O5    O     O_R   0.579470 0.617500 0.502570 -0.547627
O6    O     O_R   0.563720 0.388950 0.502070 -0.587823
O7    O     O_R   0.436280 0.611050 0.497930 -0.587918
O8    O     O_R   0.428390 0.496750 0.415560 -0.546422
O9    O     O_R   0.571610 0.503250 0.584440 -0.546539
O10   O     O_R   0.571580 0.503200 0.420200 -0.586773
O11   O     O_R   0.428420 0.496800 0.579800 -0.586686
O12   O     O_2   0.519241 0.636622 0.851401 -0.527946

loop_
_geom_bond_atom_site_label_1
_geom_bond_atom_site_label_2
_ccdc_geom_bond_type
C38   C40   A    
C23   C45   A    
C27   C29   A    
C14   C18   A    
Cu2   N5    S    
C17   C51   S    
C39   C41   A    
N3    N4    D    
C15   C19   A    
C26   H20   S    
C31   H24   S    
C33   C42   A    
C19   C21   A    
C24   C26   A    
C21   Cl2   S    
C11   C14   A    
C23   H5    S    
C36   N1    A    
C32   N6    A    
Cu2   O6    S    
C17   O11   A    
C36   O3    S    
C49   C51   A    
C22   C25   A    
C50   C52   A    
C37   N2    A    
C35   C43   A    
C44   C47   A    
C9    C11   A    
C35   O2    S    
C40   C42   A    
C18   H16   S    
C25   H21   S    
C41   C43   A    
C37   C39   A    
C46   C48   A    
C31   N5    A    
C33   O12   S    
Cu2   O10   S    
C22   H19   S    
C4    C6    A    
C11   H15   S    
C4    H10   S    
C5    N2    S    
C24   H18   S    
C2    H8    S    
C17   O9    A    
C6    C34   A    
C2    C4    A    
Cu2   O5    S    
C38   C44   A    
C24   N6    A    
C48   H4    S    
C5    C23   A    
C13   C15   A    
C8    C12   S    
Cu1   O7    S    
C34   H6    S    
C8    C21   A    
C12   O5    A    
C42   C48   A    
C22   N5    A    
C33   N1    A    
C12   O7    A    
C39   C46   A    
C40   C41   A    
C15   N4    S    
C32   H2    S    
C7    C9    A    
C34   C49   A    
C6    N1    S    
Cu1   O1    S    
C1    C7    S    
C16   O10   A    
Cu2   O9    S    
C9    H13   S    
C14   N3    S    
C16   C50   S    
C20   Cl1   S    
C3    C5    A    
C10   C13   A    
C47   H3    S    
C35   N2    A    
C13   H14   S    
C25   C27   A    
C49   Cl4   S    
Cu1   O11   S    
C26   C28   A    
Cu1   N6    S    
C30   H23   S    
C36   C38   A    
C28   C30   A    
C29   C31   A    
C3    C52   A    
C30   C32   A    
C16   O8    A    
Cu1   Cu2   S    
C29   H22   S    
C3    H9    S    
C45   C50   A    
C1    O6    A    
Cu1   O8    S    
C19   H17   S    
C37   O4    S    
C27   N7    S    
C18   C20   A    
C46   H12   S    
C2    C51   A    
C10   H11   S    
C45   Cl3   S    
C8    C10   A    
C7    C20   A    
C1    O1    A    
C28   N8    S    
C44   H1    S    
N7    N8    D    
C43   C47   A    
C52   H7    S    
