data_mof_unit_29753.cif
_audit_creation_date              2012-10-26T21:05:41-0400
_audit_creation_method            fapswitch 2.2
_symmetry_space_group_name_H-M    P1
_symmetry_Int_Tables_number       1
_space_group_crystal_system       triclinic
_cell_length_a                    13.024959
_cell_length_b                    9.095351
_cell_length_c                    7.778578
_cell_angle_alpha                 90.010718
_cell_angle_beta                  96.515024
_cell_angle_gamma                 89.983843
_cell_volume                      915.550507831

loop_
_atom_site_label
_atom_site_type_symbol
_atom_type_description
_atom_site_fract_x
_atom_site_fract_y
_atom_site_fract_z
_atom_type_partial_charge
C1    C     C_R   0.499982 0.220000 0.499989 0.546316
C2    C     C_R   0.869477 0.420285 0.702826 0.001773
C3    C     C_R   0.136176 0.464302 0.580085 -0.144011
C4    C     C_R   0.864461 0.539908 0.421338 -0.071387
C5    C     C_R   0.029256 0.475221 0.577365 -0.018797
C6    C     C_R   0.972005 0.541131 0.431609 0.051269
C7    C     C_1   0.499986 0.065361 0.499983 -0.018634
C8    C     C_1   0.499997 0.934633 0.500004 -0.003906
C9    C     C_2   0.814204 0.356129 0.842421 0.321024
C10   C     C_2   0.186236 0.676225 0.176431 0.255097
C11   C     C_2   0.965363 0.684454 0.149968 0.256865
C12   C     C_R   0.500036 0.779998 0.500014 0.581179
C13   C     C_2   0.039599 0.347377 0.867322 0.267382
C14   C     C_R   0.300184 0.507605 0.467414 0.577287
C15   C     C_R   0.700001 0.492952 0.532873 0.519653
C16   C     C_R   0.813137 0.482787 0.554240 -0.052397
C17   C     C_R   0.187573 0.522739 0.448168 0.011562
C18   C     C_R   0.023250 0.603914 0.297027 0.009976
C19   C     C_R   0.978571 0.415969 0.714363 0.010363
C20   C     C_R   0.132001 0.596551 0.306887 -0.026811
Cu1   Cu    Cu3+1 0.500010 0.500000 0.669080 1.057818
Cu2   Cu    Cu3+1 0.499990 0.500000 0.330920 1.099676
H1    H     H_    0.818659 0.583749 0.308426 0.202413
H2    H     H_    0.181395 0.407053 0.684499 0.129017
H3    H     H_    0.746943 0.286980 0.809632 0.127132
H4    H     H_    0.158315 0.669182 0.039948 0.083157
H5    H     H_    0.979194 0.660014 0.018054 0.106715
H6    H     H_    0.106643 0.403406 0.932166 0.072700
N1    N     N_1   0.499980 0.500000 0.076820 -0.065803
N2    N     N_1   0.500020 0.500000 0.923180 -0.072603
O1    O     O_R   0.500000 0.288400 0.642760 -0.508860
O2    O     O_2   0.259915 0.755793 0.221306 -0.464705
O3    O     O_2   0.905227 0.782894 0.175825 -0.465776
O4    O     O_2   0.016859 0.226272 0.919151 -0.428207
O5    O     O_R   0.500000 0.711600 0.357240 -0.468106
O6    O     O_R   0.500000 0.288400 0.357240 -0.494663
O7    O     O_R   0.500000 0.711600 0.642760 -0.494702
O8    O     O_R   0.349000 0.500000 0.619590 -0.516301
O9    O     O_R   0.651000 0.500000 0.380410 -0.496586
O10   O     O_R   0.348990 0.500000 0.334020 -0.476393
O11   O     O_R   0.651010 0.500000 0.665980 -0.514301
O12   O     O_2   0.841628 0.383062 0.994499 -0.485426

loop_
_geom_bond_atom_site_label_1
_geom_bond_atom_site_label_2
_ccdc_geom_bond_type
C4    C16   A    
C13   H6    S    
N1    N2    T    
C5    C19   A    
Cu2   N1    S    
C14   O8    A    
C2    C16   A    
Cu1   N2    S    
C11   H5    S    
C8    C12   S    
Cu2   O10   S    
C10   H4    S    
C9    O12   D    
C9    H3    S    
C7    C8    T    
C11   C18   S    
Cu1   Cu2   S    
C12   O5    A    
Cu2   O5    S    
Cu1   O1    S    
C14   C17   S    
C15   O9    A    
C3    H2    S    
Cu1   O11   S    
Cu2   O9    S    
C3    C17   A    
C18   C20   A    
C5    C6    A    
C6    C18   A    
C13   C19   S    
C14   O10   A    
C15   C16   S    
C10   O2    D    
C1    O1    A    
C17   C20   A    
Cu2   O6    S    
C15   O11   A    
Cu1   O7    S    
C4    C6    A    
C11   O3    D    
C12   O7    A    
C4    H1    S    
C13   O4    D    
C2    C19   A    
C1    C7    S    
C2    C9    S    
Cu1   O8    S    
C1    O6    A    
C10   C20   S    
C3    C5    A    
