data_mof_unit_66181.cif
_audit_creation_date              2012-12-10T17:59:32-0500
_audit_creation_method            fapswitch 2.2
_symmetry_space_group_name_H-M    P1
_symmetry_Int_Tables_number       1
_space_group_crystal_system       monoclinic
_cell_length_a                    18.339214
_cell_length_b                    18.339215
_cell_length_c                    34.435401
_cell_angle_alpha                 90.0
_cell_angle_beta                  90.0
_cell_angle_gamma                 90.007863
_cell_volume                      11581.5477192

loop_
_atom_site_label
_atom_site_type_symbol
_atom_type_description
_atom_site_fract_x
_atom_site_fract_y
_atom_site_fract_z
_atom_type_partial_charge
C1    C     C_R   0.038523 0.555041 0.418398 0.349292
C2    C     C_R   0.461478 0.944958 0.081602 0.349293
C3    C     C_R   0.446289 0.960239 0.540920 0.073576
C4    C     C_R   0.039758 0.553713 0.459080 0.073578
C5    C     C_R   0.960242 0.446287 0.540920 0.073578
C6    C     C_R   0.446289 0.960239 0.459080 0.073577
C7    C     C_R   0.553711 0.039761 0.540920 0.073577
C8    C     C_R   0.460243 0.946286 0.959080 0.073578
C9    C     C_R   0.539757 0.053714 0.040920 0.073578
C10   C     C_R   0.053715 0.539755 0.959080 0.073578
C11   C     C_R   0.946284 0.460245 0.040920 0.073578
C12   C     C_R   0.539757 0.053714 0.959080 0.073577
C13   C     C_R   0.944956 0.461480 0.918398 0.349293
C14   C     C_R   0.460243 0.946286 0.040920 0.073577
C15   C     C_R   0.946284 0.460245 0.959080 0.073579
C16   C     C_R   0.053716 0.539755 0.040920 0.073579
C17   C     C_R   0.196265 0.696265 0.250000 0.001953
C18   C     C_R   0.803735 0.303735 0.750000 0.001953
C19   C     C_R   0.303733 0.196267 0.250000 0.005508
C20   C     C_R   0.696267 0.803733 0.750000 0.005508
C21   C     C_R   0.803735 0.303735 0.250000 0.001953
C22   C     C_R   0.196265 0.696265 0.750000 0.001953
C23   C     C_R   0.696267 0.803733 0.250000 0.005508
C24   C     C_R   0.055043 0.538520 0.081602 0.349293
C25   C     C_R   0.303733 0.196267 0.750000 0.005508
C26   C     C_R   0.196267 0.303733 0.750000 0.005508
C27   C     C_R   0.803733 0.696267 0.250000 0.005508
C28   C     C_R   0.303735 0.803735 0.750000 0.001953
C29   C     C_R   0.696265 0.196265 0.250000 0.001952
C30   C     C_R   0.803733 0.696267 0.750000 0.005508
C31   C     C_R   0.196267 0.303733 0.250000 0.005508
C32   C     C_R   0.696265 0.196265 0.750000 0.001952
C33   C     C_R   0.303735 0.803735 0.250000 0.001952
C34   C     C_R   0.000000 0.500000 0.479489 -0.054171
C35   C     C_R   0.461478 0.944958 0.918398 0.349292
C36   C     C_R   0.000000 0.500000 0.520510 -0.054171
C37   C     C_R   0.500000 0.000000 0.479489 -0.054170
C38   C     C_R   0.500000 1.000000 0.520510 -0.054170
C39   C     C_R   0.500000 1.000000 0.979490 -0.054171
C40   C     C_R   0.500000 1.000000 0.020510 -0.054171
C41   C     C_R   1.000000 0.500000 0.979490 -0.054171
C42   C     C_R   1.000000 0.500000 0.020510 -0.054171
C43   C     C_R   0.538522 0.055042 0.081602 0.349293
C44   C     C_R   0.055043 0.538520 0.918398 0.349292
C45   C     C_R   0.944957 0.461480 0.081602 0.349292
C46   C     C_R   0.000000 0.500000 0.398065 -0.258585
C47   C     C_R   1.000000 0.500000 0.601935 -0.258585
C48   C     C_R   0.500000 1.000000 0.398065 -0.258586
C49   C     C_R   0.961477 0.444959 0.581602 0.349292
C50   C     C_R   0.500000 0.000000 0.601935 -0.258586
C51   C     C_R   0.500000 1.000000 0.898065 -0.258584
C52   C     C_R   0.500000 1.000000 0.101934 -0.258584
C53   C     C_R   1.000000 0.500000 0.898065 -0.258583
C54   C     C_R   0.000000 0.500000 0.101934 -0.258583
C55   C     C_R   0.920927 0.393436 0.479840 -0.161016
C56   C     C_R   0.079073 0.606564 0.520160 -0.161016
C57   C     C_R   0.606560 0.079079 0.479840 -0.161017
C58   C     C_R   0.393440 0.920921 0.520160 -0.161017
C59   C     C_R   0.079073 0.606564 0.479840 -0.161016
C60   C     C_R   0.444961 0.961474 0.418398 0.349291
C61   C     C_R   0.920927 0.393436 0.520160 -0.161016
C62   C     C_R   0.393440 0.920921 0.479840 -0.161016
C63   C     C_R   0.606560 0.079079 0.520160 -0.161016
C64   C     C_R   0.420929 0.893435 0.979840 -0.161016
C65   C     C_R   0.579071 0.106565 0.020160 -0.161016
C66   C     C_R   0.106569 0.579067 0.979840 -0.161016
C67   C     C_R   0.893431 0.420933 0.020160 -0.161016
C68   C     C_R   0.579071 0.106565 0.979840 -0.161016
C69   C     C_R   0.420929 0.893434 0.020160 -0.161016
C70   C     C_R   0.893431 0.420933 0.979840 -0.161016
C71   C     C_R   0.555039 0.038526 0.581602 0.349291
C72   C     C_R   0.106569 0.579067 0.020160 -0.161016
C73   C     C_R   0.500000 0.000000 0.355763 0.796086
C74   C     C_R   0.500000 1.000000 0.644237 0.796086
C75   C     C_R   1.000000 0.500000 0.355763 0.796084
C76   C     C_R   1.000000 0.500000 0.644237 0.796084
C77   C     C_R   1.000000 0.500000 0.855763 0.796082
C78   C     C_R   0.000000 0.500000 0.144237 0.796082
C79   C     C_R   0.500000 1.000000 0.855763 0.796084
C80   C     C_R   0.500000 0.000000 0.144237 0.796084
C81   C     C_R   0.359873 0.140127 0.250000 0.785577
C82   C     C_R   0.961477 0.444959 0.418398 0.349292
C83   C     C_R   0.640127 0.859873 0.750000 0.785577
C84   C     C_R   0.859875 0.359875 0.250000 0.788840
C85   C     C_R   0.140125 0.640125 0.750000 0.788840
C86   C     C_R   0.640127 0.859873 0.250000 0.785577
C87   C     C_R   0.359873 0.140127 0.750000 0.785577
C88   C     C_R   0.140125 0.640125 0.250000 0.788840
C89   C     C_R   0.859875 0.359875 0.750000 0.788840
C90   C     C_R   0.359875 0.859875 0.750000 0.788840
C91   C     C_R   0.640125 0.140125 0.250000 0.788840
C92   C     C_R   0.859873 0.640127 0.750000 0.785578
C93   C     C_R   0.038523 0.555041 0.581602 0.349292
C94   C     C_R   0.140127 0.359873 0.250000 0.785578
C95   C     C_R   0.640125 0.140125 0.750000 0.788840
C96   C     C_R   0.359875 0.859875 0.250000 0.788840
C97   C     C_R   0.140127 0.359873 0.750000 0.785578
C98   C     C_R   0.859873 0.640127 0.250000 0.785578
C99   C     C_R   0.244302 0.809154 0.224566 -0.175232
C100  C     C_R   0.755698 0.190846 0.775434 -0.175232
C101  C     C_R   0.190275 0.243726 0.224986 -0.182503
C102  C     C_R   0.809725 0.756274 0.775014 -0.182503
C103  C     C_R   0.755698 0.190846 0.224566 -0.175232
C104  C     C_R   0.555039 0.038526 0.418398 0.349291
C105  C     C_R   0.244302 0.809154 0.775434 -0.175232
C106  C     C_R   0.809724 0.756273 0.224985 -0.182503
C107  C     C_R   0.190276 0.243727 0.775014 -0.182503
C108  C     C_R   0.243727 0.190276 0.775014 -0.182503
C109  C     C_R   0.756273 0.809724 0.224985 -0.182503
C110  C     C_R   0.190846 0.755698 0.775434 -0.175232
C111  C     C_R   0.809154 0.244302 0.224566 -0.175232
C112  C     C_R   0.756274 0.809725 0.775014 -0.182504
C113  C     C_R   0.243726 0.190275 0.224986 -0.182504
C114  C     C_R   0.809154 0.244302 0.775434 -0.175232
C115  C     C_R   0.444961 0.961474 0.581602 0.349291
C116  C     C_R   0.190846 0.755698 0.224566 -0.175232
C117  C     C_R   0.744302 0.309154 0.724566 -0.175232
C118  C     C_R   0.255698 0.690846 0.275434 -0.175232
C119  C     C_R   0.690275 0.743726 0.724986 -0.182503
C120  C     C_R   0.309725 0.256273 0.275014 -0.182503
C121  C     C_R   0.255698 0.690846 0.724566 -0.175232
C122  C     C_R   0.744302 0.309154 0.275434 -0.175232
C123  C     C_R   0.309724 0.256273 0.724985 -0.182503
C124  C     C_R   0.690276 0.743727 0.275014 -0.182503
C125  C     C_R   0.743727 0.690276 0.275014 -0.182503
C126  C     C_R   0.538522 0.055042 0.918398 0.349293
C127  C     C_R   0.256273 0.309724 0.724985 -0.182503
C128  C     C_R   0.690846 0.255698 0.275434 -0.175232
C129  C     C_R   0.309154 0.744302 0.724566 -0.175232
C130  C     C_R   0.256273 0.309725 0.275014 -0.182504
C131  C     C_R   0.743726 0.690275 0.724986 -0.182504
C132  C     C_R   0.309154 0.744302 0.275434 -0.175232
C133  C     C_R   0.690846 0.255698 0.724566 -0.175231
C134  C     C_R   0.960242 0.446287 0.459080 0.073578
C135  C     C_R   0.039758 0.553713 0.540920 0.073578
C136  C     C_R   0.553711 0.039761 0.459080 0.073576
H1    H     H_    0.889970 0.351500 0.465049 0.205430
H2    H     H_    0.610027 0.148502 0.034951 0.205431
H3    H     H_    0.148507 0.610021 0.965049 0.205431
H4    H     H_    0.851493 0.389979 0.034951 0.205431
H5    H     H_    0.610027 0.148502 0.965049 0.205430
H6    H     H_    0.389973 0.851498 0.034951 0.205430
H7    H     H_    0.851493 0.389979 0.965049 0.205431
H8    H     H_    0.148507 0.610021 0.034951 0.205431
H9    H     H_    0.239044 0.854578 0.204659 0.171820
H10   H     H_    0.760955 0.145422 0.795341 0.171820
H11   H     H_    0.144384 0.237995 0.205423 0.167925
H12   H     H_    0.110030 0.648500 0.534951 0.205430
H13   H     H_    0.855616 0.762005 0.794577 0.167925
H14   H     H_    0.760956 0.145422 0.204659 0.171820
H15   H     H_    0.239044 0.854578 0.795341 0.171820
H16   H     H_    0.855614 0.762004 0.205421 0.167925
H17   H     H_    0.144386 0.237996 0.794578 0.167925
H18   H     H_    0.237996 0.144386 0.794578 0.167925
H19   H     H_    0.762004 0.855614 0.205421 0.167925
H20   H     H_    0.145422 0.760956 0.795341 0.171820
H21   H     H_    0.854578 0.239044 0.204659 0.171820
H22   H     H_    0.762005 0.855616 0.794577 0.167925
H23   H     H_    0.648494 0.110038 0.465049 0.205430
H24   H     H_    0.237995 0.144384 0.205423 0.167925
H25   H     H_    0.854578 0.239044 0.795341 0.171820
H26   H     H_    0.145422 0.760955 0.204659 0.171820
H27   H     H_    0.739044 0.354578 0.704659 0.171820
H28   H     H_    0.260955 0.645422 0.295341 0.171820
H29   H     H_    0.644384 0.737995 0.705423 0.167925
H30   H     H_    0.355616 0.262005 0.294577 0.167925
H31   H     H_    0.260956 0.645422 0.704659 0.171821
H32   H     H_    0.739044 0.354578 0.295341 0.171821
H33   H     H_    0.355614 0.262004 0.705421 0.167925
H34   H     H_    0.351506 0.889962 0.534951 0.205430
H35   H     H_    0.644386 0.737996 0.294578 0.167925
H36   H     H_    0.737996 0.644386 0.294578 0.167925
H37   H     H_    0.262004 0.355614 0.705421 0.167925
H38   H     H_    0.645422 0.260956 0.295341 0.171821
H39   H     H_    0.354578 0.739044 0.704659 0.171821
H40   H     H_    0.262005 0.355616 0.294577 0.167925
H41   H     H_    0.737995 0.644384 0.705423 0.167925
H42   H     H_    0.354578 0.739044 0.295341 0.171821
H43   H     H_    0.645422 0.260955 0.704659 0.171821
H44   H     H_    0.053470 0.618935 0.373514 0.336716
H45   H     H_    0.110030 0.648500 0.465049 0.205430
H46   H     H_    0.946530 0.381065 0.626486 0.336716
H47   H     H_    0.381066 0.946526 0.373515 0.336716
H48   H     H_    0.618934 0.053474 0.626485 0.336716
H49   H     H_    0.946530 0.381065 0.373514 0.336716
H50   H     H_    0.053470 0.618935 0.626486 0.336716
H51   H     H_    0.618934 0.053474 0.373515 0.336716
H52   H     H_    0.381066 0.946526 0.626485 0.336716
H53   H     H_    0.553468 0.118936 0.873514 0.336717
H54   H     H_    0.446532 0.881064 0.126486 0.336717
H55   H     H_    0.881064 0.446533 0.873513 0.336718
H56   H     H_    0.889970 0.351500 0.534951 0.205430
H57   H     H_    0.118936 0.553466 0.126487 0.336718
H58   H     H_    0.446531 0.881064 0.873514 0.336717
H59   H     H_    0.553469 0.118936 0.126486 0.336717
H60   H     H_    0.118937 0.553465 0.873514 0.336715
H61   H     H_    0.881063 0.446535 0.126486 0.336715
H62   H     H_    0.351506 0.889962 0.465049 0.205430
H63   H     H_    0.648494 0.110038 0.534951 0.205430
H64   H     H_    0.389973 0.851498 0.965049 0.205431
O1    O     O_3   0.500000 0.000000 0.250000 -0.491014
O2    O     O_R   0.500000 0.939270 0.662450 -0.623692
O3    O     O_R   0.939270 0.500000 0.337550 -0.623694
O4    O     O_R   0.060730 0.500000 0.662450 -0.623694
O5    O     O_R   0.000000 0.439270 0.837550 -0.623697
O6    O     O_R   1.000000 0.560730 0.162450 -0.623697
O7    O     O_R   0.560730 0.000000 0.837550 -0.623694
O8    O     O_R   0.439270 1.000000 0.162450 -0.623694
O9    O     O_R   1.000000 0.560730 0.837550 -0.623694
O10   O     O_R   0.000000 0.439270 0.162450 -0.623694
O11   O     O_R   0.439270 0.000000 0.837550 -0.623695
O12   O     O_3   0.500000 0.000000 0.750000 -0.491014
O13   O     O_R   0.560730 1.000000 0.162450 -0.623695
O14   O     O_R   0.414490 0.146150 0.273020 -0.646593
O15   O     O_R   0.585510 0.853850 0.726980 -0.646593
O16   O     O_R   0.853850 0.414490 0.273020 -0.644242
O17   O     O_R   0.146150 0.585510 0.726980 -0.644242
O18   O     O_R   0.585510 0.853850 0.273020 -0.646594
O19   O     O_R   0.414490 0.146150 0.726980 -0.646593
O20   O     O_R   0.146150 0.585510 0.273020 -0.644242
O21   O     O_R   0.853850 0.414490 0.726980 -0.644242
O22   O     O_R   0.414490 0.853850 0.726980 -0.644242
O23   O     O_3   1.000000 0.500000 0.250000 -0.491014
O24   O     O_R   0.585510 0.146150 0.273020 -0.644242
O25   O     O_R   0.853850 0.585510 0.726980 -0.646594
O26   O     O_R   0.146150 0.414490 0.273020 -0.646594
O27   O     O_R   0.585510 0.146150 0.726980 -0.644242
O28   O     O_R   0.414490 0.853850 0.273020 -0.644242
O29   O     O_R   0.146150 0.414490 0.726980 -0.646593
O30   O     O_R   0.853850 0.585510 0.273020 -0.646593
O31   O     O_R   0.914490 0.646150 0.773020 -0.646594
O32   O     O_R   0.085510 0.353850 0.226980 -0.646594
O33   O     O_R   0.353850 0.914490 0.773020 -0.644242
O34   O     O_3   0.000000 0.500000 0.750000 -0.491014
O35   O     O_R   0.646150 0.085510 0.226980 -0.644242
O36   O     O_R   0.085510 0.353850 0.773020 -0.646594
O37   O     O_R   0.914490 0.646150 0.226980 -0.646594
O38   O     O_R   0.646150 0.085510 0.773020 -0.644242
O39   O     O_R   0.353850 0.914490 0.226980 -0.644242
O40   O     O_R   0.914490 0.353850 0.226980 -0.644242
O41   O     O_R   0.085510 0.646150 0.773020 -0.644242
O42   O     O_R   0.353850 0.085510 0.226980 -0.646594
O43   O     O_R   0.646150 0.914490 0.773020 -0.646594
O44   O     O_R   0.085510 0.646150 0.226980 -0.644242
O45   O     O_R   0.500000 0.939270 0.337550 -0.623694
O46   O     O_R   0.914490 0.353850 0.773020 -0.644242
O47   O     O_R   0.646150 0.914490 0.226980 -0.646594
O48   O     O_R   0.353850 0.085510 0.773020 -0.646594
O49   O     O_3   0.074700 0.611199 0.399586 -0.760036
O50   O     O_3   0.925300 0.388801 0.600414 -0.760036
O51   O     O_3   0.388805 0.925295 0.399586 -0.760035
O52   O     O_3   0.611195 0.074705 0.600414 -0.760035
O53   O     O_3   0.925300 0.388801 0.399586 -0.760036
O54   O     O_3   0.074700 0.611199 0.600414 -0.760035
O55   O     O_3   0.611195 0.074705 0.399586 -0.760035
O56   O     O_R   0.500000 0.060730 0.662450 -0.623694
O57   O     O_3   0.388805 0.925295 0.600414 -0.760035
O58   O     O_3   0.574698 0.111200 0.899586 -0.760037
O59   O     O_3   0.425302 0.888800 0.100414 -0.760037
O60   O     O_3   0.888797 0.425306 0.899586 -0.760039
O61   O     O_3   0.111203 0.574694 0.100414 -0.760039
O62   O     O_3   0.425302 0.888800 0.899586 -0.760037
O63   O     O_3   0.574698 0.111200 0.100414 -0.760037
O64   O     O_3   0.111203 0.574694 0.899586 -0.760036
O65   O     O_3   0.888797 0.425306 0.100414 -0.760036
O66   O     O_R   0.060730 0.500000 0.337550 -0.623695
O67   O     O_R   0.939270 0.500000 0.662450 -0.623694
O68   O     O_R   0.500000 0.060730 0.337550 -0.623693
Zn1   Zn    Zn3+2 0.413190 0.000000 0.217350 0.978706
Zn2   Zn    Zn3+2 0.086810 0.500000 0.282650 0.978706
Zn3   Zn    Zn3+2 0.500000 0.913190 0.717350 0.978707
Zn4   Zn    Zn3+2 0.500000 0.086810 0.282650 0.978707
Zn5   Zn    Zn3+2 0.086810 0.500000 0.717350 0.978706
Zn6   Zn    Zn3+2 0.913190 0.500000 0.282650 0.978706
Zn7   Zn    Zn3+2 0.500000 0.086810 0.717350 0.978707
Zn8   Zn    Zn3+2 0.500000 0.913190 0.282650 0.978707
Zn9   Zn    Zn3+2 0.586810 0.000000 0.782650 0.978706
Zn10  Zn    Zn3+2 0.000000 0.413190 0.217350 0.978706
Zn11  Zn    Zn3+2 0.000000 0.586810 0.782650 0.978706
Zn12  Zn    Zn3+2 0.586810 0.000000 0.217350 0.978706
Zn13  Zn    Zn3+2 0.413190 0.000000 0.782650 0.978706
Zn14  Zn    Zn3+2 0.000000 0.586810 0.217350 0.978705
Zn15  Zn    Zn3+2 0.000000 0.413190 0.782650 0.978705
Zn16  Zn    Zn3+2 0.913190 0.500000 0.717350 0.978706

loop_
_geom_bond_atom_site_label_1
_geom_bond_atom_site_label_2
_ccdc_geom_bond_type
C7    C63   A    
C58   C62   A    
O33   Zn13  S    
C105  C110  A    
C36   C135  A    
C27   C98   S    
C127  H37   S    
C86   O47   A    
C91   O35   A    
C96   O28   A    
C17   C88   S    
C101  C113  A    
C41   C42   A    
O41   Zn11  S    
C102  C112  A    
C16   C72   A    
O2    Zn3   S    
O38   Zn9   S    
C117  C133  A    
C56   H12   S    
C18   C114  A    
C72   H8    S    
C131  H41   S    
C120  H30   S    
C87   O48   A    
C47   C49   A    
O23   Zn10  S    
C117  H27   S    
O17   Zn5   S    
C12   C68   A    
C118  H28   S    
C70   H7    S    
O10   Zn10  S    
O34   Zn5   S    
C112  H22   S    
H53   O58   S    
C52   C80   S    
O45   Zn8   S    
C120  C130  A    
O35   Zn12  S    
C31   C101  A    
C35   O62   S    
C116  H26   S    
O43   Zn9   S    
C58   H34   S    
C13   O60   S    
C47   C76   S    
C90   O22   A    
C31   C130  A    
C8    C35   A    
C50   C74   S    
O1    Zn12  S    
C7    C71   A    
C32   C133  A    
C1    O49   S    
C43   C52   A    
O25   Zn16  S    
C73   O45   A    
C34   C134  A    
C24   C54   A    
C30   C131  A    
C48   C104  A    
C5    C36   A    
C83   O43   A    
C25   C87   S    
C89   O46   A    
C29   C103  A    
C11   C42   A    
C103  C111  A    
C50   C115  A    
C86   O18   A    
C22   C85   S    
O32   Zn10  S    
C21   C122  A    
C59   H45   S    
C125  H36   S    
C85   O17   A    
C105  H15   S    
O48   Zn13  S    
O27   Zn7   S    
C103  H14   S    
C98   O30   A    
C84   O16   A    
C44   C53   A    
C97   O29   A    
C66   H3    S    
O68   Zn4   S    
C3    C38   A    
C100  H10   S    
C22   C110  A    
C23   C86   S    
H52   O57   S    
C25   C108  A    
C61   H56   S    
C119  C131  A    
C107  C108  A    
C57   C136  A    
C57   C63   A    
O11   Zn13  S    
C8    C39   A    
C87   O19   A    
C68   H5    S    
O20   Zn2   S    
C45   C54   A    
C78   O10   A    
C34   C36   A    
C77   O9    A    
C3    C58   A    
O7    Zn9   S    
C24   O61   S    
O12   Zn9   S    
C45   O65   S    
C2    O59   S    
C57   H23   S    
O13   Zn12  S    
C16   C24   A    
C26   C107  A    
C20   C112  A    
O5    Zn15  S    
C10   C41   A    
C122  C128  A    
C18   C89   S    
C5    C49   A    
C84   O40   A    
O36   Zn15  S    
C2    C14   A    
C113  H24   S    
C99   H9    S    
C85   O41   A    
C46   C75   S    
C21   C111  A    
C11   C67   A    
C48   C60   A    
C13   C53   A    
C10   C66   A    
O3    Zn6   S    
C23   C109  A    
C66   C72   A    
C37   C136  A    
C122  H32   S    
C126  O58   S    
C39   C40   A    
C94   O32   A    
O24   Zn4   S    
O42   Zn1   S    
C6    C60   A    
H60   O64   S    
C100  C114  A    
C15   C41   A    
O23   Zn2   S    
C30   C92   S    
O66   Zn2   S    
C99   C116  A    
C98   O37   A    
O39   Zn1   S    
C93   O54   S    
C133  H43   S    
C114  H25   S    
C74   O2    A    
O12   Zn3   S    
C130  H40   S    
C69   H6    S    
O9    Zn11  S    
C97   O36   A    
C10   C44   A    
C9    C40   A    
H57   O61   S    
C88   O20   A    
C90   O33   A    
C33   C99   A    
C95   O38   A    
C132  H42   S    
C81   O42   A    
C82   C134  A    
C53   C77   S    
C50   C71   A    
C78   O6    A    
C44   O64   S    
C37   C38   A    
O37   Zn14  S    
C73   O68   A    
C77   O5    A    
C79   O11   A    
C60   O51   S    
O12   Zn13  S    
O1    Zn8   S    
C123  C127  A    
C81   O14   A    
C18   C117  A    
C21   C84   S    
O16   Zn6   S    
C28   C105  A    
C29   C128  A    
C65   C68   A    
O29   Zn5   S    
C30   C102  A    
O19   Zn7   S    
C47   C93   A    
C6    C37   A    
O14   Zn4   S    
O46   Zn15  S    
C82   O53   S    
C118  C132  A    
O1    Zn1   S    
H55   O60   S    
C67   H4    S    
C25   C123  A    
O56   Zn7   S    
C62   H62   S    
C123  H33   S    
C2    C52   A    
C17   C118  A    
C8    C64   A    
C49   O50   S    
O30   Zn6   S    
C33   C132  A    
C80   O8    A    
H47   O51   S    
C65   H2    S    
C19   C120  A    
O8    Zn1   S    
O34   Zn16  S    
C64   H64   S    
C35   C51   A    
C48   C73   S    
C14   C69   A    
O40   Zn10  S    
C11   C45   A    
C106  H16   S    
O22   Zn3   S    
H51   O55   S    
C43   O63   S    
C31   C94   S    
C33   C96   S    
C16   C42   A    
C71   O52   S    
C29   C91   S    
C56   C135  A    
C20   C83   S    
C22   C121  A    
O12   Zn7   S    
C28   C129  A    
C15   C70   A    
C119  H29   S    
C101  H11   S    
C75   O3    A    
O34   Zn11  S    
C104  C136  A    
C121  H31   S    
H58   O62   S    
C51   C126  A    
O44   Zn14  S    
H54   O59   S    
O21   Zn16  S    
O6    Zn14  S    
C75   O66   A    
C121  C129  A    
C51   C79   S    
C93   C135  A    
C55   H1    S    
C46   C82   A    
C88   O44   A    
C83   O15   A    
C76   O4    A    
H50   O54   S    
C80   O13   A    
C55   C134  A    
C64   C69   A    
C128  H38   S    
C92   O31   A    
C56   C59   A    
O31   Zn11  S    
C1    C4    A    
O23   Zn14  S    
C12   C39   A    
C13   C15   A    
H46   O50   S    
C9    C43   A    
C3    C115  A    
O26   Zn2   S    
H49   O53   S    
C89   O21   A    
C27   C125  A    
C6    C62   A    
C102  H13   S    
C124  H35   S    
C111  H21   S    
O67   Zn16  S    
O28   Zn8   S    
C79   O7    A    
C55   C61   A    
C4    C59   A    
C115  O57   S    
C96   O39   A    
C7    C38   A    
C63   H63   S    
C95   O27   A    
C27   C106  A    
C104  O55   S    
C26   C127  A    
C4    C34   A    
H61   O65   S    
C109  H19   S    
C9    C65   A    
H44   O49   S    
C110  H20   S    
C92   O25   A    
C94   O26   A    
C26   C97   S    
C14   C40   A    
O23   Zn6   S    
C107  H17   S    
C32   C100  A    
H59   O63   S    
C32   C95   S    
C12   C126  A    
C1    C46   A    
O4    Zn5   S    
O34   Zn15  S    
C76   O67   A    
C108  H18   S    
C19   C113  A    
C129  H39   S    
O47   Zn12  S    
C28   C90   S    
C67   C70   A    
O15   Zn3   S    
C91   O24   A    
C19   C81   S    
C23   C124  A    
O1    Zn4   S    
C20   C119  A    
C74   O56   A    
H48   O52   S    
C5    C61   A    
C17   C116  A    
O18   Zn8   S    
C124  C125  A    
C54   C78   S    
C106  C109  A    
