data_mof_unit_30572.cif
_audit_creation_date              2012-12-11T14:42:13-0500
_audit_creation_method            fapswitch 2.2
_symmetry_space_group_name_H-M    P1
_symmetry_Int_Tables_number       1
_space_group_crystal_system       triclinic
_cell_length_a                    18.936481
_cell_length_b                    10.965901
_cell_length_c                    18.829275
_cell_angle_alpha                 90.058919
_cell_angle_beta                  90.317224
_cell_angle_gamma                 89.949535
_cell_volume                      3909.94045169

loop_
_atom_site_label
_atom_site_type_symbol
_atom_type_description
_atom_site_fract_x
_atom_site_fract_y
_atom_site_fract_z
_atom_type_partial_charge
C1    C     C_R   0.725279 0.959961 0.855718 0.548902
C2    C     C_R   0.237103 0.435066 0.930934 -0.062775
C3    C     C_3   0.584419 0.795771 0.074673 -0.101850
C4    C     C_R   0.248832 0.898275 0.080423 -0.064565
C5    C     C_R   0.737104 0.935062 0.930933 -0.062779
C6    C     C_R   0.794694 0.316910 0.047353 -0.118479
C7    C     C_R   0.177688 0.412581 0.972937 -0.144744
C8    C     C_R   0.294684 0.816891 0.047359 -0.118484
C9    C     C_R   0.677690 0.912568 0.972935 -0.144758
C10   C     C_R   0.787965 0.291462 0.975690 0.224482
C11   C     C_R   0.182936 0.408152 0.046458 0.224385
C12   C     C_R   0.287956 0.791448 0.975695 0.224413
C13   C     C_R   0.271962 0.953208 0.147364 0.550836
C14   C     C_R   0.682937 0.908141 0.046455 0.224367
C15   C     C_R   0.729133 0.337223 0.937266 0.036782
C16   C     C_R   0.249524 0.422953 0.078471 0.056659
C17   C     C_R   0.229131 0.837224 0.937268 0.036562
C18   C     C_R   0.749524 0.922949 0.078470 0.056670
C19   C     C_R   0.466482 0.266216 0.546448 -0.137868
C20   C     C_R   0.460328 0.271423 0.474061 -0.126647
C21   C     C_R   0.965096 0.764898 0.546793 -0.134317
C22   C     C_R   0.958383 0.770112 0.474405 -0.122964
C23   C     C_R   0.480569 0.171117 0.432323 0.038104
C24   C     C_R   0.225278 0.459963 0.855718 0.549349
C25   C     C_R   0.495628 0.162566 0.577538 0.031970
C26   C     C_R   0.980039 0.670987 0.432426 0.038922
C27   C     C_R   0.995652 0.662165 0.577546 0.032066
C28   C     C_R   0.502269 0.062267 0.463895 -0.137314
C29   C     C_R   0.509836 0.057806 0.536858 -0.130244
C30   C     C_R   0.003247 0.562847 0.463683 -0.147621
C31   C     C_R   0.010961 0.558161 0.536601 -0.137535
C32   C     C_R   0.815481 0.395164 0.543960 -0.137287
C33   C     C_R   0.205368 0.321135 0.469745 -0.129145
C34   C     C_R   0.300757 0.834635 0.532690 -0.129281
C35   C     C_R   0.771963 0.453209 0.147363 0.552896
C36   C     C_R   0.711814 0.809473 0.471878 -0.127104
C37   C     C_R   0.821589 0.405374 0.471459 -0.126970
C38   C     C_R   0.203571 0.332038 0.542377 -0.137266
C39   C     C_R   0.302718 0.843053 0.460077 -0.130897
C40   C     C_R   0.709404 0.823487 0.544471 -0.136538
C41   C     C_R   0.529801 0.177850 0.850639 0.557447
C42   C     C_R   0.469782 0.177308 0.148932 0.554001
C43   C     C_R   0.029799 0.677850 0.850638 0.556885
C44   C     C_R   0.969782 0.677308 0.148932 0.554215
C45   C     C_R   0.762580 0.436131 0.429466 0.033823
C46   C     C_R   0.687830 0.437377 0.044815 -0.148695
C47   C     C_R   0.247375 0.416303 0.576565 0.031549
C48   C     C_R   0.254181 0.917168 0.424087 0.033035
C49   C     C_R   0.748451 0.916111 0.576983 0.027585
C50   C     C_R   0.697829 0.461716 0.461587 -0.146386
C51   C     C_R   0.297469 0.482423 0.537461 -0.139574
C52   C     C_R   0.199710 0.975011 0.461656 -0.133260
C53   C     C_R   0.794615 0.988362 0.536564 -0.139719
C54   C     C_R   0.691302 0.449036 0.534733 -0.137208
C55   C     C_R   0.300692 0.468733 0.464068 -0.146451
C56   C     C_R   0.195963 0.962367 0.535131 -0.134156
C57   C     C_R   0.301832 0.461084 0.963252 -0.114198
C58   C     C_R   0.797976 0.972718 0.463381 -0.148834
C59   C     C_R   0.749797 0.411742 0.575775 0.029157
C60   C     C_R   0.253539 0.389627 0.429788 0.037134
C61   C     C_R   0.247327 0.893413 0.571057 0.034418
C62   C     C_R   0.754918 0.885510 0.430593 0.033818
C63   C     C_R   0.724243 0.312785 0.860274 0.599862
C64   C     C_R   0.260916 0.367576 0.148404 0.583299
C65   C     C_R   0.224243 0.812786 0.860275 0.600181
C66   C     C_R   0.760916 0.867575 0.148404 0.583950
C67   C     C_R   0.728311 0.954994 0.647692 0.549251
C68   C     C_R   0.187831 0.937387 0.044816 -0.148540
C69   C     C_R   0.271998 0.955077 0.352521 0.548668
C70   C     C_R   0.228212 0.454944 0.647633 0.549560
C71   C     C_R   0.774212 0.460066 0.354657 0.548529
C72   C     C_R   0.528301 0.175336 0.645991 0.547710
C73   C     C_R   0.466215 0.176963 0.357605 0.550435
C74   C     C_R   0.028320 0.675291 0.645979 0.547785
C75   C     C_R   0.966028 0.676970 0.357679 0.549286
C76   C     C_R   0.739370 0.363150 0.646569 0.551019
C77   C     C_R   0.261510 0.358299 0.355318 0.548091
C78   C     C_R   0.238704 0.859311 0.645028 0.552001
C79   C     C_R   0.801832 0.961088 0.963251 -0.114274
C80   C     C_R   0.761904 0.856862 0.355744 0.547649
C81   C     C_2   0.496897 0.170653 0.920377 -0.101588
C82   C     C_2   0.501345 0.166289 0.078397 -0.084401
C83   C     C_2   0.996894 0.670654 0.920376 -0.101759
C84   C     C_2   0.001344 0.666288 0.078396 -0.084616
C85   C     C_2   0.484622 0.071046 0.036295 -0.127775
C86   C     C_2   0.500707 0.069419 0.960008 -0.170855
C87   C     C_2   0.984616 0.571048 0.036293 -0.127826
C88   C     C_2   0.000701 0.569420 0.960006 -0.170877
C89   C     C_R   0.676829 0.405914 0.973020 0.216071
C90   C     C_R   0.748836 0.398281 0.080419 -0.064895
C91   C     C_R   0.308321 0.459691 0.037824 0.234667
C92   C     C_R   0.176832 0.905934 0.973019 0.216047
C93   C     C_R   0.808321 0.959691 0.037823 0.234595
C94   C     C_3   0.599071 0.559942 0.942796 -0.117571
C95   C     C_3   0.431053 0.472500 0.039973 -0.091055
C96   C     C_3   0.099077 0.059995 0.942828 -0.117578
C97   C     C_3   0.931052 0.972504 0.039973 -0.090994
C98   C     C_3   0.903015 0.279553 0.939952 -0.112189
C99   C     C_3   0.084416 0.295791 0.074678 -0.101843
C100  C     C_3   0.403011 0.779526 0.939972 -0.112003
Cr1   Cr    Cr6+3 0.769270 0.163730 0.750710 1.026328
Cr2   Cr    Cr6+3 0.385840 0.322500 0.252290 1.041358
Cr3   Cr    Cr6+3 0.114160 0.822500 0.747710 1.037542
Cr4   Cr    Cr6+3 0.885840 0.822500 0.252290 1.042512
Cr5   Cr    Cr6+3 0.230730 0.163730 0.249290 1.018319
Cr6   Cr    Cr6+3 0.269270 0.663730 0.750710 1.026052
Cr7   Cr    Cr6+3 0.730730 0.663730 0.249290 1.018402
Cr8   Cr    Cr6+3 0.612620 0.009790 0.748780 1.000634
Cr9   Cr    Cr6+3 0.387380 0.009790 0.251220 1.025820
Cr10  Cr    Cr6+3 0.112620 0.509790 0.748780 0.998320
Cr11  Cr    Cr6+3 0.887380 0.509790 0.251220 1.023469
Cr12  Cr    Cr6+3 0.614160 0.322500 0.747710 1.035044
H1    H     H_    0.457325 0.992202 0.057628 0.148320
H2    H     H_    0.331763 0.548330 0.562994 0.120893
H3    H     H_    0.161713 0.032757 0.434719 0.120801
H4    H     H_    0.825062 0.061121 0.560739 0.134650
H5    H     H_    0.639838 0.462016 0.558417 0.134255
H6    H     H_    0.339502 0.519749 0.434295 0.113483
H7    H     H_    0.153131 0.005576 0.563595 0.121842
H8    H     H_    0.833212 0.029255 0.432498 0.121146
H9    H     H_    0.530158 0.243740 0.057323 0.110573
H10   H     H_    0.478285 0.255121 0.943255 0.107987
H11   H     H_    0.030159 0.743736 0.057322 0.110534
H12   H     H_    0.515421 0.983098 0.936222 0.127893
H13   H     H_    0.978283 0.755123 0.943253 0.108012
H14   H     H_    0.649805 0.493497 0.072404 0.122194
H15   H     H_    0.345707 0.487206 0.930123 0.162710
H16   H     H_    0.149812 0.993522 0.072403 0.122215
H17   H     H_    0.845705 0.987216 0.930123 0.162694
H18   H     H_    0.839422 0.278896 0.075813 0.177289
H19   H     H_    0.126203 0.404141 0.948715 0.141823
H20   H     H_    0.339407 0.778868 0.075822 0.177132
H21   H     H_    0.626205 0.904120 0.948712 0.141815
H22   H     H_    0.453849 0.346641 0.577433 0.126656
H23   H     H_    0.957315 0.492208 0.057626 0.148283
H24   H     H_    0.439652 0.354588 0.450970 0.138373
H25   H     H_    0.951615 0.844603 0.578038 0.127632
H26   H     H_    0.936344 0.852382 0.451458 0.140294
H27   H     H_    0.514922 0.982678 0.432257 0.124892
H28   H     H_    0.531923 0.976092 0.560484 0.137681
H29   H     H_    0.016949 0.484042 0.431826 0.121226
H30   H     H_    0.034098 0.477087 0.559964 0.136260
H31   H     H_    0.861437 0.367674 0.574569 0.127881
H32   H     H_    0.169518 0.256574 0.445240 0.129243
H33   H     H_    0.340390 0.778347 0.558319 0.128232
H34   H     H_    0.015414 0.483098 0.936221 0.127889
H35   H     H_    0.680229 0.737585 0.448308 0.136739
H36   H     H_    0.564165 0.585202 0.897650 0.137196
H37   H     H_    0.647209 0.618117 0.939441 0.116113
H38   H     H_    0.569533 0.578949 0.992142 0.071754
H39   H     H_    0.430453 0.375595 0.023457 0.104277
H40   H     H_    0.474970 0.484075 0.078608 0.144269
H41   H     H_    0.441951 0.533586 0.994438 0.121020
H42   H     H_    0.064202 0.085313 0.897666 0.137109
H43   H     H_    0.147219 0.118183 0.939537 0.116210
H44   H     H_    0.069503 0.078929 0.992165 0.071771
H45   H     H_    0.873242 0.390385 0.448582 0.138110
H46   H     H_    0.930456 0.875596 0.023465 0.104149
H47   H     H_    0.974970 0.984096 0.078605 0.144335
H48   H     H_    0.941944 0.033581 0.994432 0.121012
H49   H     H_    0.938616 0.227784 0.904324 0.119856
H50   H     H_    0.928999 0.283978 0.992878 0.089664
H51   H     H_    0.896840 0.372746 0.917239 0.130642
H52   H     H_    0.118989 0.213784 0.075948 0.120407
H53   H     H_    0.055412 0.302033 0.023479 0.068171
H54   H     H_    0.044393 0.284479 0.116946 0.144338
H55   H     H_    0.428996 0.783896 0.992898 0.089572
H56   H     H_    0.164783 0.279319 0.571232 0.125054
H57   H     H_    0.396846 0.872741 0.917288 0.130945
H58   H     H_    0.438607 0.727781 0.904329 0.120008
H59   H     H_    0.618995 0.713768 0.075941 0.120345
H60   H     H_    0.555414 0.802015 0.023474 0.068158
H61   H     H_    0.544397 0.784453 0.116941 0.144199
H62   H     H_    0.345159 0.796596 0.432701 0.130409
H63   H     H_    0.673971 0.766081 0.574633 0.127923
H64   H     H_    0.652499 0.489647 0.430238 0.120120
O1    O     O_R   0.784320 0.290430 0.830510 -0.485939
O2    O     O_R   0.456080 0.282180 0.333210 -0.530054
O3    O     O_R   0.043920 0.782180 0.666790 -0.524235
O4    O     O_R   0.956080 0.782180 0.333210 -0.527975
O5    O     O_R   0.679040 0.374160 0.674430 -0.505100
O6    O     O_R   0.320960 0.374160 0.325570 -0.509448
O7    O     O_R   0.179040 0.874160 0.674430 -0.501578
O8    O     O_R   0.820960 0.874160 0.325570 -0.509390
O9    O     O_3   0.665350 0.165340 0.749070 -0.272519
O10   O     O_3   0.334650 0.165340 0.250930 -0.258414
O11   O     O_3   0.165350 0.665340 0.749070 -0.273265
O12   O     O_R   0.215680 0.290430 0.169490 -0.495923
O13   O     O_3   0.834650 0.665340 0.250930 -0.260900
O14   O     O_R   0.762640 0.040960 0.825200 -0.492726
O15   O     O_R   0.237360 0.040960 0.174800 -0.507200
O16   O     O_R   0.262640 0.540960 0.825200 -0.492630
O17   O     O_R   0.737360 0.540960 0.174800 -0.506336
O18   O     O_R   0.667400 0.923970 0.829950 -0.531151
O19   O     O_R   0.332600 0.923970 0.170050 -0.525788
O20   O     O_R   0.167400 0.423970 0.829950 -0.530871
O21   O     O_R   0.832600 0.423970 0.170050 -0.524076
O22   O     O_R   0.553960 0.081340 0.821780 -0.511072
O23   O     O_R   0.284320 0.790430 0.830510 -0.484520
O24   O     O_R   0.446040 0.081340 0.178220 -0.489805
O25   O     O_R   0.053960 0.581340 0.821780 -0.511375
O26   O     O_R   0.946040 0.581340 0.178220 -0.489317
O27   O     O_R   0.543180 0.283240 0.826740 -0.485974
O28   O     O_R   0.456820 0.283240 0.173260 -0.511009
O29   O     O_R   0.043180 0.783240 0.826740 -0.486344
O30   O     O_R   0.956820 0.783240 0.173260 -0.510692
O31   O     O_R   0.678360 0.375140 0.822710 -0.462896
O32   O     O_R   0.321640 0.375140 0.177290 -0.457699
O33   O     O_R   0.178360 0.875140 0.822710 -0.462230
O34   O     O_R   0.715680 0.790430 0.169490 -0.495769
O35   O     O_R   0.821640 0.875140 0.177290 -0.457072
O36   O     O_R   0.785050 0.289380 0.670560 -0.526881
O37   O     O_R   0.214950 0.289380 0.329440 -0.526052
O38   O     O_R   0.285050 0.789380 0.670560 -0.529654
O39   O     O_R   0.714950 0.789380 0.329440 -0.525005
O40   O     O_R   0.763320 0.039990 0.676930 -0.507593
O41   O     O_R   0.236680 0.039990 0.323070 -0.508364
O42   O     O_R   0.263320 0.539990 0.676930 -0.508673
O43   O     O_R   0.736680 0.539990 0.323070 -0.508234
O44   O     O_R   0.668130 0.922920 0.670000 -0.521670
O45   O     O_R   0.554640 0.080370 0.673500 -0.506447
O46   O     O_R   0.331870 0.922920 0.330000 -0.522603
O47   O     O_R   0.168130 0.422920 0.670000 -0.523356
O48   O     O_R   0.831870 0.422920 0.330000 -0.524685
O49   O     O_3   0.614144 0.434242 0.938121 -0.543759
O50   O     O_3   0.367478 0.505159 0.073392 -0.543119
O51   O     O_3   0.114157 0.934301 0.938109 -0.543822
O52   O     O_3   0.867477 0.005160 0.073391 -0.542847
O53   O     O_3   0.837829 0.217460 0.943629 -0.544222
O54   O     O_3   0.122989 0.403199 0.088606 -0.538762
O55   O     O_3   0.337820 0.717446 0.943632 -0.544349
O56   O     O_R   0.445360 0.080370 0.326500 -0.500805
O57   O     O_3   0.622990 0.903182 0.088602 -0.538619
O58   O     O_R   0.054640 0.580370 0.673500 -0.508168
O59   O     O_R   0.945360 0.580370 0.326500 -0.506277
O60   O     O_R   0.543920 0.282180 0.666790 -0.527751

loop_
_geom_bond_atom_site_label_1
_geom_bond_atom_site_label_2
_ccdc_geom_bond_type
C58   C62   A    
C87   C88   S    
C2    C24   S    
C37   C45   A    
C45   C71   S    
C43   C83   S    
Cr5   O15   S    
C42   O28   A    
C2    C7    A    
C42   C82   S    
C84   C87   D    
Cr6   O16   S    
C48   C69   S    
C4    C8    A    
C78   O38   A    
C98   H51   S    
C2    C57   A    
C77   O37   A    
C46   C89   A    
Cr4   O4    S    
C85   C86   S    
C19   H22   S    
C7    C11   A    
C17   C92   A    
Cr2   O10   S    
C30   H29   S    
C100  H55   S    
C69   O41   A    
C97   H47   S    
Cr5   O12   S    
C62   C80   S    
C67   O44   A    
C23   C73   S    
Cr6   O11   S    
C69   O46   A    
C10   C15   A    
C30   C31   A    
C34   H33   S    
Cr1   O9    S    
C3    H60   S    
C96   H43   S    
C43   O29   A    
C24   O20   A    
Cr1   O40   S    
C40   C49   A    
C79   H17   S    
C8    H20   S    
C71   O43   A    
C51   C55   A    
C14   O57   S    
C50   H64   S    
C78   O7    A    
C26   C75   S    
C37   H45   S    
C4    C13   S    
Cr2   O28   S    
C32   H31   S    
C94   O49   S    
C65   O23   A    
C3    H61   S    
C96   H42   S    
C74   O3    A    
C19   C20   A    
C92   O51   S    
C12   C17   A    
C43   O25   A    
Cr11  O59   S    
C75   O59   A    
Cr9   O56   S    
Cr4   O30   S    
C66   O34   A    
C27   C74   S    
C57   C91   A    
C68   H16   S    
C82   H9    S    
C65   O33   A    
C81   C86   D    
C53   H4    S    
C6    H18   S    
Cr12  O27   S    
C99   H54   S    
C1    O14   A    
C76   O36   A    
C83   C88   D    
C21   C27   A    
C33   H32   S    
C63   O31   A    
C55   C60   A    
C44   O26   A    
Cr3   O33   S    
C67   O40   A    
C28   H27   S    
C83   H13   S    
C39   H62   S    
C36   C62   A    
Cr10  O47   S    
Cr11  O26   S    
C58   H8    S    
C98   H50   S    
C77   O6    A    
C80   O39   A    
C54   C59   A    
Cr1   O36   S    
C25   C29   A    
Cr10  O11   S    
C60   C77   S    
C51   H2    S    
Cr5   O37   S    
C10   O53   S    
C27   C31   A    
C34   C39   A    
Cr2   O6    S    
C96   O51   S    
C87   H23   S    
Cr8   O9    S    
C36   C40   A    
Cr3   O11   S    
Cr1   O14   S    
Cr12  O9    S    
Cr7   O34   S    
C47   C51   A    
C94   H36   S    
C6    C90   A    
C100  H58   S    
C34   C61   A    
C21   H25   S    
C72   O60   A    
C84   H11   S    
Cr5   O10   S    
C38   H56   S    
C9    C14   A    
C97   H48   S    
C47   C70   S    
C5    C9    A    
C99   O54   S    
C15   C89   A    
C98   O53   S    
C64   O32   A    
C11   C16   A    
C36   H35   S    
C20   C23   A    
C61   C78   S    
C8    C12   A    
C41   C81   S    
Cr7   O13   S    
C44   O30   A    
C70   O47   A    
Cr7   O39   S    
C24   O16   A    
C25   C72   S    
C70   O42   A    
C32   C37   A    
C20   H24   S    
C75   O4    A    
C38   C47   A    
C64   O12   A    
C72   O45   A    
Cr7   O43   S    
C73   O2    A    
Cr4   O8    S    
C26   C30   A    
C33   C60   A    
Cr5   O41   S    
Cr10  O25   S    
C91   O50   S    
C86   H12   S    
Cr2   O2    S    
C56   H7    S    
Cr3   O7    S    
C74   O58   A    
C23   C28   A    
Cr8   O18   S    
C76   O5    A    
C1    C5    S    
C98   H49   S    
C35   O21   A    
C12   O55   S    
C4    C68   A    
C52   H3    S    
C29   H28   S    
C28   C29   A    
C15   C63   S    
C71   O48   A    
C49   C67   S    
Cr7   O17   S    
Cr6   O42   S    
C100  H57   S    
C7    H19   S    
C14   C18   A    
C46   H14   S    
C100  O55   S    
Cr3   O29   S    
Cr12  O31   S    
C89   O49   S    
C41   O22   A    
C44   C84   S    
C63   O1    A    
C57   H15   S    
C40   H63   S    
C53   C58   A    
Cr11  O13   S    
Cr12  O5    S    
C46   C90   A    
Cr9   O10   S    
C18   C66   S    
C82   C85   D    
C22   H26   S    
C17   C65   S    
C33   C38   A    
C13   O15   A    
C81   H10   S    
C97   H46   S    
C31   H30   S    
C42   O24   A    
C1    O18   A    
C95   O50   S    
C50   C54   A    
Cr12  O60   S    
Cr11  O21   S    
Cr6   O38   S    
Cr10  O20   S    
Cr8   O45   S    
C93   O52   S    
C3    H59   S    
C96   H44   S    
C45   C50   A    
C49   C53   A    
Cr4   O13   S    
C32   C59   A    
C85   H1    S    
C11   O54   S    
C68   C92   A    
C41   O27   A    
Cr9   O19   S    
Cr3   O3    S    
Cr11  O48   S    
C80   O8    A    
Cr8   O22   S    
C19   C25   A    
Cr1   O1    S    
C6    C10   A    
C35   O17   A    
C22   C26   A    
C99   H52   S    
Cr8   O44   S    
C35   C90   S    
C52   C56   A    
C94   H38   S    
C48   C52   A    
C97   O52   S    
C95   H39   S    
C16   C91   A    
C5    C79   A    
C13   O19   A    
C54   H5    S    
C79   C93   A    
C18   C93   A    
C88   H34   S    
C56   C61   A    
Cr6   O23   S    
Cr9   O24   S    
C94   H37   S    
C95   H40   S    
C16   C64   S    
Cr4   O35   S    
C95   H41   S    
C66   O35   A    
C21   C22   A    
Cr2   O32   S    
C59   C76   S    
C73   O56   A    
C3    O57   S    
Cr9   O46   S    
Cr10  O58   S    
C39   C48   A    
C99   H53   S    
C55   H6    S    
C9    H21   S    
