data_mof_unit_49976.cif
_audit_creation_date              2012-12-10T19:02:44-0500
_audit_creation_method            fapswitch 2.2
_symmetry_space_group_name_H-M    P1
_symmetry_Int_Tables_number       1
_space_group_crystal_system       triclinic
_cell_length_a                    9.64502
_cell_length_b                    10.834289
_cell_length_c                    13.854992
_cell_angle_alpha                 89.237918
_cell_angle_beta                  84.722741
_cell_angle_gamma                 89.867849
_cell_volume                      1441.53897689

loop_
_atom_site_label
_atom_site_type_symbol
_atom_type_description
_atom_site_fract_x
_atom_site_fract_y
_atom_site_fract_z
_atom_type_partial_charge
C1    C     C_R   0.499956 0.737432 0.499197 0.812099
C2    C     C_1   0.465493 0.491213 0.785925 -0.153571
C3    C     C_R   0.380051 0.938254 0.486175 -0.012240
C4    C     C_R   0.498916 0.870922 0.503828 -0.038873
C5    C     C_R   0.614750 0.935066 0.532712 -0.239236
C6    C     C_R   0.614498 0.063869 0.535488 -0.214437
C7    C     C_R   0.498987 0.130139 0.507893 -0.085278
C8    C     C_R   0.382015 0.064980 0.486290 -0.083280
C9    C     C_3   0.285962 0.074950 0.406999 0.234654
C10   C     C_3   0.281924 0.932824 0.408114 0.217324
C11   C     C_R   0.937866 0.471143 0.418353 0.095259
C12   C     C_R   0.477463 0.498817 0.682735 0.795905
C13   C     C_R   0.915759 0.524065 0.581492 0.446884
C14   C     C_R   0.061390 0.508984 0.583946 0.440079
C15   C     C_R   0.084217 0.469524 0.418676 0.133834
C16   C     C_3   0.106675 0.529164 0.321286 -0.453312
C17   C     C_3   0.948662 0.536698 0.321456 -0.125115
C18   C     C_R   0.499862 0.263064 0.502539 0.781292
C19   C     C_R   0.522676 0.501213 0.317267 0.847464
C20   C     C_1   0.535466 0.510498 0.214176 -0.196839
C21   C     C_2   0.546758 0.537553 0.023907 0.481387
C22   C     C_2   0.457537 0.472873 0.976111 -0.264331
C23   C     C_1   0.459770 0.482828 0.872660 0.072355
C24   C     C_1   0.542542 0.521785 0.127575 -0.149568
Cu1   Cu    Cu3+1 0.359330 0.500020 0.500000 0.974105
Cu2   Cu    Cu3+1 0.640670 0.499980 0.500000 0.941217
H1    H     H_    0.381059 0.412348 0.014807 0.114443
H2    H     H_    0.161294 0.618799 0.324014 0.214285
H3    H     H_    0.154926 0.464664 0.266156 0.190344
H4    H     H_    0.907183 0.478786 0.264953 0.172457
H5    H     H_    0.706821 0.886729 0.550703 0.138912
H6    H     H_    0.706089 0.111116 0.555809 0.158684
H7    H     H_    0.183943 0.114669 0.434929 0.067999
H8    H     H_    0.180034 0.892229 0.436989 0.029209
N1    N     N_R   0.852140 0.499070 0.499400 -0.270552
N2    N     N_R   0.148050 0.499110 0.499400 -0.258375
O1    O     O_R   0.381190 0.680360 0.500000 -0.560369
O2    O     O_R   0.618770 0.680320 0.499990 -0.621596
O3    O     O_R   0.364410 0.500000 0.637850 -0.542793
O4    O     O_R   0.602000 0.499960 0.637840 -0.522146
O5    O     O_R   0.381230 0.319680 0.500010 -0.573180
O6    O     O_R   0.618810 0.319640 0.500000 -0.589843
O7    O     O_R   0.398000 0.500040 0.362160 -0.560125
O8    O     O_R   0.635590 0.500000 0.362150 -0.593844
O9    O     O_3   0.112862 0.508329 0.673519 -0.549404
C25   C     C_3   0.107107 0.386344 0.712646 0.101608
H9    H     H_    0.194902 0.375090 0.758483 0.163601
H10   H     H_    0.121122 0.313146 0.656528 0.106901
C26   C     C_3   0.973247 0.364132 0.778261 -0.793195
H11   H     H_    0.883893 0.351385 0.734402 0.252250
H12   H     H_    0.984047 0.278798 0.822224 0.189982
H13   H     H_    0.952322 0.442976 0.827944 0.284786
C27   C     C_3   0.894015 0.670833 0.323433 -0.329984
C28   C     C_3   0.894175 0.724337 0.220464 -0.377392
C29   C     C_3   0.839712 0.856812 0.221776 -0.883752
H14   H     H_    0.730298 0.859671 0.254776 0.264201
H15   H     H_    0.905093 0.916482 0.263777 0.245318
H16   H     H_    0.842919 0.893694 0.146472 0.248934
H17   H     H_    0.001117 0.722280 0.183345 0.227234
H18   H     H_    0.826678 0.666949 0.178194 0.235456
H19   H     H_    0.786279 0.673854 0.357200 0.256310
H20   H     H_    0.956269 0.729684 0.368408 0.168856
O10   O     O_3   0.647197 0.611576 0.973753 -0.555841
C30   C     C_3   0.627342 0.734953 0.003630 0.067156
H21   H     H_    0.641436 0.744784 0.081959 0.156974
H22   H     H_    0.521664 0.767848 0.989039 0.143228
C31   C     C_3   0.733646 0.817254 0.946616 -0.810709
H23   H     H_    0.718182 0.814187 0.868307 0.252158
H24   H     H_    0.720446 0.913963 0.971441 0.198976
H25   H     H_    0.840708 0.785901 0.957989 0.250935
O11   O     O_3   0.335113 0.132457 0.316628 -0.571712
C32   C     C_3   0.479840 0.121984 0.288704 0.174533
H26   H     H_    0.525880 0.033492 0.311573 0.182536
H27   H     H_    0.535821 0.199562 0.318949 0.125453
C33   C     C_3   0.504719 0.133332 0.178925 -0.829472
H28   H     H_    0.466733 0.224248 0.154194 0.247727
H29   H     H_    0.617840 0.125582 0.156218 0.200729
H30   H     H_    0.449008 0.059070 0.144095 0.250201
O12   O     O_3   0.344460 0.876681 0.323482 -0.563385
C34   C     C_3   0.247167 0.871812 0.253524 0.105556
H31   H     H_    0.222167 0.965876 0.227245 0.189476
H32   H     H_    0.149190 0.826813 0.283299 0.126586
C35   C     C_3   0.308651 0.797880 0.167587 -0.855247
H33   H     H_    0.325492 0.700859 0.190194 0.252864
H34   H     H_    0.236838 0.799337 0.109390 0.202756
H35   H     H_    0.409632 0.838714 0.139075 0.238725
O13   O     O_3   0.840291 0.568622 0.662961 -0.538254
C36   C     C_3   0.840945 0.699316 0.659499 0.140570
H36   H     H_    0.736261 0.731579 0.688832 0.162538
H37   H     H_    0.860568 0.739177 0.584783 0.091304
C37   C     C_3   0.947973 0.750783 0.722737 -0.829635
H38   H     H_    0.054569 0.741102 0.686077 0.256692
H39   H     H_    0.927736 0.850501 0.735245 0.190003
H40   H     H_    0.941692 0.701212 0.793659 0.283580

loop_
_geom_bond_atom_site_label_1
_geom_bond_atom_site_label_2
_ccdc_geom_bond_type
C16   H2    S    
C6    H6    S    
C29   H14   S    
C19   C20   S    
O13   C36   S    
C2    C12   S    
Cu1   O7    S    
Cu2   O8    S    
C7    C8    A    
C28   H18   S    
C27   C28   S    
C25   C26   S    
C13   N1    A    
C18   O6    A    
C14   N2    A    
C5    C6    A    
C15   C16   S    
Cu1   O1    S    
C25   H9    S    
C11   C15   A    
C20   C24   T    
C8    C9    S    
C26   H12   S    
Cu2   O4    S    
C9    C10   S    
C1    O1    A    
C26   H13   S    
C13   C14   A    
C9    H7    S    
C17   H4    S    
C27   H19   S    
C34   C35   S    
C19   O7    A    
C14   O9    S    
C28   H17   S    
C25   H10   S    
C31   H23   S    
C30   C31   S    
C32   H27   S    
C3    C8    A    
C18   O5    A    
Cu1   O5    S    
C37   H38   S    
C32   H26   S    
C16   H3    S    
O9    C25   S    
O12   C34   S    
C31   H24   S    
C30   H22   S    
C12   O4    A    
C33   H28   S    
C37   H39   S    
C27   H20   S    
C35   H33   S    
C36   C37   S    
C7    C18   S    
C13   O13   S    
C10   H8    S    
C33   H29   S    
C1    O2    A    
C34   H32   S    
C35   H34   S    
C36   H37   S    
C22   H1    S    
C29   H15   S    
C29   H16   S    
C3    C4    A    
C17   C27   S    
C15   N2    A    
C19   O8    A    
Cu2   O6    S    
C28   C29   S    
C11   C17   S    
Cu2   O2    S    
C9    O11   S    
C34   H31   S    
C10   O12   S    
C6    C7    A    
C1    C4    S    
C30   H21   S    
C31   H25   S    
C12   O3    A    
C11   N1    A    
Cu1   Cu2   S    
O11   C32   S    
C3    C10   S    
Cu1   O3    S    
C37   H40   S    
C32   C33   S    
C16   C17   S    
C33   H30   S    
C21   O10   S    
Cu1   N2    S    
O10   C30   S    
Cu2   N1    S    
C4    C5    A    
C35   H35   S    
C36   H36   S    
C26   H11   S    
C21   C24   S    
C2    C23   T    
C22   C23   S    
C21   C22   D    
C5    H5    S    
