data_mof_unit_8176.cif
_audit_creation_date              2012-12-10T17:21:17-0500
_audit_creation_method            fapswitch 2.2
_symmetry_space_group_name_H-M    P1
_symmetry_Int_Tables_number       1
_space_group_crystal_system       triclinic
_cell_length_a                    9.588491
_cell_length_b                    10.839337
_cell_length_c                    13.863707
_cell_angle_alpha                 92.422751
_cell_angle_beta                  84.999975
_cell_angle_gamma                 90.925404
_cell_volume                      1434.01639502

loop_
_atom_site_label
_atom_site_type_symbol
_atom_type_description
_atom_site_fract_x
_atom_site_fract_y
_atom_site_fract_z
_atom_type_partial_charge
C1    C     C_R   0.501537 0.736933 0.492205 0.849837
C2    C     C_1   0.464356 0.498028 0.786086 -0.178748
C3    C     C_R   0.265362 0.877968 0.421786 0.385793
C4    C     C_R   0.129950 0.926347 0.442789 0.418246
C5    C     C_R   0.114308 0.038105 0.495484 -0.280544
C6    C     C_R   0.231122 0.105995 0.520702 -0.235277
C7    C     C_R   0.367533 0.058601 0.500221 -0.015875
C8    C     C_R   0.379843 0.934718 0.466882 -0.076358
C9    C     C_R   0.502602 0.871033 0.484321 -0.171878
C10   C     C_R   0.619498 0.936737 0.513102 -0.330494
C11   C     C_R   0.616077 0.064138 0.527568 0.466130
C12   C     C_R   0.477491 0.500088 0.682906 0.801274
C13   C     C_R   0.491905 0.127514 0.515259 -0.185045
C14   C     C_R   0.869183 0.333435 0.373004 -0.205109
C15   C     C_R   0.947036 0.247605 0.312997 0.455903
C16   C     C_R   0.090798 0.247830 0.315045 -0.272211
C17   C     C_R   0.156898 0.333208 0.373684 -0.226595
C18   C     C_R   0.081211 0.418293 0.437589 0.200358
C19   C     C_R   0.931784 0.418430 0.437386 0.154710
C20   C     C_R   0.920106 0.578434 0.558728 -0.033818
C21   C     C_R   0.068058 0.578436 0.558675 -0.010406
C22   C     C_R   0.497427 0.262521 0.507368 0.782784
C23   C     C_R   0.522722 0.499788 0.317129 0.802493
C24   C     C_1   0.537153 0.499889 0.213988 -0.184726
C25   C     C_2   0.560035 0.498769 0.023340 -0.172569
C26   C     C_2   0.444234 0.493476 0.976558 -0.162935
C27   C     C_1   0.454212 0.495872 0.872937 -0.005619
C28   C     C_1   0.549127 0.499563 0.127067 -0.021575
Cu1   Cu    Cu3+1 0.359340 0.500010 0.500010 0.952548
Cu2   Cu    Cu3+1 0.640660 0.499990 0.499990 0.930056
H1    H     H_    0.267563 0.326516 0.366805 0.222636
H2    H     H_    0.118452 0.642765 0.606757 0.129363
H3    H     H_    0.714089 0.889334 0.526648 0.198243
H4    H     H_    0.010859 0.074551 0.514300 0.210573
H5    H     H_    0.211136 0.190895 0.562747 0.198673
N1    N     N_R   0.852210 0.498790 0.499090 -0.192036
N2    N     N_R   0.148080 0.498710 0.499060 -0.186521
O1    O     O_R   0.381190 0.680360 0.500010 -0.534148
O2    O     O_R   0.618760 0.680340 0.500000 -0.598656
O3    O     O_R   0.364420 0.499990 0.637850 -0.580875
O4    O     O_R   0.601990 0.499960 0.637840 -0.585661
O5    O     O_R   0.381240 0.319660 0.500000 -0.615923
O6    O     O_R   0.618810 0.319640 0.499990 -0.552337
O7    O     O_R   0.398010 0.500040 0.362160 -0.563578
O8    O     O_R   0.635580 0.500010 0.362150 -0.606862
H6    H     H_    0.341296 0.488949 0.015919 0.156392
H7    H     H_    0.760410 0.328432 0.367322 0.202399
O9    O     O_3   0.885329 0.151973 0.261150 -0.619416
C29   C     C_3   0.782854 0.193112 0.202481 0.043507
H8    H     H_    0.811581 0.156101 0.127540 0.170948
H9    H     H_    0.778222 0.295436 0.197596 0.119754
C30   C     C_3   0.638533 0.140551 0.237530 -0.337293
H10   H     H_    0.647095 0.041143 0.251652 0.234368
H11   H     H_    0.598727 0.189118 0.306212 0.195740
C31   C     C_3   0.532745 0.153138 0.162603 -0.944108
H12   H     H_    0.521832 0.251030 0.145420 0.272776
H13   H     H_    0.428880 0.117782 0.191732 0.243359
H14   H     H_    0.566689 0.099188 0.094969 0.258786
H15   H     H_    0.152650 0.180676 0.270534 0.158709
H16   H     H_    0.663050 0.503942 0.984194 0.153645
O10   O     O_3   0.284254 0.779448 0.354911 -0.595758
C32   C     C_3   0.376935 0.814138 0.274750 0.024448
H17   H     H_    0.481060 0.773569 0.281610 0.153246
H18   H     H_    0.391355 0.916194 0.269221 0.124793
C33   C     C_3   0.320816 0.764279 0.180508 -0.344021
H19   H     H_    0.308136 0.662346 0.182121 0.235438
H20   H     H_    0.216905 0.804510 0.173091 0.195533
C34   C     C_3   0.417518 0.798029 0.091994 -0.901724
H21   H     H_    0.427121 0.899854 0.087744 0.253892
H22   H     H_    0.373382 0.760396 0.025253 0.259794
H23   H     H_    0.522858 0.758729 0.095382 0.265056
O11   O     O_3   0.010123 0.859403 0.424469 -0.612857
C35   C     C_3   0.998106 0.844059 0.323969 0.112469
H24   H     H_    0.047552 0.755795 0.297159 0.181191
H25   H     H_    0.046003 0.922506 0.282361 0.145416
C36   C     C_3   0.843387 0.834597 0.306630 -0.326218
H26   H     H_    0.794613 0.754681 0.345030 0.238821
H27   H     H_    0.790341 0.919928 0.336285 0.249035
C37   C     C_3   0.823493 0.818115 0.198894 -0.949630
H28   H     H_    0.870480 0.897498 0.158971 0.276928
H29   H     H_    0.710144 0.813438 0.188965 0.250078
H30   H     H_    0.872653 0.731179 0.168487 0.255254
O12   O     O_3   0.735363 0.126285 0.553668 -0.595843
C38   C     C_3   0.751723 0.110909 0.653162 0.028048
H31   H     H_    0.865408 0.104065 0.661508 0.155959
H32   H     H_    0.702284 0.024635 0.682400 0.127633
C39   C     C_3   0.695330 0.223339 0.713879 -0.300664
H33   H     H_    0.750332 0.307853 0.687057 0.246939
H34   H     H_    0.581564 0.232279 0.706407 0.198998
C40   C     C_3   0.717395 0.212091 0.820837 -0.943425
H35   H     H_    0.660810 0.129549 0.849912 0.257376
H36   H     H_    0.676383 0.295349 0.862595 0.266017
H37   H     H_    0.830681 0.204518 0.830515 0.252625
H38   H     H_    0.859930 0.642719 0.606847 0.132342

loop_
_geom_bond_atom_site_label_1
_geom_bond_atom_site_label_2
_ccdc_geom_bond_type
C8    C9    A    
C39   H33   S    
C23   O8    A    
Cu1   O5    S    
C35   H24   S    
Cu2   O8    S    
C36   C37   S    
C31   H12   S    
C2    C12   S    
C29   H9    S    
C7    C8    A    
C25   C28   S    
C26   C27   S    
C32   H17   S    
C18   N2    A    
C38   H32   S    
C19   N1    A    
C5    C6    A    
C15   C16   A    
C6    H5    S    
C18   C19   A    
C32   H18   S    
O12   C38   S    
C16   C17   A    
C33   H20   S    
Cu1   O1    S    
C13   C22   S    
C23   C24   S    
C38   C39   S    
Cu2   O4    S    
C2    C27   T    
C25   H16   S    
C9    C10   A    
C30   C31   S    
C33   C34   S    
C35   H25   S    
C15   O9    S    
C30   H11   S    
C3    O10   S    
C21   H2    S    
C1    C9    S    
C36   H26   S    
C3    C8    A    
C37   H29   S    
C1    O2    A    
C34   H21   S    
C11   O12   S    
C25   C26   D    
C23   O7    A    
C16   H15   S    
C12   O3    A    
Cu1   Cu2   S    
C40   H36   S    
C22   O6    A    
C7    C13   A    
C29   C30   S    
C5    H4    S    
C17   C18   A    
C38   H31   S    
C14   H7    S    
C1    O1    A    
O9    C29   S    
C33   H19   S    
C31   H13   S    
Cu1   O7    S    
C17   H1    S    
C35   C36   S    
Cu2   O6    S    
C39   C40   S    
C3    C4    A    
C4    O11   S    
C30   H10   S    
C40   H37   S    
C20   H38   S    
C32   C33   S    
C14   C19   A    
C24   C28   T    
C36   H27   S    
O11   C35   S    
C37   H30   S    
C6    C7    A    
C12   O4    A    
Cu2   N1    S    
C39   H34   S    
C11   C13   A    
C40   H35   S    
C22   O5    A    
C34   H23   S    
Cu1   O3    S    
Cu2   O2    S    
C10   H3    S    
O10   C32   S    
C10   C11   A    
C26   H6    S    
C37   H28   S    
C20   N1    A    
C4    C5    A    
C21   N2    A    
C20   C21   A    
C34   H22   S    
C29   H8    S    
C31   H14   S    
Cu1   N2    S    
C14   C15   A    
