data_mof_unit_16387.cif
_audit_creation_date              2012-12-10T16:46:49-0500
_audit_creation_method            fapswitch 2.2
_symmetry_space_group_name_H-M    P1
_symmetry_Int_Tables_number       1
_space_group_crystal_system       triclinic
_cell_length_a                    15.853537
_cell_length_b                    8.746336
_cell_length_c                    7.435733
_cell_angle_alpha                 102.295915
_cell_angle_beta                  94.23957
_cell_angle_gamma                 92.217777
_cell_volume                      1003.0642334

loop_
_atom_site_label
_atom_site_type_symbol
_atom_type_description
_atom_site_fract_x
_atom_site_fract_y
_atom_site_fract_z
_atom_type_partial_charge
C1    C     C_R   0.494734 0.200732 0.455493 0.876131
C2    C     C_3   0.956471 0.471747 0.691660 0.044875
C3    C     C_3   0.917285 0.501075 0.502930 0.328978
C4    C     C_3   0.954075 0.658927 0.470154 -0.373617
C5    C     C_3   0.051960 0.660418 0.478357 -0.384929
C6    C     C_1   0.824813 0.500047 0.496086 -0.104905
C7    C     C_1   0.175301 0.500725 0.507475 -0.109406
C8    C     C_1   0.250853 0.500557 0.506770 -0.176861
C9    C     C_2   0.479464 0.035775 0.438488 -0.028898
C10   C     C_2   0.520546 0.964241 0.561518 -0.029582
C11   C     C_R   0.340318 0.500005 0.502327 0.818385
C12   C     C_R   0.505275 0.799274 0.544506 0.876378
C13   C     C_R   0.659678 0.500003 0.497714 0.819528
C14   C     C_3   0.054779 0.472522 0.692132 -0.370652
C15   C     C_3   0.041407 0.369355 0.347456 -0.393762
C16   C     C_3   0.943688 0.368315 0.346697 -0.444544
C17   C     C_1   0.749161 0.499690 0.493943 -0.179483
C18   C     C_3   0.083123 0.500674 0.506366 0.301821
Cu1   Cu    Cu3+1 0.509300 0.517380 0.684380 0.941847
Cu2   Cu    Cu3+1 0.490700 0.482620 0.315620 0.942148
H1    H     H_    0.933034 0.353005 0.704237 0.141011
H2    H     H_    0.086016 0.564432 0.807585 0.174562
H3    H     H_    0.928884 0.675726 0.332345 0.162388
H4    H     H_    0.435553 0.376753 0.948663 0.227157
H5    H     H_    0.564467 0.623213 0.051330 0.227358
H6    H     H_    0.076532 0.358045 0.714739 0.135606
H7    H     H_    0.060613 0.387965 0.212341 0.170554
H8    H     H_    0.063263 0.253319 0.363914 0.162751
H9    H     H_    0.918775 0.252477 0.365462 0.159970
H10   H     H_    0.915959 0.383280 0.209968 0.178411
H11   H     H_    0.079424 0.756221 0.593813 0.161370
H12   H     H_    0.073629 0.685523 0.348026 0.162834
H13   H     H_    0.934052 0.759336 0.573725 0.164210
N1    N     N_2   0.476670 0.456430 0.038530 -0.217517
N2    N     N_2   0.523330 0.543570 0.961470 -0.217445
O1    O     O_R   0.506050 0.286130 0.619770 -0.594088
O2    O     O_R   0.490330 0.256780 0.308370 -0.583338
O3    O     O_R   0.387300 0.514690 0.655770 -0.583210
O4    O     O_R   0.371580 0.485340 0.344370 -0.578302
O5    O     O_R   0.509670 0.743220 0.691630 -0.583326
O6    O     O_R   0.493950 0.713870 0.380230 -0.593959
O7    O     O_R   0.628420 0.514660 0.655630 -0.578759
O8    O     O_R   0.612700 0.485310 0.344230 -0.582778
C19   C     C_3   0.930016 0.587588 0.862313 -0.922275
H14   H     H_    0.953453 0.709271 0.865009 0.242300
H15   H     H_    0.860094 0.583755 0.865348 0.248015
H16   H     H_    0.957219 0.554798 0.989894 0.228379
C20   C     C_3   0.410093 0.955539 0.292648 -0.846542
H17   H     H_    0.372963 0.042003 0.235398 0.222596
H18   H     H_    0.438168 0.879548 0.175432 0.264901
H19   H     H_    0.364423 0.885688 0.353541 0.225521
C21   C     C_3   0.589922 0.044480 0.707301 -0.845209
H20   H     H_    0.627099 0.958007 0.764456 0.223052
H21   H     H_    0.635557 0.114391 0.646406 0.225604
H22   H     H_    0.561859 0.120404 0.824552 0.264745

loop_
_geom_bond_atom_site_label_1
_geom_bond_atom_site_label_2
_ccdc_geom_bond_type
C12   O5    A    
C11   O3    A    
C21   H22   S    
C12   O6    A    
Cu1   O3    S    
C1    O2    A    
C15   C18   S    
C9    C10   D    
C14   C18   S    
C15   H7    S    
Cu1   Cu2   S    
C19   H16   S    
C13   C17   S    
C3    C6    S    
Cu2   N1    S    
C5    H12   S    
C2    H1    S    
C20   H18   S    
C2    C3    S    
C16   H9    S    
C10   C21   S    
C7    C8    T    
Cu1   N2    S    
C21   H20   S    
C14   H6    S    
C11   O4    A    
Cu2   O2    S    
Cu1   O7    S    
C14   H2    S    
C15   H8    S    
C10   C12   S    
H5    N2    S    
C8    C11   S    
C13   O7    A    
C21   H21   S    
Cu2   O6    S    
Cu1   O1    S    
C2    C14   S    
Cu2   O8    S    
Cu1   O5    S    
C16   H10   S    
C3    C4    S    
C13   O8    A    
C7    C18   S    
C1    C9    S    
C19   H14   S    
C9    C20   S    
N1    N2    D    
C2    C19   S    
Cu2   O4    S    
C6    C17   T    
C4    H13   S    
C20   H17   S    
C5    C18   S    
C4    H3    S    
C20   H19   S    
H4    N1    S    
C3    C16   S    
C15   C16   S    
C1    O1    A    
C19   H15   S    
C4    C5    S    
C5    H11   S    
