data_mof_unit_6299.cif
_audit_creation_date              2013-03-05T15:45:55-0500
_audit_creation_method            fapswitch 2.2
_symmetry_space_group_name_H-M    P1
_symmetry_Int_Tables_number       1
_space_group_crystal_system       triclinic
_cell_length_a                    20.624501
_cell_length_b                    7.257204
_cell_length_c                    20.329484
_cell_angle_alpha                 89.045007
_cell_angle_beta                  101.661709
_cell_angle_gamma                 88.824555
_cell_volume                      2978.72989427

loop_
_atom_site_label
_atom_site_type_symbol
_atom_site_description
_atom_site_fract_x
_atom_site_fract_y
_atom_site_fract_z
_atom_type_partial_charge
O1    O     O_R   0.673670 0.377510 0.185950 -0.578081
O2    O     O_R   0.326330 0.622490 0.814050 -0.578081
O3    O     O_R   0.826330 0.877510 0.314050 -0.574597
O4    O     O_R   0.173670 0.122490 0.685950 -0.574596
O5    O     O_R   0.806260 0.705340 0.185590 -0.562449
O6    O     O_R   0.193740 0.294660 0.814410 -0.562449
O7    O     O_R   0.693740 0.205340 0.314410 -0.583445
O8    O     O_R   0.306260 0.794660 0.685590 -0.583446
C1    C     C_R   0.825611 0.538458 0.170894 0.993135
C2    C     C_R   0.174389 0.461542 0.829106 0.993136
C3    C     C_R   0.674389 0.038835 0.329055 0.984385
C4    C     C_R   0.325611 0.961165 0.670945 0.984387
O9    O     O_R   0.672940 0.707120 0.178050 -0.567800
O10   O     O_R   0.327060 0.292880 0.821950 -0.567799
O11   O     O_R   0.827060 0.207120 0.321950 -0.575663
O12   O     O_R   0.172940 0.792880 0.678050 -0.575664
O13   O     O_R   0.692060 0.879040 0.306460 -0.567240
O14   O     O_R   0.307940 0.120960 0.693540 -0.567240
O15   O     O_R   0.807940 0.379040 0.193540 -0.588066
O16   O     O_R   0.192060 0.620960 0.806460 -0.588066
C5    C     C_R   0.648247 0.541907 0.161342 1.005985
C6    C     C_R   0.351753 0.458092 0.838658 1.005983
C7    C     C_R   0.851865 0.035632 0.337996 1.003777
C8    C     C_R   0.148135 0.964368 0.662004 1.003776
O17   O     O_3   0.756430 0.544390 0.292140 -0.281825
O18   O     O_3   0.243570 0.455610 0.707860 -0.281825
O19   O     O_3   0.743570 0.044390 0.207860 -0.279004
O20   O     O_3   0.256430 0.955610 0.792140 -0.279003
V1    V     V_3+5 0.748810 0.818610 0.242180 1.309652
V2    V     V_3+5 0.251190 0.181390 0.757820 1.309653
V3    V     V_3+5 0.751190 0.318610 0.257820 1.278925
V4    V     V_3+5 0.248810 0.681390 0.742180 1.278925
C9    C     C_R   0.085502 0.987865 0.610577 -0.321628
C10   C     C_R   0.914497 0.012135 0.389423 -0.321629
C11   C     C_R   0.413797 0.454756 0.891716 -0.329827
C12   C     C_R   0.586203 0.545244 0.108283 -0.329825
C13   C     C_R   0.015676 0.830878 0.436299 0.263578
C14   C     C_R   0.984324 0.169122 0.563701 0.263578
C15   C     C_R   0.482388 0.699700 0.051221 0.282585
C16   C     C_R   0.517612 0.300298 0.948779 0.282581
C17   C     C_R   0.962276 0.874479 0.382396 0.254280
C18   C     C_R   0.037724 0.125521 0.617604 0.254280
C19   C     C_R   0.536841 0.685228 0.106180 0.275370
C20   C     C_R   0.463159 0.314769 0.893820 0.275373
C21   C     C_R   0.922867 0.110354 0.449189 -0.118715
C22   C     C_R   0.077133 0.889645 0.550811 -0.118715
C23   C     C_R   0.578828 0.417749 0.056301 -0.099492
C24   C     C_R   0.421173 0.582252 0.943698 -0.099488
C25   C     C_R   0.976874 0.071466 0.503039 -0.012941
C26   C     C_R   0.023126 0.928534 0.496961 -0.012942
C27   C     C_R   0.524100 0.428131 0.001527 -0.021903
C28   C     C_R   0.475901 0.571868 0.998472 -0.021907
H1    H     H_    0.114862 0.788067 0.545737 0.183234
H2    H     H_    0.885138 0.211933 0.454263 0.183234
H3    H     H_    0.382363 0.685814 0.942067 0.185815
H4    H     H_    0.617639 0.314189 0.057932 0.185814
C29   C     C_3   0.560880 0.982009 0.535184 0.334840
C30   C     C_3   0.439119 0.017991 0.464815 0.334840
C31   C     C_3   0.939163 0.490991 0.964818 0.337303
C32   C     C_3   0.060837 0.509009 0.035182 0.337303
C33   C     C_3   0.507554 0.835788 0.531778 -0.194237
C34   C     C_3   0.492446 0.164212 0.468222 -0.194238
C35   C     C_3   0.992991 0.339702 0.968145 -0.195587
C36   C     C_3   0.007009 0.660298 0.031855 -0.195587
H5    H     H_    0.478322 0.756002 0.415851 0.212224
H6    H     H_    0.521678 0.243998 0.584148 0.212223
H7    H     H_    0.022541 0.245455 0.084048 0.209182
H8    H     H_    0.977459 0.754545 0.915952 0.209182
C37   C     C_1   0.371120 0.969495 0.625252 -0.166800
C38   C     C_1   0.628880 0.030505 0.374748 -0.166799
C39   C     C_1   0.128881 0.470504 0.874753 -0.161141
C40   C     C_1   0.871119 0.529496 0.125247 -0.161141
C41   C     C_3   0.511142 0.135700 0.545894 -0.336513
C42   C     C_3   0.488858 0.864300 0.454106 -0.336513
C43   C     C_3   0.988370 0.641426 0.954173 -0.342140
C44   C     C_3   0.011630 0.358574 0.045827 -0.342140
C45   C     C_3   0.456963 0.987984 0.541509 0.022839
C46   C     C_3   0.543037 0.012016 0.458491 0.022839
C47   C     C_3   0.043050 0.488473 0.958483 0.023421
C48   C     C_3   0.956949 0.511527 0.041517 0.023421
C49   C     C_1   0.409624 0.977425 0.587395 0.225239
C50   C     C_1   0.590376 0.022575 0.412605 0.225239
C51   C     C_1   0.090377 0.478362 0.912599 0.223740
C52   C     C_1   0.909623 0.521638 0.087401 0.223740
N1    N     N_R   0.043543 0.223040 0.679444 0.258141
O21   O     O_R   0.041319 0.402403 0.679075 -0.331648
O22   O     O_R   0.051938 0.132567 0.736462 -0.338027
N2    N     N_R   0.956457 0.776960 0.320556 0.258141
O23   O     O_R   0.958681 0.597597 0.320925 -0.331648
O24   O     O_R   0.948062 0.867433 0.263537 -0.338027
N3    N     N_R   0.458358 0.186361 0.840075 0.260178
O25   O     O_R   0.462628 0.009723 0.852864 -0.317433
O26   O     O_R   0.450380 0.245902 0.778158 -0.361578
N4    N     N_R   0.541640 0.813633 0.159926 0.260176
O27   O     O_R   0.549620 0.754088 0.221842 -0.361578
O28   O     O_R   0.537365 0.990271 0.147139 -0.317428
N5    N     N_R   0.062573 0.687915 0.428708 0.252943
O29   O     O_R   0.096114 0.700447 0.381127 -0.265609
O30   O     O_R   0.067465 0.537818 0.465478 -0.347352
N6    N     N_R   0.937427 0.312084 0.571292 0.252943
O31   O     O_R   0.903886 0.299553 0.618873 -0.265609
O32   O     O_R   0.932535 0.462182 0.534521 -0.347352
N7    N     N_R   0.433082 0.842894 0.050166 0.251704
O33   O     O_R   0.424253 0.971333 0.003580 -0.359830
O34   O     O_R   0.401010 0.854036 0.098933 -0.274148
N8    N     N_R   0.566917 0.157100 0.949835 0.251702
O35   O     O_R   0.598981 0.145933 0.901062 -0.274146
O36   O     O_R   0.575749 0.028672 0.996425 -0.359838
C53   C     C_2   0.519263 0.651635 0.566787 0.625340
H9    H     H_    0.557920 0.559835 0.556353 0.015967
O37   O     O_2   0.485888 0.604311 0.607005 -0.550555
C54   C     C_2   0.480737 0.348365 0.433213 0.625341
H10   H     H_    0.442080 0.440165 0.443647 0.015966
O38   O     O_2   0.514112 0.395689 0.392995 -0.550554
C55   C     C_2   0.981845 0.160191 0.933039 0.635783
H11   H     H_    0.943246 0.071297 0.943192 0.008901
O39   O     O_2   0.015583 0.113477 0.893054 -0.532304
C56   C     C_2   0.018155 0.839809 0.066961 0.635783
H12   H     H_    0.056754 0.928703 0.056807 0.008901
O40   O     O_2   0.984417 0.886523 0.106946 -0.532304
N9    N     N_R   0.627489 0.961090 0.575947 0.248786
O41   O     O_R   0.635606 0.938697 0.640713 -0.282934
O42   O     O_R   0.678991 0.965805 0.548207 -0.357787
N10   N     N_R   0.372511 0.038910 0.424053 0.248787
O43   O     O_R   0.364394 0.061303 0.359287 -0.282933
O44   O     O_R   0.321009 0.034195 0.451793 -0.357788
N11   N     N_R   0.872600 0.480063 0.924070 0.248588
O45   O     O_R   0.864527 0.465016 0.859294 -0.280392
O46   O     O_R   0.821097 0.486164 0.951845 -0.357146
N12   N     N_R   0.127399 0.519936 0.075929 0.248589
O47   O     O_R   0.135473 0.534984 0.140705 -0.280392
O48   O     O_R   0.178903 0.513836 0.048155 -0.357142

loop_
_geom_bond_atom_site_label_1
_geom_bond_atom_site_label_2
_geom_bond_distance
_ccdc_geom_bond_type
O17   V3    1.788338 S    
C24   H3    1.081856 S    
C4    C37   1.449290 S    
C32   C47   1.538439 S    
O1    C5    1.340521 A    
O19   V1    1.762782 S    
O13   V1    1.971372 S    
O3    C7    1.330757 A    
C1    C40   1.448415 S    
C48   C52   1.481767 S    
O15   V3    1.972361 S    
C13   N5    1.435362 S    
N5    O29   1.301008 A    
C3    C38   1.449290 S    
C5    C12   1.497128 S    
C35   C47   1.546240 S    
N1    O21   1.301383 A    
H8    C43   1.108510 S    
O7    C3    1.328113 A    
C6    C11   1.497130 S    
C18   N1    1.438019 S    
C9    C18   1.418001 A    
C16   N8    1.435811 S    
C14   C18   1.414268 A    
C53   O37   1.219892 D    
O4    C8    1.330757 A    
C35   C44   1.557061 S    
C31   N11   1.457412 S    
C55   H11   1.084253 S    
O1    V3    1.969884 S    
C19   N4    1.437351 S    
C36   C56   1.495424 S    
C12   C23   1.403346 A    
O2    V4    1.969888 S    
C29   C41   1.547654 S    
O3    V1    1.994534 S    
C56   H12   1.084255 S    
C30   C45   1.538568 S    
C1    O15   1.323115 A    
C33   C45   1.546375 S    
C55   O39   1.219877 D    
O2    C6    1.340520 A    
C34   C41   1.557097 S    
O14   V2    1.971369 S    
C21   C25   1.415146 A    
C16   C20   1.415858 A    
O5    V1    1.986406 S    
C35   C55   1.495423 S    
C2    C39   1.448415 S    
O11   C7    1.345312 A    
C15   C28   1.417289 A    
C33   C53   1.495485 S    
O12   C8    1.345311 A    
C9    C22   1.401166 A    
C36   C48   1.546240 S    
C10   C17   1.418001 A    
O10   V2    2.016254 S    
C11   C24   1.403345 A    
C54   O38   1.219892 D    
C54   H10   1.084324 S    
N5    O30   1.301302 A    
C39   C51   1.213462 T    
N1    O22   1.301359 A    
O7    V3    1.990652 S    
C27   C28   1.417924 A    
O8    V4    1.990652 S    
C14   N6    1.435362 S    
C2    O16   1.323115 A    
N3    O25   1.301383 A    
C14   C25   1.415542 A    
O18   V4    1.788336 S    
C15   C19   1.415856 A    
H6    C41   1.108509 S    
O11   V3    1.972580 S    
C32   C44   1.547587 S    
H5    C42   1.108508 S    
N12   O48   1.300194 A    
N11   O46   1.300194 A    
O5    C1    1.325042 A    
N3    O26   1.301322 A    
C46   C50   1.482636 S    
C45   C49   1.482634 S    
O8    C4    1.328113 A    
C7    C10   1.493261 S    
N6    O32   1.301302 A    
O9    C5    1.334535 A    
N7    O34   1.301004 A    
C10   C21   1.401166 A    
N4    O28   1.301384 A    
C11   C20   1.417347 A    
N9    O41   1.300252 A    
C40   C52   1.213462 T    
C20   N3    1.437350 S    
C30   C34   1.536233 S    
O6    V2    1.986409 S    
N2    O24   1.301359 A    
C21   H2    1.082142 S    
C42   C46   1.554936 S    
C32   N12   1.457412 S    
N11   O45   1.300259 A    
C31   C43   1.547587 S    
C30   C42   1.547652 S    
N10   O44   1.300191 A    
O16   V4    1.972363 S    
O9    V1    2.016256 S    
C17   N2    1.438019 S    
C3    O13   1.325418 A    
C31   C35   1.536130 S    
C29   C46   1.538566 S    
C34   C46   1.546375 S    
C44   C48   1.554705 S    
C31   C48   1.538439 S    
O6    C2    1.325042 A    
C23   C27   1.416084 A    
C29   C33   1.536234 S    
C33   C42   1.557097 S    
O12   V4    1.972580 S    
C16   C27   1.417289 A    
C22   C26   1.415146 A    
C30   N10   1.457402 S    
C8    C9    1.493261 S    
C32   C36   1.536130 S    
O10   C6    1.334535 A    
O20   V2    1.762784 S    
N12   O47   1.300259 A    
C53   H9    1.084324 S    
C47   C51   1.481767 S    
C13   C26   1.415542 A    
N8    O36   1.301082 A    
C22   H1    1.082142 S    
N6    O31   1.301008 A    
C36   C43   1.557061 S    
C13   C17   1.414268 A    
N4    O27   1.301323 A    
C38   C50   1.213966 T    
C56   O40   1.219877 D    
N9    O42   1.300193 A    
C37   C49   1.213968 T    
C29   N9    1.457401 S    
C24   C28   1.416083 A    
C34   C54   1.495485 S    
N2    O23   1.301383 A    
C25   C26   1.418626 A    
N8    O35   1.300997 A    
C4    O14   1.325418 A    
N7    O33   1.301083 A    
C15   N7    1.435807 S    
C41   C45   1.554934 S    
C23   H4    1.081855 S    
C12   C19   1.417347 A    
H7    C44   1.108510 S    
C43   C47   1.554705 S    
O4    V2    1.994533 S    
N10   O43   1.300252 A    
