data_mof_unit_57322.cif
_audit_creation_date              2013-03-05T15:46:17-0500
_audit_creation_method            fapswitch 2.2
_symmetry_space_group_name_H-M    P1
_symmetry_Int_Tables_number       1
_space_group_crystal_system       triclinic
_cell_length_a                    17.398559
_cell_length_b                    24.642801
_cell_length_c                    14.768572
_cell_angle_alpha                 90.133661
_cell_angle_beta                  125.98782
_cell_angle_gamma                 90.140453
_cell_volume                      5123.42677652

loop_
_atom_site_label
_atom_site_type_symbol
_atom_site_description
_atom_site_fract_x
_atom_site_fract_y
_atom_site_fract_z
_atom_type_partial_charge
C1    C     C_R   0.809372 0.625172 0.908357 0.292645
C2    C     C_R   0.151053 0.348376 0.091124 0.271446
C3    C     C_R   0.150384 0.652081 0.091735 0.261108
C4    C     C_R   0.809082 0.374911 0.908585 0.270047
C5    C     C_R   0.309256 0.124992 0.908348 0.293925
C6    C     C_R   0.651019 0.848374 0.091139 0.261790
C7    C     C_R   0.650352 0.152091 0.091725 0.261582
C8    C     C_R   0.309034 0.874972 0.908559 0.271183
N1    N     N_R   0.892620 0.603790 0.941800 -0.111853
N2    N     N_R   0.107380 0.396210 0.058200 -0.117194
N3    N     N_R   0.107380 0.603790 0.058200 -0.120407
N4    N     N_R   0.892620 0.396210 0.941800 -0.109966
N5    N     N_R   0.392620 0.103790 0.941800 -0.112101
N6    N     N_R   0.607380 0.896210 0.058200 -0.115709
N7    N     N_R   0.607380 0.103790 0.058200 -0.120274
N8    N     N_R   0.392620 0.896210 0.941800 -0.110242
C9    C     C_R   0.904725 0.376032 0.094891 0.281812
C10   C     C_R   0.055861 0.650502 0.906053 0.241847
C11   C     C_R   0.056265 0.349729 0.905339 0.238820
C12   C     C_R   0.904599 0.624059 0.094715 0.277238
C13   C     C_R   0.404693 0.876051 0.094869 0.281155
C14   C     C_R   0.555838 0.150502 0.906043 0.243024
C15   C     C_R   0.556225 0.849718 0.905350 0.239591
C16   C     C_R   0.404520 0.123998 0.094682 0.276714
N9    N     N_R   0.952210 0.397600 0.057910 -0.112073
N10   N     N_R   0.047790 0.602400 0.942090 -0.116753
N11   N     N_R   0.047790 0.397600 0.942090 -0.116800
N12   N     N_R   0.952210 0.602400 0.057910 -0.113536
N13   N     N_R   0.452210 0.897600 0.057910 -0.111672
N14   N     N_R   0.547790 0.102400 0.942090 -0.116311
N15   N     N_R   0.547790 0.897600 0.942090 -0.116470
N16   N     N_R   0.452210 0.102400 0.057910 -0.113765
C17   C     C_R   0.056283 0.545200 0.309290 -0.025216
C18   C     C_R   0.023035 0.454599 0.754729 -0.038463
C19   C     C_R   0.023128 0.545497 0.754896 -0.046156
C20   C     C_R   0.056269 0.455090 0.309169 -0.031849
C21   C     C_R   0.556288 0.045202 0.309290 -0.025820
C22   C     C_R   0.523013 0.954599 0.754704 -0.039825
C23   C     C_R   0.523082 0.045503 0.754846 -0.046226
C24   C     C_R   0.556273 0.955092 0.309172 -0.032100
H1    H     H_    0.081263 0.585604 0.341041 0.178923
H2    H     H_    0.037401 0.413206 0.747017 0.134041
H3    H     H_    0.037755 0.586922 0.747581 0.134915
H4    H     H_    0.081318 0.414854 0.340750 0.176686
H5    H     H_    0.581254 0.085611 0.341027 0.179164
H6    H     H_    0.537360 0.913201 0.746981 0.134135
H7    H     H_    0.537644 0.086936 0.747472 0.135001
H8    H     H_    0.581314 0.914854 0.340749 0.176881
N17   N     N_R   0.026300 0.529110 0.206760 -0.071288
N18   N     N_R   0.973700 0.470890 0.793240 -0.045580
N19   N     N_R   0.973700 0.529110 0.793240 -0.045333
N20   N     N_R   0.026300 0.470890 0.206760 -0.070968
N21   N     N_R   0.526300 0.029110 0.206760 -0.071504
N22   N     N_R   0.473700 0.970890 0.793240 -0.046016
N23   N     N_R   0.473700 0.029110 0.793240 -0.045800
N24   N     N_R   0.526300 0.970890 0.206760 -0.070948
C25   C     C_R   0.742708 0.454356 0.695721 -0.010843
C26   C     C_R   0.266870 0.545590 0.240925 -0.049010
C27   C     C_R   0.267496 0.455933 0.239406 -0.068023
C28   C     C_R   0.742419 0.543779 0.693574 0.011754
C29   C     C_R   0.243223 0.954280 0.695482 -0.006084
C30   C     C_R   0.766934 0.045672 0.241503 -0.041306
C31   C     C_R   0.767694 0.955986 0.239984 -0.084593
C32   C     C_R   0.242851 0.043665 0.693060 0.012687
H9    H     H_    0.732631 0.413498 0.665396 0.206552
H10   H     H_    0.288909 0.587221 0.253112 0.179575
H11   H     H_    0.291951 0.414689 0.252011 0.180183
H12   H     H_    0.729373 0.584307 0.660502 0.184920
H13   H     H_    0.233311 0.913341 0.665810 0.207126
H14   H     H_    0.788748 0.087319 0.253426 0.178107
H15   H     H_    0.792197 0.914752 0.252338 0.168815
H16   H     H_    0.229804 0.084199 0.660008 0.184604
N25   N     N_R   0.818530 0.472270 0.792960 -0.081209
N26   N     N_R   0.181470 0.527730 0.207040 -0.055402
N27   N     N_R   0.181470 0.472270 0.207040 -0.053550
N28   N     N_R   0.818530 0.527730 0.792960 -0.076662
N29   N     N_R   0.318530 0.972270 0.792960 -0.081605
N30   N     N_R   0.681470 0.027730 0.207040 -0.055978
N31   N     N_R   0.681470 0.972270 0.207040 -0.049787
N32   N     N_R   0.318530 0.027730 0.792960 -0.076160
C33   C     C_R   0.814312 0.637628 0.002939 -0.239489
C34   C     C_R   0.120997 0.318865 0.996858 -0.240716
C35   C     C_R   0.119794 0.681746 0.997964 -0.239174
C36   C     C_R   0.814121 0.362656 0.003213 -0.241052
C37   C     C_R   0.314174 0.137489 0.002891 -0.238673
C38   C     C_R   0.620912 0.818846 0.996880 -0.239770
C39   C     C_R   0.619747 0.181753 0.997948 -0.239278
C40   C     C_R   0.314067 0.862701 0.003173 -0.240945
C41   C     C_R   0.074742 0.500220 0.374553 -0.021946
C42   C     C_R   0.055372 0.500098 0.730984 -0.029083
C43   C     C_R   0.574754 0.000223 0.374557 -0.022025
C44   C     C_R   0.555333 0.000102 0.730940 -0.027121
C45   C     C_R   0.693894 0.498333 0.633191 0.084905
C46   C     C_R   0.322088 0.501436 0.261412 0.088761
C47   C     C_R   0.194792 0.998151 0.632397 0.082380
C48   C     C_R   0.822318 0.001568 0.262576 0.095503
Ni1   Ni    Ni4+2 0.934150 0.565840 0.869060 0.301160
Ni2   Ni    Ni4+2 0.065850 0.434160 0.130940 0.294467
Ni3   Ni    Ni4+2 0.065850 0.565840 0.130940 0.296849
Ni4   Ni    Ni4+2 0.934150 0.434160 0.869060 0.303775
Ni5   Ni    Ni4+2 0.434150 0.065840 0.869060 0.301140
Ni6   Ni    Ni4+2 0.565850 0.934160 0.130940 0.295640
Ni7   Ni    Ni4+2 0.565850 0.065840 0.130940 0.297447
Ni8   Ni    Ni4+2 0.434150 0.934160 0.869060 0.303762
C49   C     C_3   0.537193 0.448345 0.462549 0.258132
C50   C     C_3   0.489646 0.551393 0.406387 0.249203
C51   C     C_3   0.505718 0.473423 0.351259 0.323913
C52   C     C_3   0.519725 0.526099 0.516758 0.293900
C53   C     C_3   0.038458 0.948016 0.459794 0.259661
C54   C     C_3   0.989333 0.051429 0.409554 0.258451
C55   C     C_3   0.005701 0.975089 0.349408 0.313149
C56   C     C_3   0.020451 0.024235 0.518667 0.294785
C57   C     C_3   0.455796 0.476484 0.456633 -0.346529
C58   C     C_3   0.572530 0.523125 0.413323 -0.322166
C59   C     C_3   0.957133 0.974713 0.456356 -0.358486
C60   C     C_3   0.071958 0.024701 0.413838 -0.324299
H17   H     H_    0.409377 0.457578 0.476601 0.219973
H18   H     H_    0.621010 0.541933 0.396536 0.222765
H19   H     H_    0.911304 0.954516 0.475851 0.223146
H20   H     H_    0.119727 0.044756 0.397287 0.217338
C61   C     C_3   0.424436 0.502281 0.343575 -0.175237
C62   C     C_3   0.602168 0.497430 0.525483 -0.198949
C63   C     C_3   0.924676 0.002514 0.344585 -0.165487
C64   C     C_3   0.102849 0.997083 0.524956 -0.197516
C65   C     C_R   0.799161 0.266197 0.012354 -0.044587
C66   C     C_R   0.128943 0.780626 0.989733 -0.008183
C67   C     C_R   0.127687 0.219957 0.984674 -0.012707
C68   C     C_R   0.801843 0.734090 0.016240 -0.046577
C69   C     C_R   0.299194 0.766238 0.012426 -0.044276
C70   C     C_R   0.629026 0.280631 0.989913 -0.008192
C71   C     C_R   0.627688 0.719964 0.984595 -0.012278
C72   C     C_R   0.301679 0.233983 0.015888 -0.048917
H21   H     H_    0.864612 0.260672 0.020101 0.144606
H22   H     H_    0.063262 0.785526 0.981559 0.144535
H23   H     H_    0.060615 0.215157 0.973349 0.143376
H24   H     H_    0.868763 0.739535 0.027295 0.148468
H25   H     H_    0.364694 0.760729 0.020278 0.144545
H26   H     H_    0.563395 0.285548 0.981848 0.144494
H27   H     H_    0.560554 0.715126 0.973109 0.142710
H28   H     H_    0.368547 0.239393 0.026804 0.148814
C73   C     C_R   0.250171 0.721689 0.008644 -0.103732
C74   C     C_R   0.678519 0.325695 0.993486 -0.043408
C75   C     C_R   0.677082 0.674825 0.988911 -0.035899
C76   C     C_R   0.252764 0.278641 0.011323 -0.105181
C77   C     C_R   0.750086 0.221660 0.008505 -0.103012
C78   C     C_R   0.178386 0.825703 0.993241 -0.045130
C79   C     C_R   0.176995 0.174783 0.988925 -0.035227
C80   C     C_R   0.752842 0.778715 0.011609 -0.112713
H29   H     H_    0.277943 0.681434 0.014935 0.143291
H30   H     H_    0.651278 0.366089 0.986879 0.149565
H31   H     H_    0.648114 0.634504 0.979123 0.152460
H32   H     H_    0.282123 0.318828 0.020374 0.156017
H33   H     H_    0.777777 0.181395 0.014659 0.144332
H34   H     H_    0.151065 0.866087 0.986500 0.149284
H35   H     H_    0.148030 0.134475 0.979281 0.153131
H36   H     H_    0.782200 0.818916 0.020786 0.147111
C81   C     C_R   0.165584 0.729159 0.997119 0.194098
C82   C     C_R   0.763231 0.317840 0.004914 0.187845
C83   C     C_R   0.763867 0.682495 0.005027 0.182683
C84   C     C_R   0.166284 0.271377 0.995541 0.192835
C85   C     C_R   0.665555 0.229153 0.997101 0.193474
C86   C     C_R   0.263164 0.817873 0.004813 0.187913
C87   C     C_R   0.263713 0.182400 0.004847 0.181454
C88   C     C_R   0.666275 0.771399 0.995594 0.196544
C89   C     C_R   0.115262 0.451187 0.636901 -0.111288
C90   C     C_R   0.119039 0.549385 0.546155 -0.076451
C91   C     C_R   0.118860 0.451202 0.545629 -0.088701
C92   C     C_R   0.115528 0.549322 0.637500 -0.117998
C93   C     C_R   0.615248 0.951193 0.636886 -0.110189
C94   C     C_R   0.619040 0.049390 0.546150 -0.076099
C95   C     C_R   0.618869 0.951207 0.545631 -0.089107
C96   C     C_R   0.615506 0.049328 0.637478 -0.116114
H37   H     H_    0.112385 0.412421 0.668825 0.142263
H38   H     H_    0.118423 0.588164 0.511765 0.160398
H39   H     H_    0.118128 0.412420 0.510872 0.158368
H40   H     H_    0.112936 0.588068 0.669949 0.142056
H41   H     H_    0.612367 0.912427 0.668807 0.142318
H42   H     H_    0.618428 0.088169 0.511762 0.160472
H43   H     H_    0.618149 0.912425 0.510882 0.158466
H44   H     H_    0.612905 0.088073 0.669922 0.142193
C97   C     C_R   0.110429 0.500291 0.492568 0.096836
C98   C     C_R   0.102230 0.500212 0.674605 0.105922
C99   C     C_R   0.610440 0.000296 0.492570 0.097196
C100  C     C_R   0.602199 0.000217 0.674573 0.107386
N33   N     N_R   0.744092 0.649483 0.801274 0.229631
O1    O     O_R   0.776171 0.676420 0.754306 -0.321559
O2    O     O_R   0.654775 0.653495 0.760845 -0.299564
N34   N     N_R   0.196056 0.326588 0.201477 0.256117
O3    O     O_R   0.237828 0.279641 0.227709 -0.301183
O4    O     O_R   0.192591 0.352766 0.275546 -0.357909
N35   N     N_R   0.194465 0.674106 0.202104 0.260794
O5    O     O_R   0.189600 0.648104 0.275116 -0.342446
O6    O     O_R   0.237068 0.721042 0.229462 -0.283160
N36   N     N_R   0.743416 0.350007 0.801782 0.229655
O7    O     O_R   0.653831 0.347096 0.760834 -0.320520
O8    O     O_R   0.774961 0.321520 0.755915 -0.302151
N37   N     N_R   0.243599 0.148995 0.801045 0.229583
O9    O     O_R   0.275249 0.176230 0.753924 -0.322097
O10   O     O_R   0.154167 0.152371 0.760431 -0.300106
N38   N     N_R   0.695997 0.826601 0.201500 0.255434
O11   O     O_R   0.737613 0.779606 0.227705 -0.303721
O12   O     O_R   0.692579 0.852816 0.275567 -0.356785
N39   N     N_R   0.694331 0.174144 0.202052 0.260635
O13   O     O_R   0.689278 0.148200 0.274978 -0.342838
O14   O     O_R   0.737036 0.221049 0.229458 -0.283034
N40   N     N_R   0.243330 0.850102 0.801729 0.229583
O15   O     O_R   0.153602 0.847664 0.760294 -0.321269
O16   O     O_R   0.274820 0.821299 0.756172 -0.302241
N41   N     N_R   0.949082 0.352547 0.203169 0.225779
O17   O     O_R   0.903643 0.350621 0.248351 -0.337565
O18   O     O_R   0.025606 0.323855 0.246048 -0.321968
N42   N     N_R   0.988063 0.671138 0.795308 0.249076
O19   O     O_R   0.910118 0.644437 0.724624 -0.355820
O20   O     O_R   0.002848 0.717106 0.764670 -0.319111
N43   N     N_R   0.988417 0.328794 0.794423 0.248508
O21   O     O_R   0.004236 0.283620 0.762341 -0.310949
O22   O     O_R   0.909537 0.354521 0.724931 -0.341243
N44   N     N_R   0.948604 0.647011 0.203721 0.225746
O23   O     O_R   0.024687 0.676596 0.247490 -0.314310
O24   O     O_R   0.902625 0.648027 0.248280 -0.344479
N45   N     N_R   0.449024 0.852560 0.203136 0.225804
O25   O     O_R   0.403561 0.850627 0.248288 -0.338913
O26   O     O_R   0.525556 0.823872 0.246038 -0.321305
N46   N     N_R   0.487971 0.171146 0.795331 0.248758
O27   O     O_R   0.409936 0.144488 0.724772 -0.357018
O28   O     O_R   0.502738 0.217103 0.764640 -0.318732
N47   N     N_R   0.488346 0.828784 0.794444 0.248369
O29   O     O_R   0.504147 0.783611 0.762336 -0.310747
O30   O     O_R   0.409435 0.854497 0.725008 -0.341433
N48   N     N_R   0.448449 0.146959 0.203666 0.226005
O31   O     O_R   0.524457 0.176612 0.247430 -0.314198
O32   O     O_R   0.402435 0.147922 0.248184 -0.344808
N49   N     N_R   0.561041 0.391176 0.488353 0.264783
O33   O     O_R   0.514050 0.360772 0.512204 -0.256253
O34   O     O_R   0.621259 0.369025 0.474506 -0.278625
N50   N     N_R   0.466459 0.608074 0.373283 0.254621
O35   O     O_R   0.477485 0.644498 0.443887 -0.236597
O36   O     O_R   0.444078 0.623270 0.276288 -0.368072
N51   N     N_R   0.495568 0.443946 0.259229 0.269168
O37   O     O_R   0.544838 0.458336 0.222831 -0.330781
O38   O     O_R   0.437157 0.403042 0.213135 -0.369605
N52   N     N_R   0.522229 0.553355 0.606394 0.275872
O39   O     O_R   0.451047 0.583780 0.580440 -0.277104
O40   O     O_R   0.577052 0.534593 0.707739 -0.366305
N53   N     N_R   0.063804 0.890910 0.484476 0.267773
O41   O     O_R   0.016787 0.859140 0.506163 -0.258335
O42   O     O_R   0.128657 0.870604 0.476694 -0.272907
N54   N     N_R   0.965550 0.108413 0.380020 0.253928
O43   O     O_R   0.974968 0.143122 0.452372 -0.236692
O44   O     O_R   0.944261 0.125728 0.284703 -0.357424
N55   N     N_R   0.993155 0.949757 0.252270 0.254304
O45   O     O_R   0.967679 0.979198 0.165927 -0.357156
O46   O     O_R   0.000129 0.897474 0.247575 -0.312973
N56   N     N_R   0.022847 0.049636 0.609790 0.276933
O47   O     O_R   0.950037 0.077835 0.585776 -0.282071
O48   O     O_R   0.080818 0.031293 0.711065 -0.366104

loop_
_geom_bond_atom_site_label_1
_geom_bond_atom_site_label_2
_geom_bond_distance
_ccdc_geom_bond_type
N2    N11   1.388390 A    
N19   Ni1   1.857541 S    
N25   Ni4   1.883856 S    
N36   O8    1.299793 A    
N39   O13   1.300254 A    
C72   C76   1.370208 A    
C33   C83   1.424826 S    
C21   H5    1.075358 S    
C43   C99   1.466756 S    
C94   C99   1.402752 A    
N6    Ni6   1.860539 S    
C32   N32   1.336737 A    
N5    N16   1.388390 A    
N51   O37   1.300192 A    
C10   N10   1.340910 A    
N6    N15   1.388390 A    
C95   C99   1.403271 A    
N46   O27   1.300184 A    
C16   N16   1.340529 A    
C66   C78   1.385365 A    
C73   H29   1.084535 S    
N55   O45   1.300191 A    
C93   C100  1.402688 A    
C31   N31   1.339537 A    
C4    N36   1.429708 S    
C49   C51   1.527020 S    
C26   N26   1.331827 A    
N56   O47   1.300334 A    
C13   N45   1.429623 S    
C94   H42   1.080381 S    
C2    C34   1.370530 A    
C89   C98   1.402694 A    
C49   C57   1.534208 S    
N32   Ni5   1.876310 S    
C67   H23   1.083344 S    
N23   Ni5   1.857541 S    
C56   C64   1.536248 S    
C56   C59   1.531836 S    
C30   C48   1.364152 A    
C4    C36   1.382052 A    
C53   C55   1.530573 S    
N40   O16   1.299828 A    
N55   O46   1.299912 A    
N8    N13   1.388067 A    
C69   C73   1.369277 A    
C76   C84   1.391628 A    
C55   N55   1.456895 S    
N50   O36   1.300594 A    
C22   C44   1.388327 A    
N50   O35   1.299793 A    
C30   H14   1.070997 S    
N3    Ni3   1.861278 S    
C25   N25   1.328622 A    
N37   O10   1.300699 A    
C7    N39   1.436780 S    
C27   H11   1.076384 S    
C56   N56   1.461038 S    
C26   H10   1.071450 S    
C23   N23   1.339710 A    
C42   C98   1.468233 S    
N34   O4    1.300306 A    
C29   N29   1.327834 A    
N38   O11   1.300816 A    
C24   N24   1.337121 A    
C15   C38   1.376142 A    
C22   N22   1.340024 A    
N13   Ni6   1.834329 S    
N52   O40   1.300521 A    
N31   Ni6   1.876309 S    
C55   C60   1.558055 S    
C27   C46   1.376750 A    
C3    N35   1.436779 S    
C4    N4    1.336326 A    
C11   C34   1.376148 A    
C19   H3    1.072415 S    
N49   O33   1.300206 A    
C19   N19   1.339776 A    
C5    N5    1.335495 A    
C20   N20   1.337122 A    
C5    C37   1.381732 A    
C28   C45   1.366805 A    
C96   H44   1.080200 S    
C75   H31   1.083255 S    
N36   O7    1.300678 A    
C13   C40   1.383566 A    
C53   N53   1.457464 S    
C8    N8    1.336359 A    
N20   Ni2   1.857542 S    
C25   C45   1.354993 A    
N53   O41   1.300230 A    
C90   C92   1.385813 A    
C93   C95   1.385669 A    
C95   H43   1.080260 S    
N48   O31   1.299641 A    
C90   C97   1.402750 A    
C71   C75   1.385842 A    
C74   C82   1.395504 A    
C68   C83   1.395296 A    
C27   N27   1.339333 A    
N39   O14   1.300804 A    
C93   H41   1.080279 S    
C11   N11   1.341593 A    
N54   O44   1.300633 A    
N41   O17   1.300939 A    
C78   H34   1.083241 S    
C7    C39   1.369617 A    
N11   Ni4   1.841546 S    
C18   H2    1.072429 S    
C59   C63   1.557151 S    
C90   H38   1.080381 S    
N26   N27   1.366692 A    
C21   C43   1.379739 A    
C55   C63   1.528384 S    
N35   O5    1.300260 A    
C80   C88   1.391666 A    
C52   C62   1.536669 S    
C3    N3    1.333656 A    
C45   C62   1.447045 S    
C44   C100  1.468202 S    
C25   H9    1.072286 S    
C71   H27   1.083348 S    
C36   C82   1.423280 S    
N30   N31   1.366692 A    
C68   C80   1.370123 A    
C67   C84   1.396630 A    
C5    N37   1.430503 S    
C12   N12   1.340341 A    
N3    N10   1.388067 A    
N18   N19   1.434701 A    
N28   Ni1   1.876310 S    
C14   N46   1.436787 S    
C31   C48   1.377175 A    
C28   N28   1.336188 A    
N27   Ni2   1.876309 S    
C60   H20   1.109990 S    
N34   O3    1.300792 A    
C8    C40   1.381977 A    
C41   C97   1.466771 S    
C52   C57   1.532347 S    
C77   C85   1.391348 A    
C10   N42   1.436842 S    
N43   O21   1.300689 A    
C18   C42   1.388252 A    
C51   C58   1.557943 S    
N45   O25   1.300938 A    
C17   C41   1.379741 A    
C54   C63   1.535767 S    
N17   Ni3   1.858444 S    
C34   C84   1.418806 S    
C80   H36   1.084529 S    
C96   C100  1.403263 A    
N56   O48   1.300456 A    
N47   O29   1.300690 A    
C35   C81   1.416749 S    
N48   O32   1.300914 A    
N17   N20   1.434701 A    
C65   H21   1.084475 S    
C10   C35   1.374449 A    
N16   Ni7   1.841547 S    
C1    N1    1.335544 A    
N51   O38   1.300380 A    
C51   N51   1.455619 S    
C14   C39   1.374392 A    
C8    N40   1.429713 S    
N49   O34   1.300602 A    
C66   H22   1.083362 S    
C58   H18   1.110009 S    
C50   N50   1.458389 S    
C79   C87   1.395829 A    
C78   C86   1.395495 A    
C57   H17   1.111284 S    
N12   Ni3   1.841547 S    
C73   C81   1.391341 A    
C39   C85   1.416682 S    
C2    N34   1.436639 S    
C50   C58   1.551428 S    
C17   H1    1.075336 S    
C59   H19   1.111260 S    
N8    Ni8   1.861278 S    
N53   O42   1.300646 A    
C20   C41   1.378782 A    
C3    C35   1.369645 A    
C37   C87   1.425091 S    
N25   N28   1.366692 A    
N44   O23   1.299654 A    
C20   H4    1.075173 S    
C19   C42   1.387487 A    
C38   C88   1.418582 S    
C51   C61   1.528151 S    
N5    Ni5   1.860539 S    
C2    N2    1.332706 A    
C54   C60   1.549940 S    
C23   C44   1.387550 A    
C79   H35   1.083248 S    
N54   O43   1.299786 A    
C70   C85   1.396323 A    
N7    N14   1.388067 A    
C23   H7    1.072469 S    
C16   C37   1.385454 A    
N21   N24   1.434701 A    
C54   N54   1.458429 S    
C24   H8    1.075172 S    
C47   C64   1.447058 S    
N22   N23   1.434701 A    
N1    Ni1   1.860539 S    
C9    N41   1.429617 S    
C14   N14   1.340843 A    
C48   C63   1.450439 S    
N47   O30   1.300288 A    
N30   Ni7   1.883855 S    
N40   O15   1.300733 A    
C49   N49   1.456574 S    
C30   N30   1.331111 A    
C32   C47   1.367520 A    
N42   O20   1.300719 A    
C6    N38   1.436637 S    
N46   O28   1.300722 A    
C13   N13   1.338992 A    
C18   N18   1.340069 A    
C15   N47   1.436452 S    
C29   C47   1.354014 A    
C53   C64   1.537580 S    
C75   C83   1.395820 A    
N26   Ni3   1.883855 S    
C1    N33   1.430655 S    
C72   H28   1.084435 S    
C57   C61   1.557489 S    
N2    Ni2   1.860539 S    
N4    N9    1.388067 A    
C16   N48   1.429276 S    
C6    C38   1.370479 A    
N44   O24   1.300912 A    
N45   O26   1.299790 A    
C9    C36   1.383419 A    
C9    N9    1.338959 A    
N15   Ni8   1.841546 S    
C66   C81   1.396346 A    
C68   H24   1.084436 S    
C26   C46   1.365098 A    
C72   C87   1.395379 A    
C77   H33   1.084536 S    
C6    N6    1.332545 A    
C76   H32   1.084508 S    
C65   C77   1.369264 A    
N35   O6    1.300804 A    
C22   H6    1.072476 S    
C12   N44   1.429273 S    
N29   N32   1.366692 A    
C74   H30   1.083242 S    
N33   O1    1.299458 A    
C91   C97   1.403273 A    
C50   C52   1.524206 S    
C71   C88   1.396561 A    
N21   Ni7   1.858444 S    
C40   C86   1.423333 S    
N52   O39   1.300326 A    
C50   C61   1.537397 S    
C7    N7    1.333680 A    
C89   H37   1.080279 S    
N41   O18   1.299784 A    
N14   Ni5   1.834327 S    
C49   C62   1.535644 S    
C91   H39   1.080260 S    
C11   N43   1.436478 S    
C29   H13   1.071378 S    
C32   H16   1.077357 S    
C24   C43   1.378797 A    
N37   O9    1.299506 A    
C70   C74   1.385340 A    
C92   C98   1.403268 A    
C54   C56   1.523298 S    
N18   Ni4   1.858443 S    
N4    Ni4   1.861278 S    
N43   O22   1.300281 A    
N33   O2    1.300671 A    
C21   N21   1.337925 A    
C53   C59   1.535485 S    
N10   Ni1   1.834327 S    
N24   Ni6   1.857542 S    
C15   N15   1.341525 A    
C58   C62   1.553477 S    
C46   C61   1.450535 S    
N9    Ni2   1.834329 S    
C69   H25   1.084476 S    
N42   O19   1.300183 A    
C28   H12   1.077320 S    
C89   C91   1.385679 A    
C17   N17   1.337939 A    
C52   N52   1.460603 S    
N29   Ni8   1.883856 S    
N22   Ni8   1.858443 S    
C94   C96   1.385808 A    
C92   H40   1.080196 S    
N7    Ni7   1.861278 S    
C60   C64   1.554210 S    
C69   C86   1.395136 A    
C1    C33   1.381859 A    
C31   H15   1.076625 S    
N38   O12   1.300293 A    
N1    N12   1.388390 A    
C67   C79   1.385961 A    
C65   C82   1.395109 A    
C12   C33   1.385270 A    
C70   H26   1.083362 S    
