data_mof_unit_41161.cif
_audit_creation_date              2012-10-26T20:51:13-0400
_audit_creation_method            fapswitch 2.2
_symmetry_space_group_name_H-M    P1
_symmetry_Int_Tables_number       1
_space_group_crystal_system       triclinic
_cell_length_a                    13.055653
_cell_length_b                    10.791099
_cell_length_c                    9.54564
_cell_angle_alpha                 90.176832
_cell_angle_beta                  95.81282
_cell_angle_gamma                 91.977589
_cell_volume                      1337.09479643

loop_
_atom_site_label
_atom_site_type_symbol
_atom_type_description
_atom_site_fract_x
_atom_site_fract_y
_atom_site_fract_z
_atom_type_partial_charge
C1    C     C_R   0.495412 0.262729 0.499135 0.587367
C2    C     C_R   0.405940 0.928763 0.497853 0.247666
C3    C     C_R   0.501609 0.871503 0.498609 0.013848
C4    C     C_R   0.301001 0.496471 0.474123 0.559159
C5    C     C_R   0.590680 0.944260 0.480863 -0.075410
C6    C     C_3   0.695401 0.949169 0.565428 0.546186
C7    C     C_3   0.686100 0.090070 0.574385 0.633418
C8    C     C_R   0.562026 0.582195 0.082660 0.059567
C9    C     C_R   0.443197 0.414257 0.066207 0.515087
C10   C     C_R   0.443122 0.414297 0.917437 0.513596
C11   C     C_R   0.562445 0.581847 0.935238 0.100713
C12   C     C_R   0.028972 0.504025 0.564029 -0.103622
C13   C     C_3   0.558670 0.719724 0.930169 -0.237786
C14   C     C_3   0.557967 0.719971 0.088404 -0.279249
C15   C     C_R   0.504592 0.737793 0.500666 0.576268
C16   C     C_R   0.699588 0.496869 0.525495 0.569775
C17   C     C_R   0.812969 0.494414 0.538486 -0.059207
C18   C     C_R   0.189266 0.485370 0.459913 -0.072253
C19   C     C_R   0.029215 0.428115 0.322717 0.411268
C20   C     C_R   0.135810 0.440996 0.334767 -0.099813
C21   C     C_R   0.136227 0.512718 0.575197 -0.106969
C22   C     C_3   0.810817 0.537988 0.200141 -0.011177
C23   C     C_R   0.973968 0.465905 0.434541 -0.008880
C24   C     C_3   0.775995 0.790249 0.458542 -0.105414
C25   C     C_3   0.754782 0.208654 0.768944 -0.013386
C26   C     C_3   0.044153 0.690664 0.822416 -0.089682
C27   C     C_3   0.261456 0.844939 0.377484 -0.109104
C28   C     C_3   0.786825 0.902210 0.783264 -0.108359
C29   C     C_R   0.865632 0.467454 0.419655 0.241036
C30   C     C_R   0.869306 0.524125 0.668657 0.304421
C31   C     C_R   0.976425 0.533073 0.680552 0.296930
C32   C     C_R   0.586517 0.071902 0.485054 0.035132
C33   C     C_R   0.494807 0.129890 0.496819 -0.014224
C34   C     C_R   0.403146 0.058849 0.497829 -0.103037
Cu1   Cu    Cu3+1 0.499990 0.499980 0.640670 1.099898
Cu2   Cu    Cu3+1 0.500010 0.500020 0.359330 1.051228
F1    F     F_    0.756707 0.158404 0.502955 -0.605049
F2    F     F_    0.382614 0.329968 0.127012 -0.584132
F3    F     F_    0.382415 0.330064 0.839354 -0.570802
F4    F     F_    0.820877 0.549379 0.784428 -0.637008
F5    F     F_    0.981558 0.376819 0.202219 -0.570781
H1    H     H_    0.630339 0.762172 0.896348 0.195955
H2    H     H_    0.779299 0.506502 0.093182 0.200063
H3    H     H_    0.704009 0.758483 0.395065 0.116153
H4    H     H_    0.787017 0.738328 0.558283 0.149919
H5    H     H_    0.841631 0.770388 0.397768 0.113097
H6    H     H_    0.755433 0.299699 0.716201 0.195808
H7    H     H_    0.829466 0.163532 0.762263 0.139063
H8    H     H_    0.746267 0.225364 0.881823 0.164601
H9    H     H_    0.969433 0.736430 0.822699 0.132103
H10   H     H_    0.087532 0.729599 0.737104 0.109319
H11   H     H_    0.089988 0.712660 0.924264 0.146603
H12   H     H_    0.486043 0.753131 0.874272 0.175417
H13   H     H_    0.192215 0.784285 0.387363 0.138268
H14   H     H_    0.307762 0.799613 0.301316 0.127637
H15   H     H_    0.234659 0.935881 0.336272 0.137836
H16   H     H_    0.853570 0.937163 0.729072 0.147863
H17   H     H_    0.806877 0.811626 0.830797 0.150861
H18   H     H_    0.774976 0.965703 0.871254 0.153071
H19   H     H_    0.628841 0.763849 0.144378 0.132349
H20   H     H_    0.484486 0.752598 0.122520 0.161252
H21   H     H_    0.176674 0.413744 0.246927 0.200175
H22   H     H_    0.179015 0.542786 0.673280 0.200241
H23   H     H_    0.330653 0.103717 0.503219 0.152440
H24   H     H_    0.889012 0.579669 0.191512 0.133280
H25   H     H_    0.760683 0.610683 0.233788 0.069884
N1    N     N_R   0.500660 0.500930 0.148010 -0.267037
N2    N     N_R   0.500660 0.500890 0.852110 -0.275231
O1    O     O_R   0.500000 0.319640 0.618810 -0.433554
O2    O     O_3   0.776828 0.918366 0.484920 -0.532162
O3    O     O_3   0.670244 0.134075 0.710698 -0.578044
O4    O     O_3   0.029749 0.560838 0.810229 -0.501372
O5    O     O_3   0.317125 0.858179 0.511387 -0.559951
O6    O     O_3   0.693484 0.885468 0.695271 -0.586475
O7    O     O_R   0.500010 0.319680 0.381230 -0.438762
O8    O     O_R   0.348990 0.499960 0.599490 -0.468097
O9    O     O_R   0.349000 0.500000 0.361910 -0.485208
O10   O     O_R   0.499990 0.680320 0.618770 -0.482024
O11   O     O_R   0.500000 0.680360 0.381190 -0.548092
O12   O     O_R   0.651000 0.500000 0.638090 -0.454887
O13   O     O_R   0.651010 0.500040 0.400510 -0.482911
O14   O     O_3   0.811033 0.435091 0.291773 -0.446667

loop_
_geom_bond_atom_site_label_1
_geom_bond_atom_site_label_2
_ccdc_geom_bond_type
C18   C21   A    
C26   O4    S    
C19   C20   A    
C28   O6    S    
Cu2   N1    S    
C1    C33   S    
C28   H16   S    
C12   C23   A    
C24   H4    S    
C23   C29   A    
Cu2   O9    S    
C26   H9    S    
C7    O3    S    
C30   C31   A    
C27   H14   S    
C15   O10   A    
Cu1   O12   S    
C17   C29   A    
C9    F2    S    
C22   H25   S    
Cu1   Cu2   S    
C16   C17   S    
C25   O3    S    
C9    C10   A    
C25   H6    S    
C5    C32   A    
C4    C18   S    
C2    C34   A    
C13   C14   S    
C17   C30   A    
C13   H1    S    
C6    O6    S    
C13   H12   S    
C15   O11   A    
Cu1   O8    S    
C27   H13   S    
C4    O8    A    
C24   O2    S    
C1    O7    A    
C27   H15   S    
C14   H20   S    
C12   C21   A    
C1    O1    A    
C10   F3    S    
C16   O12   A    
C19   C23   A    
C9    N1    A    
C22   H24   S    
Cu2   O7    S    
C26   H11   S    
C22   H2    S    
Cu2   O13   S    
C34   H23   S    
C33   C34   A    
C7    F1    S    
C30   F4    S    
C25   H7    S    
C2    O5    S    
C31   O4    S    
C10   N2    A    
C12   C31   A    
C24   H3    S    
C22   O14   S    
C3    C15   S    
C11   N2    A    
C28   H18   S    
C6    O2    S    
C8    C14   S    
C7    C32   S    
C3    C5    A    
Cu2   O11   S    
C6    C7    S    
C28   H17   S    
C14   H19   S    
Cu1   O10   S    
C24   H5    S    
C32   C33   A    
C2    C3    A    
C4    O9    A    
C26   H10   S    
C11   C13   S    
C5    C6    S    
Cu1   N2    S    
C8    C11   A    
C16   O13   A    
C18   C20   A    
C20   H21   S    
C25   H8    S    
C21   H22   S    
C29   O14   S    
Cu1   O1    S    
C8    N1    A    
C27   O5    S    
C19   F5    S    
