data_mof_unit_48533.cif
_audit_creation_date              2012-12-10T19:10:05-0500
_audit_creation_method            fapswitch 2.2
_symmetry_space_group_name_H-M    P1
_symmetry_Int_Tables_number       1
_space_group_crystal_system       triclinic
_cell_length_a                    10.828228
_cell_length_b                    10.817543
_cell_length_c                    9.552568
_cell_angle_alpha                 90.348492
_cell_angle_beta                  90.13499
_cell_angle_gamma                 90.338867
_cell_volume                      1118.89488428

loop_
_atom_site_label
_atom_site_type_symbol
_atom_type_description
_atom_site_fract_x
_atom_site_fract_y
_atom_site_fract_z
_atom_type_partial_charge
C1    C     C_R   0.501283 0.262425 0.499634 0.800753
C2    C     C_R   0.251514 0.731524 0.050598 -0.100521
C3    C     C_R   0.933469 0.550025 0.390421 -0.240657
C4    C     C_R   0.871651 0.492726 0.501258 -0.080217
C5    C     C_R   0.938998 0.439008 0.612345 0.004890
C6    C     C_R   0.067111 0.447094 0.610507 -0.229265
C7    C     C_R   0.128506 0.504080 0.499428 -0.062347
C8    C     C_R   0.061323 0.556659 0.388302 0.009409
C9    C     C_R   0.903921 0.405953 0.868366 -0.190716
C10   C     C_R   0.850301 0.341066 0.979061 -0.130316
C11   C     C_R   0.775511 0.238124 0.951739 -0.102269
C12   C     C_R   0.262422 0.502466 0.499755 0.806731
C13   C     C_R   0.754763 0.199664 0.813790 -0.119503
C14   C     C_R   0.806504 0.265500 0.702525 -0.086683
C15   C     C_R   0.880635 0.370141 0.729068 0.123782
C16   C     C_R   0.504626 0.064446 0.624461 0.077230
C17   C     C_R   0.511371 0.129427 0.499215 -0.074701
C18   C     C_R   0.534501 0.063946 0.374501 -0.204589
C19   C     C_R   0.534697 0.934960 0.374906 -0.227066
C20   C     C_R   0.511498 0.870759 0.499953 -0.089164
C21   C     C_R   0.503878 0.937573 0.624908 0.069081
C22   C     C_3   0.414470 0.932229 0.744224 -0.213147
C23   C     C_R   0.501502 0.737589 0.500121 0.800020
C24   C     C_3   0.415365 0.073127 0.743153 -0.494924
C25   C     C_R   0.549182 0.597245 0.074138 0.251922
C26   C     C_R   0.434628 0.413746 0.072399 0.042983
C27   C     C_R   0.436647 0.412957 0.923714 -0.119355
C28   C     C_R   0.547202 0.598379 0.927212 0.241549
C29   C     C_3   0.674369 0.650759 0.919856 -0.486580
C30   C     C_3   0.678253 0.645569 0.078895 -0.506690
C31   C     C_R   0.737622 0.496057 0.500430 0.785255
C32   C     C_R   0.251384 0.786985 0.183047 -0.120271
C33   C     C_R   0.186604 0.731900 0.292787 -0.114157
C34   C     C_R   0.121792 0.620671 0.270267 0.122645
C35   C     C_R   0.121050 0.566369 0.136486 -0.149427
C36   C     C_R   0.185831 0.621806 0.026919 -0.134926
Cu1   Cu    Cu3+1 0.499990 0.499980 0.640670 0.948270
Cu2   Cu    Cu3+1 0.500010 0.500020 0.359330 0.957910
H1    H     H_    0.303563 0.772858 0.966802 0.121370
H2    H     H_    0.734488 0.187524 0.037467 0.117232
H3    H     H_    0.699458 0.118114 0.793499 0.126339
H4    H     H_    0.789752 0.234479 0.596117 0.098163
H5    H     H_    0.547440 0.111636 0.276187 0.159786
H6    H     H_    0.547666 0.886189 0.276749 0.154079
H7    H     H_    0.455748 0.891946 0.840172 0.130046
H8    H     H_    0.458802 0.113993 0.838444 0.180588
H9    H     H_    0.302509 0.871912 0.201003 0.137750
H10   H     H_    0.386602 0.342294 0.865907 0.138368
H11   H     H_    0.740480 0.587862 0.868146 0.234186
H12   H     H_    0.674632 0.746684 0.878743 0.186864
H13   H     H_    0.744524 0.576109 0.118485 0.209988
H14   H     H_    0.684534 0.738285 0.129178 0.188488
H15   H     H_    0.188760 0.774427 0.395548 0.135973
H16   H     H_    0.073556 0.479413 0.118527 0.124182
H17   H     H_    0.186871 0.578727 0.924337 0.140740
H18   H     H_    0.882052 0.593508 0.306984 0.148416
H19   H     H_    0.119500 0.404425 0.694083 0.147716
H20   H     H_    0.961270 0.485923 0.890741 0.129408
H21   H     H_    0.866833 0.370418 0.086018 0.129430
N1    N     N_R   0.500790 0.500930 0.147930 -0.202723
N2    N     N_R   0.500790 0.500890 0.852020 -0.180948
O1    O     O_R   0.500000 0.319640 0.618810 -0.581624
O2    O     O_R   0.500010 0.319680 0.381230 -0.582711
O3    O     O_R   0.319640 0.499990 0.618790 -0.591191
O4    O     O_R   0.319650 0.500030 0.381210 -0.563624
O5    O     O_R   0.499990 0.680320 0.618770 -0.582449
O6    O     O_R   0.500000 0.680360 0.381190 -0.584299
O7    O     O_R   0.680350 0.499970 0.618790 -0.572601
O8    O     O_R   0.680360 0.500010 0.381210 -0.591310
C37   C     C_1   0.293618 0.878615 0.705493 0.277676
N3    N     N_1   0.198663 0.836305 0.675753 -0.317004
H22   H     H_    0.326665 0.116664 0.711726 0.198387
C38   C     C_1   0.358270 0.323429 0.140936 0.279667
N4    N     N_1   0.295959 0.250664 0.194821 -0.309299

loop_
_geom_bond_atom_site_label_1
_geom_bond_atom_site_label_2
_ccdc_geom_bond_type
C27   H10   S    
C30   H13   S    
C16   C21   A    
C38   N4    T    
C35   C36   A    
C1    O1    A    
C13   H3    S    
Cu1   O1    S    
C7    C8    A    
C29   H11   S    
C25   C28   A    
C26   C27   A    
Cu1   Cu2   S    
C23   O5    A    
C28   C29   S    
C34   C35   A    
C5    C6    A    
C12   O3    A    
Cu1   O7    S    
C26   C38   S    
C2    C32   A    
C18   C19   A    
C23   O6    A    
C27   N2    A    
C2    H1    S    
C19   C20   A    
C16   C17   A    
C20   C23   S    
C37   N3    T    
C25   N1    A    
C9    C10   A    
C14   H4    S    
C28   N2    A    
Cu2   O8    S    
C16   C24   S    
C13   C14   A    
C35   H16   S    
C6    H19   S    
C31   O7    A    
C1    O2    A    
C33   C34   A    
C29   H12   S    
C33   H15   S    
C7    C12   S    
C3    C8    A    
C29   C30   S    
C3    H18   S    
Cu2   O4    S    
Cu1   O5    S    
C17   C18   A    
C8    C34   S    
C20   C21   A    
Cu2   N1    S    
C32   H9    S    
C22   C24   S    
C3    C4    A    
Cu1   O3    S    
C19   H6    S    
C24   H22   S    
Cu2   O2    S    
C2    C36   A    
C25   C30   S    
C30   H14   S    
C9    H20   S    
C4    C5    A    
Cu1   N2    S    
C6    C7    A    
C12   O4    A    
C1    C17   S    
C24   H8    S    
C32   C33   A    
C10   H21   S    
C9    C15   A    
C36   H17   S    
C18   H5    S    
C11   C13   A    
C11   H2    S    
C5    C15   S    
C4    C31   S    
C10   C11   A    
C31   O8    A    
C22   H7    S    
Cu2   O6    S    
C14   C15   A    
C21   C22   S    
C26   N1    A    
C22   C37   S    
