data_mof_unit_51210.cif
_audit_creation_date              2012-10-26T19:35:41-0400
_audit_creation_method            fapswitch 2.2
_symmetry_space_group_name_H-M    P1
_symmetry_Int_Tables_number       1
_space_group_crystal_system       triclinic
_cell_length_a                    15.893397
_cell_length_b                    10.803564
_cell_length_c                    9.585026
_cell_angle_alpha                 90.205753
_cell_angle_beta                  90.955942
_cell_angle_gamma                 90.99964
_cell_volume                      1645.30815192

loop_
_atom_site_label
_atom_site_type_symbol
_atom_type_description
_atom_site_fract_x
_atom_site_fract_y
_atom_site_fract_z
_atom_type_partial_charge
C1    C     C_R   0.499625 0.262732 0.499833 0.533810
C2    C     C_R   0.500934 0.129680 0.500298 0.004165
C3    C     C_R   0.540842 0.065574 0.393159 -0.156378
C4    C     C_R   0.340145 0.499408 0.499016 0.524752
C5    C     C_R   0.541579 0.936560 0.394124 -0.161445
C6    C     C_R   0.502176 0.870795 0.501808 0.002618
C7    C     C_R   0.469450 0.936369 0.613949 -0.002279
C8    C     C_3   0.387755 0.926188 0.690899 -0.098750
C9    C     C_3   0.387637 0.069774 0.691095 -0.090851
C10   C     C_R   0.562120 0.561000 0.075562 0.159479
C11   C     C_R   0.442902 0.429230 0.069465 0.114574
C12   C     C_3   0.084461 0.499950 0.499335 0.073758
C13   C     C_R   0.444528 0.429467 0.921378 0.013483
C14   C     C_R   0.561633 0.561651 0.928443 0.130015
C15   C     C_3   0.582593 0.696431 0.921832 -0.221948
C16   C     C_R   0.500023 0.737408 0.500285 0.536829
C17   C     C_3   0.582782 0.696714 0.080520 -0.060159
C18   C     C_R   0.659940 0.500409 0.501028 0.549397
C19   C     C_3   0.971107 0.387822 0.549822 -0.130503
C20   C     C_3   0.025324 0.409591 0.418483 0.079191
C21   C     C_1   0.250901 0.499300 0.497271 -0.039845
C22   C     C_1   0.749372 0.500474 0.503197 -0.022104
C23   C     C_3   0.974901 0.589791 0.584704 0.153614
C24   C     C_3   0.030077 0.481186 0.629343 0.084075
C25   C     C_3   0.315827 0.137896 0.613562 -0.256438
C26   C     C_3   0.248569 0.179737 0.714774 -0.447899
C27   C     C_3   0.374219 0.348412 0.130977 -0.246126
C28   C     C_3   0.287551 0.405563 0.109986 -0.441578
C29   C     C_3   0.319556 0.851242 0.607875 -0.262134
C30   C     C_3   0.234076 0.848117 0.678400 -0.428613
C31   C     C_3   0.916079 0.499233 0.503497 0.033234
C32   C     C_3   0.028349 0.608202 0.454291 0.137892
C33   C     C_3   0.970053 0.517889 0.372883 0.104102
C34   C     C_1   0.175680 0.499471 0.497563 -0.024848
C35   C     C_1   0.824712 0.500172 0.503979 -0.024286
C36   C     C_R   0.468535 0.063283 0.612560 0.007264
Cu1   Cu    Cu3+1 0.500000 0.499980 0.640670 0.928963
Cu2   Cu    Cu3+1 0.500000 0.500020 0.359330 0.917044
H1    H     H_    0.398501 0.888197 0.797335 0.121207
H2    H     H_    0.999964 0.267899 0.283908 0.231064
H3    H     H_    0.085122 0.353924 0.244283 0.220840
H4    H     H_    0.228630 0.103305 0.784389 0.152067
H5    H     H_    0.273605 0.257012 0.780809 0.139411
H6    H     H_    0.192916 0.213007 0.655185 0.154041
H7    H     H_    0.340848 0.222913 0.563749 0.154309
H8    H     H_    0.286687 0.081790 0.528348 0.154998
H9    H     H_    0.286744 0.500716 0.154010 0.179526
H10   H     H_    0.270411 0.409576 0.997327 0.134967
H11   H     H_    0.239429 0.348012 0.163423 0.138713
H12   H     H_    0.400711 0.108938 0.797032 0.126563
H13   H     H_    0.373933 0.256518 0.078208 0.091581
H14   H     H_    0.383529 0.327035 0.241239 0.211867
H15   H     H_    0.662785 0.711756 0.249249 0.258528
H16   H     H_    0.709801 0.660072 0.105114 0.245125
H17   H     H_    0.988521 0.543068 0.165772 0.222894
H18   H     H_    0.901840 0.459600 0.203409 0.227575
H19   H     H_    0.006570 0.779139 0.376022 0.258689
H20   H     H_    0.091974 0.710818 0.312474 0.222391
H21   H     H_    0.001443 0.730697 0.719718 0.247224
H22   H     H_    0.914618 0.647600 0.757517 0.227478
H23   H     H_    0.399452 0.374099 0.861387 0.120727
H24   H     H_    0.012280 0.450046 0.835500 0.222382
H25   H     H_    0.097131 0.381729 0.770288 0.226848
H26   H     H_    0.241565 0.839136 0.793331 0.147915
H27   H     H_    0.198133 0.932093 0.652853 0.162547
H28   H     H_    0.196455 0.767368 0.638803 0.173127
H29   H     H_    0.312980 0.883411 0.498394 0.145839
H30   H     H_    0.340502 0.754061 0.602442 0.171910
H31   H     H_    0.645231 0.714246 0.875226 0.151385
H32   H     H_    0.530627 0.751441 0.876044 0.130255
H33   H     H_    0.532295 0.753766 0.125272 0.155722
H34   H     H_    0.948178 0.297046 0.589222 0.119732
H35   H     H_    0.570313 0.114813 0.308129 0.139895
H36   H     H_    0.571804 0.888781 0.310032 0.141490
N1    N     N_R   0.500530 0.500930 0.147930 -0.234095
N2    N     N_R   0.500530 0.500890 0.852020 -0.247910
N3    N     N_3   0.053623 0.311621 0.326722 -0.635590
N4    N     N_3   0.666276 0.723798 0.141377 -0.635734
N5    N     N_3   0.937152 0.538341 0.232299 -0.629964
N6    N     N_3   0.059108 0.727375 0.403998 -0.628889
N7    N     N_3   0.947429 0.688809 0.675783 -0.607064
N8    N     N_3   0.063528 0.463993 0.770148 -0.641962
O1    O     O_R   0.500000 0.319640 0.618810 -0.496865
O2    O     O_R   0.500010 0.319680 0.381230 -0.525763
O3    O     O_R   0.379070 0.499970 0.618770 -0.506170
O4    O     O_R   0.379080 0.500010 0.381190 -0.511706
O5    O     O_R   0.499990 0.680320 0.618770 -0.505968
O6    O     O_R   0.500000 0.680360 0.381190 -0.511856
O7    O     O_R   0.620920 0.499990 0.618810 -0.487684
O8    O     O_R   0.620930 0.500030 0.381230 -0.495684

loop_
_geom_bond_atom_site_label_1
_geom_bond_atom_site_label_2
_ccdc_geom_bond_type
C28   H9    S    
C30   H26   S    
C7    C36   A    
C19   C20   S    
C19   C31   S    
C9    C25   S    
C7    C8    S    
C1    O2    A    
C22   C35   T    
C29   C30   S    
H18   N5    S    
C20   N3    S    
Cu2   O4    S    
C8    C29   S    
Cu1   O3    S    
C2    C3    A    
H3    N3    S    
C5    C6    A    
C4    O4    A    
C10   C17   S    
C32   N6    S    
C1    C2    S    
H22   N7    S    
C5    H36   S    
C24   N8    S    
C29   H29   S    
C8    C9    S    
C16   O5    A    
C23   C24   S    
C31   C33   S    
C8    H1    S    
H20   N6    S    
H24   N8    S    
C12   C32   S    
H19   N6    S    
C19   H34   S    
C27   H13   S    
C26   H5    S    
Cu2   N1    S    
C15   H31   S    
H25   N8    S    
C26   H6    S    
C18   O8    A    
C10   C14   A    
C33   N5    S    
C4    O3    A    
C25   C26   S    
Cu2   O6    S    
C28   H11   S    
C23   C31   S    
Cu1   Cu2   S    
C9    C36   S    
C29   H30   S    
H17   N5    S    
C10   N1    A    
C14   C15   S    
C13   N2    A    
C11   C27   S    
C12   C20   S    
C30   H28   S    
C20   C33   S    
Cu1   N2    S    
C17   H33   S    
C31   C35   S    
C12   C34   S    
C25   H7    S    
C27   H14   S    
C26   H4    S    
C2    C36   A    
C15   C17   S    
C15   H32   S    
Cu2   O8    S    
C28   H10   S    
C23   N7    S    
Cu2   O2    S    
C18   C22   S    
C18   O7    A    
Cu1   O5    S    
C9    H12   S    
H21   N7    S    
C3    C5    A    
C6    C7    A    
C21   C34   T    
C1    O1    A    
C12   C24   S    
Cu1   O7    S    
C23   C32   S    
C19   C24   S    
C11   N1    A    
C32   C33   S    
C4    C21   S    
C11   C13   A    
C17   N4    S    
H15   N4    S    
C3    H35   S    
C30   H27   S    
C6    C16   S    
C13   H23   S    
C27   C28   S    
C16   O6    A    
H2    N3    S    
Cu1   O1    S    
C25   H8    S    
C14   N2    A    
H16   N4    S    
