data_mof_unit_56046.cif
_audit_creation_date              2013-03-05T15:44:16-0500
_audit_creation_method            fapswitch 2.2
_symmetry_space_group_name_H-M    P1
_symmetry_Int_Tables_number       1
_space_group_crystal_system       triclinic
_cell_length_a                    19.699703
_cell_length_b                    11.049706
_cell_length_c                    19.500659
_cell_angle_alpha                 90.417829
_cell_angle_beta                  97.057421
_cell_angle_gamma                 89.906747
_cell_volume                      4212.5500194

loop_
_atom_site_label
_atom_site_type_symbol
_atom_site_description
_atom_site_fract_x
_atom_site_fract_y
_atom_site_fract_z
_atom_type_partial_charge
O1    O     O_R   0.783230 0.287800 0.346510 -0.510950
O2    O     O_R   0.216770 0.287800 0.653490 -0.436162
O3    O     O_R   0.283230 0.787800 0.346510 -0.510777
O4    O     O_R   0.716770 0.787800 0.653490 -0.436249
O5    O     O_R   0.760130 0.037060 0.338610 -0.474907
O6    O     O_R   0.239870 0.037060 0.661390 -0.504305
O7    O     O_R   0.260130 0.537060 0.338610 -0.474941
O8    O     O_R   0.739870 0.537060 0.661390 -0.504297
C1    C     C_R   0.725837 0.952557 0.360195 0.545340
C2    C     C_R   0.274144 0.949560 0.640549 0.587647
C3    C     C_R   0.225837 0.452557 0.360195 0.544825
C4    C     C_R   0.774144 0.449560 0.640549 0.588176
O9    O     O_R   0.666620 0.921370 0.332440 -0.523104
O10   O     O_R   0.333380 0.921370 0.667560 -0.503128
O11   O     O_R   0.166620 0.421370 0.332440 -0.523962
O12   O     O_R   0.833380 0.421370 0.667560 -0.502254
O13   O     O_R   0.557170 0.082420 0.312350 -0.526998
O14   O     O_R   0.442830 0.082420 0.687650 -0.515178
O15   O     O_R   0.057170 0.582420 0.312350 -0.528321
O16   O     O_R   0.942830 0.582420 0.687650 -0.513812
C5    C     C_R   0.535774 0.180687 0.338054 0.533440
C6    C     C_R   0.463551 0.179966 0.661448 0.544005
C7    C     C_R   0.035775 0.680687 0.338054 0.534669
C8    C     C_R   0.963552 0.679966 0.661448 0.542913
O17   O     O_R   0.548310 0.285980 0.316250 -0.457744
O18   O     O_R   0.451690 0.285980 0.683750 -0.477422
O19   O     O_R   0.048310 0.785980 0.316250 -0.457081
O20   O     O_R   0.951690 0.785980 0.683750 -0.478061
O21   O     O_R   0.680520 0.375500 0.327470 -0.470850
O22   O     O_R   0.319480 0.375500 0.672530 -0.444590
O23   O     O_R   0.180520 0.875500 0.327470 -0.471000
O24   O     O_R   0.819480 0.875500 0.672530 -0.444409
C9    C     C_R   0.738065 0.360202 0.362562 0.573760
C10   C     C_R   0.275157 0.311539 0.632208 0.547808
C11   C     C_R   0.238065 0.860202 0.362562 0.573304
C12   C     C_R   0.775157 0.811539 0.632208 0.547830
O25   O     O_R   0.780350 0.286970 0.193350 -0.471110
O26   O     O_R   0.219650 0.286970 0.806650 -0.464012
O27   O     O_R   0.280350 0.786970 0.193350 -0.470808
O28   O     O_R   0.719650 0.786970 0.806650 -0.464447
O29   O     O_R   0.757460 0.036290 0.196640 -0.475007
O30   O     O_R   0.242540 0.036290 0.803360 -0.475868
O31   O     O_R   0.257460 0.536290 0.196640 -0.476751
O32   O     O_R   0.742540 0.536290 0.803360 -0.473984
C13   C     C_R   0.722608 0.951177 0.164399 0.577392
C14   C     C_R   0.277237 0.951413 0.835505 0.591120
C15   C     C_R   0.222738 0.450937 0.164526 0.577237
C16   C     C_R   0.777367 0.451655 0.835632 0.591050
O33   O     O_R   0.663740 0.920540 0.179290 -0.474752
O34   O     O_R   0.336260 0.920540 0.820710 -0.463142
O35   O     O_R   0.163740 0.420540 0.179290 -0.469290
O36   O     O_R   0.836260 0.420540 0.820710 -0.469234
O37   O     O_R   0.554500 0.081650 0.170370 -0.439563
O38   O     O_R   0.445500 0.081650 0.829630 -0.446973
O39   O     O_R   0.054500 0.581650 0.170370 -0.448357
O40   O     O_R   0.945500 0.581650 0.829630 -0.438831
C17   C     C_R   0.531207 0.178414 0.141147 0.610297
C18   C     C_R   0.468470 0.179020 0.858975 0.617368
C19   C     C_R   0.031500 0.678586 0.140999 0.611551
C20   C     C_R   0.968793 0.678840 0.858813 0.616362
O41   O     O_R   0.545430 0.285140 0.163100 -0.506155
O42   O     O_R   0.454570 0.285140 0.836900 -0.502787
O43   O     O_R   0.045430 0.785140 0.163100 -0.505837
O44   O     O_R   0.954570 0.785140 0.836900 -0.503068
O45   O     O_R   0.677850 0.374730 0.185500 -0.485689
O46   O     O_R   0.322150 0.374730 0.814500 -0.476960
O47   O     O_R   0.177850 0.874730 0.185500 -0.484664
O48   O     O_R   0.822150 0.874730 0.814500 -0.477920
C21   C     C_R   0.736748 0.362034 0.165316 0.590044
C22   C     C_R   0.263246 0.362524 0.834689 0.606382
C23   C     C_R   0.236729 0.861981 0.165266 0.586084
C24   C     C_R   0.763225 0.862577 0.834638 0.610490
Cr1   Cr    Cr6+3 0.765830 0.160660 0.268180 1.120320
Cr2   Cr    Cr6+3 0.234170 0.160660 0.731820 1.143450
Cr3   Cr    Cr6+3 0.265830 0.660660 0.268180 1.120387
Cr4   Cr    Cr6+3 0.734170 0.660660 0.731820 1.143350
Cr5   Cr    Cr6+3 0.612110 0.009150 0.248770 1.106850
Cr6   Cr    Cr6+3 0.387890 0.009150 0.751230 1.130464
Cr7   Cr    Cr6+3 0.112110 0.509150 0.248770 1.103497
Cr8   Cr    Cr6+3 0.887890 0.509150 0.751230 1.133229
Cr9   Cr    Cr6+3 0.615930 0.324050 0.248450 1.128291
Cr10  Cr    Cr6+3 0.384070 0.324050 0.751550 1.136443
Cr11  Cr    Cr6+3 0.115930 0.824050 0.248450 1.128793
Cr12  Cr    Cr6+3 0.884070 0.824050 0.751550 1.135888
O49   O     O_3   0.664630 0.164620 0.255130 -0.284792
O50   O     O_3   0.335370 0.164620 0.744870 -0.321367
O51   O     O_3   0.164630 0.664620 0.255130 -0.284319
O52   O     O_3   0.835370 0.664620 0.744870 -0.321660
C25   C     C_1   0.482878 0.171950 0.593534 0.085839
C26   C     C_1   0.513637 0.174350 0.404784 0.041974
C27   C     C_1   0.982878 0.671950 0.593534 0.085761
C28   C     C_1   0.013637 0.674350 0.404784 0.042208
C29   C     C_1   0.502204 0.171104 0.463802 0.054867
C30   C     C_1   0.492345 0.169587 0.533890 0.074126
C31   C     C_1   0.002204 0.671104 0.463802 0.054874
C32   C     C_1   0.992346 0.669587 0.533890 0.074219
C33   C     C_3   0.698699 0.351400 0.528679 0.201071
C34   C     C_3   0.314516 0.430118 0.477223 0.202801
C35   C     C_3   0.198699 0.851401 0.528679 0.201135
C36   C     C_3   0.814516 0.930119 0.477223 0.202867
C37   C     C_3   0.748755 0.284019 0.486844 -0.143237
C38   C     C_3   0.309692 0.299051 0.501988 -0.211635
C39   C     C_3   0.248755 0.784019 0.486844 -0.143150
C40   C     C_3   0.809692 0.799051 0.501988 -0.211527
H1    H     H_    0.746611 0.189164 0.468964 0.156752
H2    H     H_    0.352126 0.232745 0.509216 0.163205
H3    H     H_    0.246611 0.689164 0.468964 0.156809
H4    H     H_    0.852126 0.732746 0.509217 0.163224
C41   C     C_3   0.742305 0.390299 0.434662 0.003008
C42   C     C_3   0.268459 0.346107 0.559447 -0.001032
C43   C     C_3   0.242305 0.890299 0.434662 0.002956
C44   C     C_3   0.768459 0.846107 0.559447 -0.001028
C45   C     C_3   0.691454 0.453502 0.476321 0.168850
C46   C     C_3   0.275298 0.475815 0.534999 0.196306
C47   C     C_3   0.191454 0.953503 0.476321 0.168896
C48   C     C_3   0.775298 0.975815 0.534999 0.196221
C49   C     C_3   0.751381 0.521780 0.516877 -0.139814
C50   C     C_3   0.206574 0.464536 0.487955 -0.151773
C51   C     C_3   0.251381 0.021780 0.516877 -0.139699
C52   C     C_3   0.706574 0.964536 0.487955 -0.151925
C53   C     C_3   0.802103 0.454595 0.475977 0.210471
C54   C     C_3   0.200997 0.332739 0.510931 0.265765
C55   C     C_3   0.302103 0.954594 0.475977 0.210415
C56   C     C_3   0.700997 0.832739 0.510930 0.265715
C57   C     C_3   0.810222 0.350633 0.528159 -0.106908
C58   C     C_3   0.240901 0.284160 0.453443 -0.144872
C59   C     C_3   0.310222 0.850633 0.528159 -0.106802
C60   C     C_3   0.740901 0.784160 0.453443 -0.144714
C61   C     C_3   0.758712 0.416404 0.568858 -0.004868
C62   C     C_3   0.246892 0.414975 0.430180 -0.052642
C63   C     C_3   0.258713 0.916404 0.568858 -0.004650
C64   C     C_3   0.746892 0.914975 0.430180 -0.052781
H5    H     H_    0.250619 0.112186 0.539247 0.138548
H6    H     H_    0.664412 0.031041 0.478319 0.141985
H7    H     H_    0.750619 0.612186 0.539247 0.138484
H8    H     H_    0.164412 0.531041 0.478319 0.142039
H9    H     H_    0.859422 0.310448 0.550784 0.202544
H10   H     H_    0.227998 0.208183 0.416931 0.198770
H11   H     H_    0.359422 0.810447 0.550784 0.202481
H12   H     H_    0.727998 0.708183 0.416931 0.198961
C65   C     C_3   0.526845 0.271328 0.975490 -0.174033
C66   C     C_3   0.471467 0.269557 0.026266 -0.181330
C67   C     C_3   0.028510 0.770063 0.974829 -0.180136
C68   C     C_3   0.973116 0.770818 0.025606 -0.175098
C69   C     C_3   0.565969 0.170351 0.017170 0.173211
C70   C     C_3   0.433244 0.168844 0.982759 0.171779
C71   C     C_3   0.066842 0.668846 0.017132 0.173219
C72   C     C_3   0.934125 0.670338 0.982702 0.172005
H13   H     H_    0.550622 0.352495 0.955178 0.171051
H14   H     H_    0.446799 0.349265 0.047877 0.168427
H15   H     H_    0.053020 0.850174 0.954200 0.169834
H16   H     H_    0.949158 0.851588 0.046891 0.169776
C73   C     C_3   0.511614 0.168903 0.068100 -0.033027
C74   C     C_3   0.487516 0.170965 0.932039 -0.028352
C75   C     C_3   0.012561 0.669902 0.067865 -0.026711
C76   C     C_3   0.988509 0.669949 0.931783 -0.034821
C77   C     C_3   0.473038 0.069759 0.024372 0.175299
C78   C     C_3   0.526928 0.071651 0.973828 0.174069
C79   C     C_3   0.973261 0.571164 0.024847 0.174798
C80   C     C_3   0.027169 0.570214 0.974300 0.174696
C81   C     C_1   0.762036 0.425174 0.903937 0.087796
C82   C     C_1   0.238358 0.423335 0.096369 0.093011
C83   C     C_1   0.261456 0.924351 0.903604 0.097505
C84   C     C_1   0.737771 0.924160 0.096038 0.083901
C85   C     C_1   0.748807 0.410219 0.035458 0.108423
C86   C     C_1   0.251848 0.409762 0.964944 0.107149
C87   C     C_1   0.248253 0.909385 0.035163 0.105988
C88   C     C_1   0.751260 0.910598 0.964646 0.107923
C89   C     C_1   0.754360 0.416314 0.964065 0.090308
C90   C     C_1   0.246409 0.414739 0.036324 0.103740
C91   C     C_1   0.253513 0.915307 0.963672 0.103982
C92   C     C_1   0.745538 0.915751 0.035931 0.089499
C93   C     C_1   0.744335 0.397257 0.096054 0.112890
C94   C     C_1   0.256005 0.397662 0.904205 0.103524
C95   C     C_1   0.244144 0.896792 0.095867 0.100325
C96   C     C_1   0.755800 0.898126 0.904017 0.115408
N1    N     N_R   0.644430 0.298994 0.563097 0.107079
O53   O     O_R   0.609636 0.367435 0.600642 -0.270218
O54   O     O_R   0.637962 0.182328 0.565559 -0.351395
N2    N     N_R   0.375578 0.485596 0.456227 0.127968
O55   O     O_R   0.430257 0.421082 0.452993 -0.274569
O56   O     O_R   0.375505 0.599430 0.439896 -0.330599
N3    N     N_R   0.144430 0.798995 0.563097 0.106900
O57   O     O_R   0.109637 0.867437 0.600642 -0.270712
O58   O     O_R   0.137962 0.682329 0.565559 -0.351743
N4    N     N_R   0.875578 0.985597 0.456228 0.128068
O59   O     O_R   0.930258 0.921083 0.452995 -0.274398
O60   O     O_R   0.875505 0.099430 0.439897 -0.330726
N5    N     N_R   0.627235 0.508172 0.446404 0.105788
O61   O     O_R   0.570486 0.481873 0.470485 -0.218687
O62   O     O_R   0.625587 0.577925 0.392857 -0.353750
N6    N     N_R   0.298696 0.572957 0.583155 0.083526
O63   O     O_R   0.363750 0.596869 0.594232 -0.298384
O64   O     O_R   0.259733 0.608719 0.628519 -0.264274
N7    N     N_R   0.127235 0.008173 0.446404 0.105796
O65   O     O_R   0.070486 0.981872 0.470484 -0.218659
O66   O     O_R   0.125587 0.077926 0.392857 -0.354125
N8    N     N_R   0.798696 0.072957 0.583155 0.083484
O67   O     O_R   0.863748 0.096870 0.594232 -0.298173
O68   O     O_R   0.759732 0.108717 0.628520 -0.263395
O69   O     O_3   0.853528 0.513479 0.444323 -0.574182
C97   C     C_3   0.907711 0.432317 0.437474 -0.103003
H17   H     H_    0.890278 0.340025 0.420898 0.193364
H18   H     H_    0.941883 0.426973 0.487051 0.101235
H19   H     H_    0.937585 0.466026 0.397056 0.138633
O70   O     O_3   0.142601 0.274695 0.530630 -0.498211
C98   C     C_3   0.083950 0.310915 0.486921 -0.034806
H20   H     H_    0.091049 0.303115 0.431315 0.162298
H21   H     H_    0.069459 0.404950 0.499538 0.096363
H22   H     H_    0.040867 0.250916 0.495894 0.196797
O71   O     O_3   0.353529 0.013478 0.444323 -0.574550
C99   C     C_3   0.407712 0.932315 0.437474 -0.103105
H23   H     H_    0.390278 0.840024 0.420898 0.193524
H24   H     H_    0.441883 0.926972 0.487050 0.101246
H25   H     H_    0.437585 0.966024 0.397055 0.138797
O72   O     O_3   0.642600 0.774694 0.530629 -0.498331
C100  C     C_3   0.583950 0.810914 0.486920 -0.034825
H26   H     H_    0.591049 0.803114 0.431314 0.162519
H27   H     H_    0.569459 0.904949 0.499537 0.096348
H28   H     H_    0.540867 0.750914 0.495893 0.196765
N9    N     N_R   0.639750 0.169277 0.032942 0.061709
O73   O     O_R   0.667687 0.163046 0.096422 -0.358910
O74   O     O_R   0.677980 0.169987 0.983156 -0.353679
N10   N     N_R   0.359496 0.166899 0.967150 0.063366
O75   O     O_R   0.331427 0.164208 0.903604 -0.361060
O76   O     O_R   0.321451 0.164795 0.017077 -0.371753
N11   N     N_R   0.140586 0.666618 0.032768 0.064621
O77   O     O_R   0.168601 0.662543 0.096282 -0.354495
O78   O     O_R   0.178667 0.664963 0.982849 -0.366668
N12   N     N_R   0.860341 0.669557 0.966951 0.060756
O79   O     O_R   0.832365 0.664715 0.903401 -0.365326
O80   O     O_R   0.822135 0.669778 0.016763 -0.358004
N13   N     N_R   0.441241 0.961913 0.048889 0.121660
O81   O     O_R   0.438804 0.945958 0.114521 -0.315998
O82   O     O_R   0.411993 0.883848 0.004620 -0.282894
N14   N     N_R   0.558896 0.967785 0.944253 0.108342
O83   O     O_R   0.550801 0.859547 0.967618 -0.266527
O84   O     O_R   0.596516 0.983352 0.894729 -0.314619
N15   N     N_R   0.941441 0.466788 0.053110 0.108428
O85   O     O_R   0.949507 0.358963 0.028240 -0.266616
O86   O     O_R   0.903929 0.481507 0.102932 -0.325181
N16   N     N_R   0.059221 0.462857 0.948510 0.121824
O87   O     O_R   0.062360 0.448325 0.882763 -0.305999
O88   O     O_R   0.088309 0.384123 0.991856 -0.283986

loop_
_geom_bond_atom_site_label_1
_geom_bond_atom_site_label_2
_geom_bond_distance
_ccdc_geom_bond_type
C18   O42   1.269891 A    
Cr11  O51   2.001983 S    
O4    C12   1.297649 A    
O47   Cr11  1.920586 S    
C29   C30   1.404130 S    
O39   C19   1.274440 A    
O20   Cr12  2.030354 S    
O69   C97   1.411248 S    
C54   O70   1.413115 S    
O15   C7    1.284678 A    
C31   C32   1.404128 S    
C36   C48   1.524978 S    
C36   C40   1.536759 S    
C68   C72   1.534273 S    
C41   C53   1.517452 S    
N10   O75   1.293593 A    
O29   Cr1   1.943770 S    
O26   C22   1.270357 A    
O1    C9    1.261789 A    
C70   C77   1.525005 S    
C100  H28   1.109283 S    
O5    C1    1.258198 A    
C51   H5    1.087961 S    
C97   H18   1.109994 S    
O36   Cr8   2.046984 S    
O24   C12   1.305888 A    
C13   C84   1.430795 S    
C44   C56   1.540379 S    
O25   C21   1.270243 A    
N3    O58   1.297429 A    
C50   C54   1.534869 S    
C79   N15   1.457178 S    
C65   C74   1.541380 S    
C34   C46   1.524978 S    
O47   C23   1.277505 A    
C69   N9    1.448247 S    
C58   C62   1.527217 S    
C37   C41   1.554323 S    
C67   C68   1.560982 S    
N14   O84   1.300083 A    
O21   C9    1.261909 A    
O8    Cr4   1.942734 S    
O39   Cr7   1.963594 S    
N14   O83   1.299948 A    
C39   C43   1.554324 S    
O30   C14   1.280989 A    
N10   O76   1.299939 A    
C25   C30   1.200463 T    
O32   Cr4   1.957729 S    
N11   O77   1.293615 A    
C66   C70   1.535320 S    
C2    C63   1.438604 S    
O44   Cr12  2.079506 S    
C51   C55   1.539621 S    
C1    O9    1.271218 A    
C18   C74   1.431475 S    
C78   N14   1.457277 S    
C27   C32   1.200463 T    
C15   C82   1.431270 S    
C3    O11   1.271218 A    
C55   C59   1.535295 S    
C77   C78   1.535068 S    
O11   Cr7   2.084523 S    
C4    O12   1.259515 A    
C33   C45   1.521885 S    
O28   Cr4   2.056864 S    
N1    O54   1.297428 A    
C97   H19   1.106924 S    
C55   O71   1.411504 S    
C12   C44   1.462295 S    
C98   H22   1.109284 S    
N16   O88   1.299938 A    
N13   O82   1.299933 A    
C38   C58   1.562977 S    
O6    Cr2   1.942734 S    
N8    O67   1.300394 A    
C7    O19   1.276456 A    
O1    Cr1   2.065419 S    
C71   C75   1.543396 S    
N13   O81   1.299932 A    
Cr4   O52   1.979041 S    
C35   N3    1.453513 S    
O2    Cr2   2.079760 S    
C65   C69   1.534949 S    
C56   C60   1.539230 S    
C81   C89   1.205234 T    
C49   C61   1.544284 S    
Cr6   O50   2.000701 S    
C40   H4    1.107247 S    
C67   H15   1.110354 S    
O42   Cr10  2.079506 S    
Cr5   O49   2.002038 S    
O18   Cr10  2.030354 S    
N9    O74   1.299858 A    
C52   C64   1.552277 S    
O31   Cr3   1.943770 S    
N12   O79   1.293709 A    
C21   C93   1.433714 S    
C71   C80   1.524904 S    
C60   C64   1.527218 S    
Cr7   O51   2.002038 S    
C65   H13   1.110322 S    
N2    O56   1.299721 A    
C20   O44   1.271840 A    
O7    C3    1.258198 A    
C59   C63   1.541033 S    
C5    C26   1.424539 S    
N15   O85   1.299947 A    
C85   C89   1.411946 S    
O24   Cr12  1.960955 S    
O9    Cr5   2.084523 S    
C86   C94   1.203741 T    
C37   H1    1.101408 S    
O30   Cr2   1.957729 S    
C97   H17   1.109711 S    
O22   C10   1.305888 A    
C75   C79   1.524221 S    
C98   H20   1.112948 S    
O48   Cr12  1.914198 S    
O16   C8    1.284597 A    
C76   C80   1.528837 S    
C46   N6    1.458433 S    
O72   C100  1.408224 S    
C5    O17   1.276457 A    
C4    C61   1.438606 S    
C40   C44   1.549000 S    
O16   Cr8   1.926477 S    
O70   C98   1.408222 S    
C15   O35   1.277264 A    
C83   C91   1.205563 T    
O26   Cr2   2.056864 S    
C57   H9    1.107978 S    
C100  H26   1.112947 S    
Cr10  O50   2.003059 S    
C17   C73   1.432460 S    
C51   C63   1.544285 S    
C28   C31   1.200372 T    
O13   C5    1.284675 A    
C48   C52   1.543939 S    
C50   H8    1.107631 S    
O43   Cr11  2.075418 S    
O48   C24   1.277891 A    
O12   Cr8   2.075056 S    
C72   C79   1.524927 S    
N6    O64   1.299484 A    
C54   C58   1.539231 S    
O37   Cr5   1.963594 S    
N3    O57   1.300513 A    
C20   C76   1.432294 S    
O71   C99   1.411248 S    
C53   C57   1.535296 S    
N9    O73   1.293741 A    
C50   C62   1.552274 S    
O34   Cr6   2.046984 S    
O46   Cr10  1.914198 S    
C48   N8    1.458432 S    
O3    C11   1.261788 A    
C33   N1    1.453513 S    
C79   C80   1.535092 S    
C82   C90   1.203820 T    
C99   H25   1.106924 S    
C13   O33   1.276420 A    
O8    C4    1.270988 A    
C33   C37   1.542301 S    
C34   C62   1.530492 S    
O13   Cr5   1.917374 S    
N16   O87   1.299940 A    
O23   Cr11  1.955632 S    
N15   O86   1.300075 A    
O7    Cr3   1.957023 S    
C7    C28   1.424540 S    
Cr2   O50   1.979041 S    
N12   O80   1.299865 A    
C41   C45   1.529913 S    
C22   C94   1.431237 S    
Cr1   O49   1.978979 S    
C46   C50   1.543939 S    
C45   C49   1.533991 S    
C43   C47   1.529914 S    
Cr3   O51   1.978979 S    
O14   Cr6   1.926477 S    
N11   O78   1.299940 A    
C99   H24   1.109994 S    
O21   Cr9   1.955633 S    
C86   C90   1.409810 S    
O27   Cr3   2.071882 S    
C14   C83   1.434274 S    
C57   C61   1.541033 S    
C2    O10   1.259516 A    
C10   C42   1.462297 S    
C8    O20   1.277747 A    
O23   C11   1.261909 A    
C84   C92   1.203491 T    
C70   C74   1.543434 S    
N4    O60   1.299722 A    
C49   H7    1.087962 S    
C8    C27   1.424371 S    
C42   C46   1.525115 S    
C44   C48   1.525117 S    
C11   C43   1.434854 S    
N2    O55   1.298446 A    
C26   C29   1.200373 T    
C87   C95   1.205494 T    
C70   N10   1.447456 S    
C56   O72   1.413115 S    
C1    C64   1.440718 S    
C69   C73   1.547523 S    
C88   C96   1.203498 T    
C43   C55   1.517453 S    
O25   Cr1   2.071882 S    
C58   H10   1.106293 S    
C71   N11   1.447470 S    
O22   Cr10  1.960955 S    
O28   C24   1.270141 A    
O2    C10   1.297649 A    
O14   C6    1.284599 A    
C19   O43   1.269600 A    
C35   C39   1.542299 S    
O5    Cr1   1.957023 S    
Cr12  O52   2.003059 S    
C39   C59   1.552963 S    
O17   Cr9   2.035242 S    
O37   C17   1.273405 A    
O6    C2    1.270987 A    
C87   C91   1.412597 S    
C36   C64   1.530491 S    
C17   O41   1.271513 A    
C16   C81   1.433808 S    
C49   C53   1.539621 S    
C100  H27   1.110963 S    
C45   N5    1.458436 S    
C14   O34   1.277210 A    
C47   C51   1.533991 S    
O40   Cr8   1.955988 S    
C19   C75   1.431699 S    
C35   C63   1.514755 S    
C36   N4    1.455161 S    
C47   N7    1.458436 S    
C88   C92   1.409135 S    
C80   N16   1.457988 S    
N6    O63   1.300395 A    
C66   H14   1.110404 S    
C68   C75   1.542586 S    
N8    O68   1.299484 A    
O38   Cr6   1.955988 S    
O3    Cr3   2.065419 S    
O15   Cr7   1.917374 S    
C67   C71   1.535977 S    
C68   H16   1.110372 S    
O32   C16   1.281305 A    
O41   Cr9   2.075418 S    
O33   Cr5   2.035917 S    
C42   C54   1.540377 S    
C35   C47   1.521885 S    
C69   C78   1.524751 S    
C53   O69   1.411503 S    
C77   N13   1.457860 S    
C67   C76   1.541454 S    
O46   C22   1.277982 A    
O31   C15   1.279756 A    
O45   C21   1.277392 A    
O19   Cr11  2.035242 S    
C6    C25   1.424371 S    
C23   C95   1.434272 S    
C38   H2    1.107247 S    
C9    C41   1.434854 S    
C52   H6    1.107631 S    
C40   C60   1.562976 S    
O10   Cr6   2.075056 S    
C66   C73   1.542665 S    
C73   C77   1.527945 S    
N5    O61   1.298770 A    
C24   C96   1.430674 S    
O35   Cr7   2.035917 S    
O4    Cr4   2.079760 S    
C38   C42   1.549000 S    
C34   C38   1.536757 S    
C33   C61   1.514754 S    
N7    O65   1.298771 A    
O40   C20   1.271312 A    
C16   O36   1.276364 A    
C72   N12   1.448245 S    
C99   H23   1.109712 S    
Cr8   O52   2.000701 S    
N1    O53   1.300513 A    
C6    O18   1.277745 A    
O38   C18   1.272312 A    
C98   H21   1.110963 S    
C74   C78   1.525098 S    
O29   C13   1.280070 A    
O45   Cr9   1.920586 S    
C39   H3    1.101409 S    
C72   C76   1.547607 S    
C3    C62   1.440718 S    
N5    O62   1.299522 A    
N4    O59   1.298446 A    
C65   C66   1.561002 S    
C85   C93   1.205269 T    
C34   N2    1.455163 S    
C37   C57   1.552963 S    
C59   H11   1.107979 S    
Cr9   O49   2.001983 S    
C52   C56   1.534869 S    
C60   H12   1.106294 S    
N7    O66   1.299522 A    
O27   C23   1.270433 A    
