data_mof_unit_6934.cif
_audit_creation_date              2012-10-26T20:13:55-0400
_audit_creation_method            fapswitch 2.2
_symmetry_space_group_name_H-M    P1
_symmetry_Int_Tables_number       1
_space_group_crystal_system       triclinic
_cell_length_a                    8.825195
_cell_length_b                    10.866035
_cell_length_c                    9.589993
_cell_angle_alpha                 91.052564
_cell_angle_beta                  98.101122
_cell_angle_gamma                 92.34044
_cell_volume                      909.4240601

loop_
_atom_site_label
_atom_site_type_symbol
_atom_type_description
_atom_site_fract_x
_atom_site_fract_y
_atom_site_fract_z
_atom_type_partial_charge
C1    C     C_R   0.493371 0.262438 0.497961 0.580697
C2    C     C_R   0.532578 0.606071 0.934380 0.138506
C3    C     C_3   0.679552 0.684429 0.962534 -0.163463
C4    C     C_R   0.204197 0.499230 0.463609 0.562296
C5    C     C_3   0.664744 0.689072 0.117672 -0.239930
C6    C     C_R   0.491719 0.737577 0.499298 0.559784
C7    C     C_R   0.795833 0.498522 0.535621 0.578805
C8    C     C_2   0.039079 0.501088 0.442287 0.330709
C9    C     C_2   0.960971 0.492801 0.552627 -0.108310
C10   C     C_R   0.464576 0.066051 0.617339 0.012482
C11   C     C_R   0.470184 0.129237 0.493239 -0.014552
C12   C     C_R   0.439661 0.932373 0.365489 0.354643
C13   C     C_R   0.443973 0.061539 0.365165 -0.115504
C14   C     C_R   0.825619 0.628289 0.934615 0.061333
C15   C     C_R   0.934835 0.703250 0.878926 -0.082409
C16   C     C_R   0.080056 0.661100 0.870671 -0.098789
C17   C     C_R   0.116154 0.543746 0.916710 -0.095390
C18   C     C_R   0.008270 0.467023 0.969189 -0.053099
C19   C     C_R   0.863093 0.509077 0.978721 0.010879
C20   C     C_R   0.466234 0.870145 0.494661 0.022203
C21   C     C_R   0.462414 0.939227 0.617954 -0.094930
C22   C     C_3   0.562534 0.939466 0.755899 -0.211238
C23   C     C_3   0.565372 0.078425 0.755645 0.272618
C24   C     C_R   0.526851 0.606708 0.080811 0.188137
C25   C     C_R   0.462755 0.395994 0.067128 -0.028836
C26   C     C_R   0.463393 0.395874 0.918955 -0.032433
Cu1   Cu    Cu3+1 0.499990 0.499980 0.640670 0.958014
Cu2   Cu    Cu3+1 0.500010 0.500020 0.359330 1.030689
F1    F     F_    0.968179 0.513095 0.308080 -0.646679
F2    F     F_    0.415044 0.870150 0.239937 -0.646613
F3    F     F_    0.709269 0.129743 0.744015 -0.623198
H1    H     H_    0.428819 0.312584 0.858416 0.125675
H2    H     H_    0.431957 0.311541 0.115948 0.121604
H3    H     H_    0.909487 0.795808 0.845955 0.112039
H4    H     H_    0.164632 0.719140 0.828714 0.129701
H5    H     H_    0.226095 0.511210 0.907308 0.133971
H6    H     H_    0.037807 0.375706 0.003815 0.133796
H7    H     H_    0.782510 0.450385 0.024649 0.148117
H8    H     H_    0.667829 0.776458 0.920677 0.105481
H9    H     H_    0.757058 0.645779 0.188350 0.210184
H10   H     H_    0.637236 0.781645 0.154887 0.190912
H11   H     H_    0.019642 0.479227 0.657342 0.086258
H12   H     H_    0.433471 0.107715 0.265368 0.143278
H13   H     H_    0.497991 0.901967 0.838322 0.106236
H14   H     H_    0.675780 0.901634 0.746091 0.161168
H15   H     H_    0.509936 0.119260 0.841329 0.102503
N1    N     N_R   0.500980 0.500930 0.148050 -0.239912
N2    N     N_R   0.500990 0.500890 0.852140 -0.248199
O1    O     O_R   0.500000 0.319640 0.618810 -0.479981
O2    O     O_R   0.500020 0.319680 0.381230 -0.532342
O3    O     O_R   0.274830 0.499980 0.591380 -0.561120
O4    O     O_R   0.274850 0.500020 0.353800 -0.450811
O5    O     O_R   0.499980 0.680320 0.618770 -0.523415
O6    O     O_R   0.500000 0.680360 0.381190 -0.448907
O7    O     O_R   0.725150 0.499980 0.646200 -0.491163
O8    O     O_R   0.725170 0.500020 0.408620 -0.441493

loop_
_geom_bond_atom_site_label_1
_geom_bond_atom_site_label_2
_ccdc_geom_bond_type
Cu1   N2    S    
Cu1   O5    S    
Cu2   N1    S    
C26   H1    S    
C19   H7    S    
C26   N2    A    
C10   C23   S    
C6    C20   S    
C1    O2    A    
C25   N1    A    
C15   H3    S    
C1    C11   S    
C7    O7    A    
C4    C8    S    
C12   F2    S    
C12   C20   A    
C13   H12   S    
C5    C24   S    
C2    C3    S    
Cu2   O8    S    
C3    H8    S    
C10   C21   A    
C23   H15   S    
C21   C22   S    
C20   C21   A    
Cu2   O4    S    
C9    H11   S    
C3    C14   S    
C1    O1    A    
C7    O8    A    
C6    O6    A    
C8    F1    S    
C17   H5    S    
C18   H6    S    
Cu1   O3    S    
C17   C18   A    
C4    O4    A    
C16   H4    S    
C2    C24   A    
Cu1   O7    S    
C10   C11   A    
C6    O5    A    
C15   C16   A    
C11   C13   A    
C22   H14   S    
C12   C13   A    
C18   C19   A    
C5    H9    S    
Cu1   Cu2   S    
C7    C9    S    
C5    H10   S    
C22   C23   S    
C8    C9    D    
Cu2   O6    S    
C4    O3    A    
C2    N2    A    
C25   C26   A    
C14   C15   A    
C24   N1    A    
Cu2   O2    S    
C14   C19   A    
C22   H13   S    
Cu1   O1    S    
C25   H2    S    
C16   C17   A    
C3    C5    S    
C23   F3    S    
