data_mof_unit_25589.cif
_audit_creation_date              2012-12-10T16:59:14-0500
_audit_creation_method            fapswitch 2.2
_symmetry_space_group_name_H-M    P1
_symmetry_Int_Tables_number       1
_space_group_crystal_system       triclinic
_cell_length_a                    7.740789
_cell_length_b                    8.558206
_cell_length_c                    27.722516
_cell_angle_alpha                 91.037144
_cell_angle_beta                  85.94546
_cell_angle_gamma                 93.759164
_cell_volume                      1827.83562381

loop_
_atom_site_label
_atom_site_type_symbol
_atom_type_description
_atom_site_fract_x
_atom_site_fract_y
_atom_site_fract_z
_atom_type_partial_charge
C1    C     C_R   0.545948 0.794861 0.498735 0.975411
C2    C     C_R   0.512030 0.642251 0.128145 -0.025786
C3    C     C_R   0.508419 0.500291 0.646493 -0.077630
C4    C     C_R   0.491580 0.499700 0.353507 -0.077633
C5    C     C_R   0.532954 0.643205 0.025894 0.047608
C6    C     C_R   0.467066 0.356771 0.974107 0.047610
C7    C     C_R   0.454090 0.358061 0.025384 0.047670
C8    C     C_R   0.545914 0.641917 0.974616 0.047673
C9    C     C_R   0.488249 0.501076 0.050916 0.072793
C10   C     C_R   0.511762 0.498901 0.949084 0.072792
C11   C     C_R   0.562454 0.782458 0.053327 -0.226287
C12   C     C_R   0.454052 0.205139 0.501265 0.975410
C13   C     C_R   0.437592 0.217514 0.946673 -0.226284
C14   C     C_R   0.552367 0.781527 0.103386 -0.138647
C15   C     C_R   0.447680 0.218444 0.896614 -0.138645
C16   C     C_R   0.502542 0.500047 0.593937 0.885700
C17   C     C_R   0.497458 0.499951 0.406063 0.885701
C18   C     C_R   0.592965 0.779147 0.947674 -0.226498
C19   C     C_R   0.407012 0.220836 0.052325 -0.226504
C20   C     C_2   0.570211 0.958360 0.498001 -0.371736
C21   C     C_2   0.429789 0.041640 0.501999 -0.371735
C22   C     C_R   0.566738 0.635640 0.821877 0.506366
C23   C     C_R   0.521703 0.498127 0.897819 -0.050859
C24   C     C_R   0.433241 0.364339 0.178124 0.506365
C25   C     C_R   0.493049 0.360506 0.821380 0.509807
C26   C     C_R   0.506973 0.639466 0.178620 0.509812
C27   C     C_R   0.672435 0.491264 0.717226 -0.143655
C28   C     C_R   0.327569 0.508756 0.282774 -0.143653
C29   C     C_R   0.667275 0.490985 0.667323 -0.213604
C30   C     C_R   0.332731 0.509045 0.332677 -0.213611
C31   C     C_R   0.354917 0.510330 0.676188 -0.213230
C32   C     C_R   0.645071 0.489612 0.323812 -0.213231
C33   C     C_R   0.358949 0.511209 0.726393 0.238918
C34   C     C_R   0.478305 0.501849 0.102181 -0.050858
C35   C     C_R   0.641037 0.488725 0.273607 0.238907
C36   C     C_R   0.519569 0.500903 0.746746 0.327688
C37   C     C_R   0.480425 0.499070 0.253254 0.327693
C38   C     C_3   0.190960 0.523037 0.756777 -0.870968
C39   C     C_3   0.809017 0.476851 0.243223 -0.870950
C40   C     C_R   0.564197 0.637955 0.872355 -0.023336
C41   C     C_R   0.435790 0.362025 0.127644 -0.023339
C42   C     C_R   0.601065 0.776924 0.897613 -0.141377
C43   C     C_R   0.398905 0.223059 0.102387 -0.141379
C44   C     C_R   0.487995 0.357722 0.871855 -0.025786
H1    H     H_    0.231473 0.517712 0.660450 0.167625
H2    H     H_    0.795235 0.483542 0.733152 0.143924
H3    H     H_    0.577907 0.891005 0.122638 0.194656
H4    H     H_    0.422157 0.108963 0.877363 0.194651
H5    H     H_    0.594089 0.895434 0.037557 0.140328
H6    H     H_    0.405984 0.104535 0.962444 0.140317
H7    H     H_    0.625142 0.891431 0.963844 0.141140
H8    H     H_    0.374812 0.108559 0.036155 0.141152
H9    H     H_    0.702748 0.009629 0.494185 0.180652
H10   H     H_    0.297252 0.990371 0.505815 0.180652
H11   H     H_    0.102559 0.418968 0.749729 0.242330
H12   H     H_    0.768509 0.482199 0.339550 0.167628
H13   H     H_    0.209104 0.529449 0.796083 0.242616
H14   H     H_    0.128263 0.630104 0.747070 0.247105
H15   H     H_    0.897446 0.580902 0.250269 0.242313
H16   H     H_    0.871681 0.369770 0.252933 0.247124
H17   H     H_    0.790871 0.470436 0.203917 0.242612
H18   H     H_    0.014155 0.383070 0.463405 0.191410
H19   H     H_    0.985845 0.616930 0.536595 0.191409
H20   H     H_    0.636221 0.885433 0.878750 0.191966
H21   H     H_    0.363729 0.114553 0.121250 0.191973
H22   H     H_    0.212542 0.516638 0.354850 0.167599
H23   H     H_    0.787472 0.483431 0.645150 0.167592
H24   H     H_    0.204776 0.516510 0.266847 0.143922
N1    N     N_R   0.528778 0.498658 0.797810 -0.360320
N2    N     N_R   0.471220 0.501317 0.202190 -0.360320
N3    N     N_2   0.950320 0.457960 0.486880 -0.175965
N4    N     N_2   0.049680 0.542040 0.513120 -0.175965
O1    O     O_R   0.389250 0.738570 0.503220 -0.611676
O2    O     O_2   0.395706 0.230869 0.203036 -0.531855
O3    O     O_2   0.539767 0.772865 0.204049 -0.527651
O4    O     O_2   0.460276 0.227103 0.795951 -0.527641
O5    O     O_R   0.610750 0.261430 0.496780 -0.611676
O6    O     O_R   0.678390 0.711630 0.494810 -0.629299
O7    O     O_R   0.321610 0.288370 0.505190 -0.629300
O8    O     O_R   0.355440 0.513440 0.575450 -0.622839
O9    O     O_R   0.644560 0.486560 0.424550 -0.622839
O10   O     O_R   0.644590 0.486500 0.567040 -0.629621
O11   O     O_R   0.355410 0.513500 0.432960 -0.629622
O12   O     O_2   0.604247 0.769114 0.796964 -0.531847
Zn1   Zn    Zn3+2 0.306940 0.517990 0.505620 0.949517
Zn2   Zn    Zn3+2 0.693060 0.482010 0.494380 0.949517

loop_
_geom_bond_atom_site_label_1
_geom_bond_atom_site_label_2
_ccdc_geom_bond_type
C1    O6    A    
C27   C29   A    
N4    Zn1   S    
C24   N2    A    
C28   H24   S    
C15   C44   A    
C5    C11   A    
C18   C42   A    
C21   H10   S    
C11   C14   A    
C23   C40   A    
C38   H13   S    
C12   O7    A    
C33   C36   A    
C3    C29   A    
C10   C23   A    
C29   H23   S    
C14   H3    S    
C19   H8    S    
C38   H11   S    
C31   C33   A    
C22   N1    A    
O9    Zn2   S    
C2    C34   A    
C40   C42   A    
C22   C40   A    
C38   H14   S    
C37   N2    S    
C24   C41   A    
C41   C43   A    
C34   C41   A    
C15   H4    S    
C25   C44   A    
C19   C43   A    
C18   H7    S    
C39   H17   S    
C32   C35   A    
O10   Zn2   S    
C12   C21   S    
C8    C18   A    
C23   C44   A    
C16   O8    A    
C22   O12   S    
C35   C39   S    
C5    C9    A    
O8    Zn1   S    
C11   H5    S    
N3    Zn2   S    
C43   H21   S    
C39   H15   S    
C12   O5    A    
C16   O10   A    
C26   O3    S    
C2    C26   A    
C30   H22   S    
H19   N4    S    
C3    C31   A    
O1    Zn1   S    
C4    C32   A    
C4    C17   S    
C27   H2    S    
O11   Zn1   S    
O5    Zn2   S    
C7    C19   A    
C13   C15   A    
C9    C34   A    
C26   N2    A    
C25   N1    A    
C42   H20   S    
O7    Zn1   S    
C36   N1    S    
C7    C9    A    
C1    C20   S    
C35   C37   A    
C20   H9    S    
C6    C10   A    
C5    C8    A    
C6    C7    A    
C27   C36   A    
C33   C38   S    
C25   O4    S    
C1    O1    A    
C28   C30   A    
N3    N4    D    
C6    C13   A    
C24   O2    S    
C28   C37   A    
C39   H16   S    
H18   N3    S    
C17   O9    A    
C2    C14   A    
C13   H6    S    
C20   C21   D    
C8    C10   A    
O6    Zn2   S    
C31   H1    S    
C17   O11   A    
C32   H12   S    
C4    C30   A    
C3    C16   S    
