data_mof_unit_20309.cif
_audit_creation_date              2013-03-05T15:45:10-0500
_audit_creation_method            fapswitch 2.2
_symmetry_space_group_name_H-M    P1
_symmetry_Int_Tables_number       1
_space_group_crystal_system       triclinic
_cell_length_a                    11.553411
_cell_length_b                    11.513538
_cell_length_c                    19.56133
_cell_angle_alpha                 90.633464
_cell_angle_beta                  90.049529
_cell_angle_gamma                 59.912753
_cell_volume                      2251.2962914

loop_
_atom_site_label
_atom_site_type_symbol
_atom_site_description
_atom_site_fract_x
_atom_site_fract_y
_atom_site_fract_z
_atom_type_partial_charge
O1    O     O_R   0.267740 0.231990 0.575440 -0.502465
O2    O     O_R   0.527280 0.186680 0.570530 -0.494059
C1    C     C_R   0.640337 0.117678 0.599256 0.550957
O3    O     O_R   0.728090 0.003480 0.576380 -0.494325
O4    O     O_R   0.682970 0.789220 0.570490 -0.495334
C2    C     C_R   0.612312 0.746252 0.598680 0.541634
O5    O     O_R   0.499290 0.771920 0.575530 -0.501609
O6    O     O_R   0.285330 0.030900 0.569730 -0.487512
C3    C     C_R   0.240821 0.145537 0.598189 0.550059
O7    O     O_R   0.270980 0.227040 0.423900 -0.528966
O8    O     O_R   0.530280 0.182090 0.430050 -0.509676
C4    C     C_R   0.643674 0.110080 0.401457 0.557786
O9    O     O_R   0.731330 0.998530 0.424830 -0.484918
O10   O     O_R   0.685970 0.784630 0.430010 -0.508249
C5    C     C_R   0.615064 0.742121 0.401755 0.534125
O11   O     O_R   0.502530 0.766960 0.423990 -0.486434
O12   O     O_R   0.288330 0.026310 0.429250 -0.448347
C6    C     C_R   0.245168 0.140252 0.400691 0.571665
Cr1   Cr    Cr6+3 0.404720 0.198220 0.499960 1.046139
Cr2   Cr    Cr6+3 0.698290 0.897110 0.500380 1.064605
Cr3   Cr    Cr6+3 0.396970 0.904720 0.499610 1.102247
O13   O     O_3   0.499990 0.000020 0.499980 -0.281647
C7    C     C_1   0.670447 0.646444 0.860081 0.009911
C8    C     C_1   0.654610 0.683926 0.728434 -0.028105
C9    C     C_1   0.663417 0.666739 0.799675 -0.027368
C10   C     C_1   0.641032 0.704225 0.668030 0.007392
C11   C     C_1   0.126828 0.198402 0.859267 0.009624
C12   C     C_1   0.171435 0.170480 0.727693 -0.027745
C13   C     C_1   0.150196 0.182075 0.798908 -0.027043
C14   C     C_1   0.195150 0.161331 0.667378 0.008043
C15   C     C_1   0.678860 0.190956 0.860774 0.010722
C16   C     C_1   0.658271 0.167556 0.729057 -0.027738
C17   C     C_1   0.665756 0.180799 0.800353 -0.026823
C18   C     C_1   0.652558 0.150226 0.668656 0.007609
C19   C     C_R   0.529986 0.784122 0.286524 -0.092478
H1    H     H_    0.433389 0.859946 0.305777 0.167111
C20   C     C_R   0.546467 0.760320 0.217264 -0.105696
H2    H     H_    0.461749 0.812003 0.183440 0.154157
C21   C     C_R   0.671272 0.664429 0.192621 0.047240
C22   C     C_R   0.782072 0.598846 0.236358 -0.096772
H3    H     H_    0.879642 0.523491 0.217345 0.166376
C23   C     C_R   0.765029 0.622456 0.305880 -0.134288
H4    H     H_    0.849130 0.569971 0.340025 0.136770
C24   C     C_R   0.637521 0.710506 0.330773 0.032340
C25   C     C_R   0.215143 0.255187 0.292751 -0.169661
H5    H     H_    0.246554 0.319770 0.317125 0.194301
C26   C     C_R   0.199163 0.265176 0.223091 0.149547
C27   C     C_R   0.158688 0.183903 0.188762 -0.037361
C28   C     C_R   0.155807 0.077605 0.224400 0.031835
C29   C     C_R   0.167653 0.071952 0.295939 0.167288
C30   C     C_R   0.198828 0.160615 0.330002 -0.057801
C31   C     C_R   0.724330 0.030734 0.285222 -0.088747
H6    H     H_    0.771871 0.928046 0.302748 0.174588
C32   C     C_R   0.723827 0.053416 0.215909 0.071118
C33   C     C_R   0.662419 0.186461 0.192100 0.036781
C34   C     C_R   0.583444 0.294064 0.238083 0.078734
C35   C     C_R   0.583861 0.268713 0.307200 -0.127834
H7    H     H_    0.524480 0.350897 0.342368 0.158608
C36   C     C_R   0.658343 0.138432 0.331217 -0.010838
O14   O     O_R   0.821500 0.119550 0.952820 -0.496610
O15   O     O_R   0.037130 0.162750 0.957360 -0.496646
C37   C     C_R   0.081974 0.231008 0.928581 0.546229
O16   O     O_R   0.056440 0.344950 0.951330 -0.492928
O17   O     O_R   0.797900 0.560570 0.957460 -0.492712
C38   C     C_R   0.683940 0.604436 0.929434 0.542304
O18   O     O_R   0.596140 0.579600 0.952720 -0.501512
O19   O     O_R   0.639070 0.321380 0.958660 -0.490629
C39   C     C_R   0.708424 0.206624 0.930110 0.549160
O20   O     O_R   0.821240 0.124490 0.104360 -0.471707
O21   O     O_R   0.036900 0.167320 0.097830 -0.488640
C40   C     C_R   0.087802 0.232455 0.123801 0.567246
O22   O     O_R   0.056190 0.349890 0.102870 -0.449268
O23   O     O_R   0.797670 0.565150 0.097930 -0.493834
C41   C     C_R   0.683458 0.612735 0.124854 0.550247
O24   O     O_R   0.595880 0.584540 0.104260 -0.485725
O25   O     O_R   0.638830 0.325960 0.099140 -0.469189
C42   C     C_R   0.705538 0.211061 0.126203 0.572477
Cr4   Cr    Cr6+3 0.926180 0.152240 0.028110 1.090961
Cr5   Cr    Cr6+3 0.921340 0.452070 0.027460 1.104726
Cr6   Cr    Cr6+3 0.626260 0.447120 0.028700 1.099457
O26   O     O_3   0.824590 0.350480 0.028090 -0.290814
I1    I     I_    0.810339 0.880088 0.150948 -0.251259
I2    I     I_    0.454672 0.498072 0.212645 -0.138786
N1    N     N_R   0.224110 0.359347 0.188010 0.102613
O27   O     O_R   0.174467 0.481357 0.211576 -0.288973
O28   O     O_R   0.301108 0.321718 0.134151 -0.308219
I3    I     I_    0.141028 0.918638 0.174052 -0.140436
N2    N     N_R   0.140852 0.982116 0.334186 0.104940
O29   O     O_R   0.045954 0.030284 0.379976 -0.320738
O30   O     O_R   0.218782 0.852764 0.328649 -0.291208

loop_
_geom_bond_atom_site_label_1
_geom_bond_atom_site_label_2
_geom_bond_distance
_ccdc_geom_bond_type
C33   C34   1.421225 A    
O11   Cr3   2.050115 S    
C11   C13   1.202943 T    
O23   C41   1.260434 A    
C28   I3    2.149934 S    
O20   C42   1.272249 A    
C19   H1    1.079846 S    
O4    Cr2   1.927114 S    
O16   Cr5   2.051439 S    
C25   H5    1.083683 S    
O8    Cr1   1.933056 S    
C20   H2    1.083279 S    
C12   C13   1.407925 S    
C19   C20   1.373620 A    
C8    C10   1.201825 T    
C5    C24   1.422146 S    
O22   Cr5   2.045480 S    
O4    C2    1.275523 A    
C33   C42   1.463093 S    
C35   C36   1.389931 A    
O21   Cr4   1.934141 S    
C25   C30   1.405579 A    
C5    O11   1.259677 A    
C34   C35   1.385810 A    
C21   C41   1.424835 S    
C4    C36   1.445310 S    
N1    O27   1.301214 A    
O6    C3    1.272856 A    
C15   C17   1.203304 T    
O21   C40   1.264751 A    
O24   Cr6   2.050258 S    
O15   Cr4   1.932728 S    
C29   N2    1.436693 S    
N2    O29   1.301163 A    
C22   C23   1.378672 A    
Cr3   O13   1.982389 S    
O20   Cr4   2.049101 S    
C23   C24   1.388510 A    
C31   C32   1.383064 A    
C6    C30   1.460713 S    
O12   C6    1.281245 A    
C25   C26   1.373271 A    
C15   C39   1.429799 S    
O1    Cr1   2.051870 S    
C41   O24   1.271691 A    
O19   C39   1.273819 A    
O10   Cr2   1.933209 S    
Cr1   O13   1.974994 S    
O1    C3    1.267261 A    
O25   C42   1.271545 A    
C21   C22   1.408581 A    
Cr5   O26   1.982156 S    
C1    C18   1.429971 S    
C29   C30   1.403212 A    
O5    Cr3   2.043460 S    
O12   Cr3   1.925457 S    
C16   C18   1.203351 T    
C37   O16   1.267024 A    
C31   C36   1.398913 A    
C26   C27   1.403386 A    
O7    Cr1   2.050398 S    
O14   Cr4   2.052915 S    
O6    Cr3   1.932832 S    
O23   Cr5   1.932711 S    
C26   N1    1.435161 S    
C8    C9    1.406129 S    
C19   C24   1.403468 A    
C3    C14   1.429281 S    
C27   C28   1.429929 A    
Cr2   O13   1.982745 S    
C28   C29   1.404995 A    
O17   Cr5   1.928108 S    
C23   H4    1.083735 S    
C27   C40   1.467257 S    
C1    O3    1.268114 A    
C32   I1    2.131304 S    
C31   H6    1.083793 S    
C34   I2    2.121079 S    
C32   C33   1.411482 A    
C22   H3    1.083866 S    
N2    O30   1.300984 A    
O9    Cr2   2.044349 S    
O2    Cr1   1.933994 S    
O19   Cr6   1.933015 S    
O25   Cr6   1.924761 S    
N1    O28   1.301590 A    
Cr6   O26   1.982955 S    
O8    C4    1.272219 A    
C2    O5    1.269846 A    
C11   C37   1.429261 S    
O18   Cr6   2.042965 S    
C16   C17   1.408552 S    
C7    C38   1.427305 S    
C12   C14   1.202944 T    
O2    C1    1.273260 A    
C40   O22   1.282988 A    
C20   C21   1.386986 A    
O17   C38   1.275657 A    
Cr4   O26   1.975138 S    
C35   H7    1.083892 S    
C2    C10   1.427353 S    
O7    C6    1.257796 A    
C7    C9    1.201815 T    
O15   C37   1.273379 A    
O3    Cr2   2.051875 S    
C4    O9    1.261840 A    
O14   C39   1.266807 A    
C38   O18   1.269942 A    
O10   C5    1.269390 A    
