data_mof_unit_67641.cif
_audit_creation_date              2013-03-05T16:32:08-0500
_audit_creation_method            fapswitch 2.2
_symmetry_space_group_name_H-M    P1
_symmetry_Int_Tables_number       1
_space_group_crystal_system       triclinic
_cell_length_a                    10.923732
_cell_length_b                    10.984949
_cell_length_c                    9.710685
_cell_angle_alpha                 90.097507
_cell_angle_beta                  86.768257
_cell_angle_gamma                 91.832317
_cell_volume                      1162.80157879

loop_
_atom_site_label
_atom_site_type_symbol
_atom_site_description
_atom_site_fract_x
_atom_site_fract_y
_atom_site_fract_z
_atom_type_partial_charge
O1    O     O_R   0.500000 0.319640 0.618810 -0.548356
O2    O     O_R   0.500010 0.319680 0.381230 -0.559372
C1    C     C_R   0.494178 0.262463 0.499566 0.916096
O3    O     O_R   0.317690 0.499960 0.618790 -0.527029
O4    O     O_R   0.317700 0.500000 0.381210 -0.551468
C2    C     C_R   0.260075 0.496992 0.502292 0.978274
Cu1   Cu    Cu3+1 0.499990 0.499980 0.640670 1.048933
Cu2   Cu    Cu3+1 0.500010 0.500020 0.359330 1.006152
O5    O     O_R   0.499990 0.680320 0.618770 -0.605589
O6    O     O_R   0.500000 0.680360 0.381190 -0.607438
O7    O     O_R   0.682300 0.500000 0.618790 -0.567760
O8    O     O_R   0.682310 0.500040 0.381210 -0.558081
C3    C     C_R   0.498541 0.737031 0.500198 0.779812
C4    C     C_R   0.739341 0.491632 0.497545 0.943267
C5    C     C_3   0.062313 0.403210 0.615076 -0.515122
H1    H     H_    0.079506 0.439537 0.718474 0.284507
H2    H     H_    0.110871 0.317292 0.620733 0.292546
C6    C     C_3   0.920163 0.383311 0.601534 0.483644
H3    H     H_    0.882573 0.630797 0.642230 0.122792
C7    C     C_3   0.073818 0.623672 0.546233 0.726696
C8    C     C_3   0.078963 0.447845 0.351844 0.596645
C9    C     C_3   0.121001 0.493809 0.502077 -0.271535
C10   C     C_3   0.878275 0.484967 0.496395 -0.287613
C11   C     C_3   0.928238 0.616127 0.539397 0.034197
C12   C     C_3   0.934591 0.454548 0.348038 0.095935
H4    H     H_    0.907172 0.529378 0.283049 0.174699
C13   C     C_R   0.425137 0.059328 0.603175 -0.018992
C14   C     C_R   0.480377 0.128206 0.494210 -0.117340
C15   C     C_R   0.519617 0.062827 0.374419 0.446433
C16   C     C_R   0.519331 0.934860 0.375645 -0.326892
H5    H     H_    0.549634 0.887970 0.282685 0.176538
C17   C     C_R   0.492813 0.870038 0.498478 -0.093164
C18   C     C_R   0.446788 0.936501 0.610937 -0.048371
C19   C     C_3   0.467947 0.942072 0.761768 0.063081
C20   C     C_3   0.425781 0.072471 0.755859 0.150205
H6    H     H_    0.408623 0.878125 0.826278 0.102992
H7    H     H_    0.492585 0.143336 0.786505 0.156556
C21   C     C_R   0.597989 0.548614 0.066047 0.120380
N1    N     N_R   0.500800 0.500930 0.147930 -0.262900
C22   C     C_R   0.405171 0.451563 0.081276 -0.120511
H8    H     H_    0.330398 0.407585 0.141167 0.259433
C23   C     C_R   0.402473 0.454192 0.934613 0.338492
N2    N     N_R   0.500800 0.500890 0.852020 -0.255555
C24   C     C_R   0.596890 0.547685 0.919079 0.210062
C25   C     C_3   0.635061 0.676181 0.904144 -0.373014
C26   C     C_3   0.640421 0.680907 0.058874 0.173703
H9    H     H_    0.724404 0.688616 0.844198 0.228658
H10   H     H_    0.558724 0.727778 0.866292 0.181241
H11   H     H_    0.575144 0.744063 0.110552 0.103952
O9    O     O_3   0.127654 0.709456 0.447927 -0.603419
C27   C     C_3   0.152334 0.827205 0.500742 0.135941
H12   H     H_    0.231417 0.824160 0.566783 0.172747
H13   H     H_    0.071474 0.863832 0.557681 0.177268
C28   C     C_3   0.186107 0.916889 0.384510 -0.746123
H14   H     H_    0.113732 0.916267 0.308985 0.262978
H15   H     H_    0.195927 0.010162 0.427570 0.272005
H16   H     H_    0.274654 0.894045 0.331389 0.219203
O10   O     O_3   0.892378 0.703239 0.441987 -0.588467
C29   C     C_3   0.824246 0.797763 0.504313 0.066132
H17   H     H_    0.868977 0.839873 0.592084 0.166206
H18   H     H_    0.732485 0.762262 0.541406 0.153019
C30   C     C_3   0.811930 0.898462 0.399872 -0.554093
H19   H     H_    0.752833 0.865007 0.318976 0.249324
H20   H     H_    0.769882 0.978975 0.449800 0.265871
H21   H     H_    0.902966 0.926898 0.352527 0.252684
O11   O     O_3   0.576598 0.122556 0.263362 -0.583261
C31   C     C_3   0.493778 0.127875 0.158239 0.116863
H22   H     H_    0.405973 0.168914 0.196218 0.192221
H23   H     H_    0.473918 0.035695 0.115613 0.186001
C32   C     C_3   0.551865 0.208194 0.044725 -0.672127
H24   H     H_    0.622881 0.159552 0.982786 0.280336
H25   H     H_    0.479903 0.236919 0.978260 0.211014
H26   H     H_    0.595651 0.290054 0.089388 0.243054
N3    N     N_R   0.597858 0.942615 0.792764 0.104335
O12   O     O_R   0.625710 0.941171 0.921087 -0.386246
O13   O     O_R   0.682668 0.976405 0.700073 -0.351914
N4    N     N_R   0.301974 0.082981 0.820674 0.136986
O14   O     O_R   0.284741 0.074057 0.953894 -0.378771
O15   O     O_R   0.208134 0.100586 0.746799 -0.306115
N5    N     N_R   0.294042 0.406591 0.876384 0.148275
O16   O     O_R   0.187576 0.423291 0.939234 -0.352172
O17   O     O_R   0.302791 0.323301 0.782460 -0.313578
N6    N     N_R   0.767300 0.702941 0.093969 0.139415
O18   O     O_R   0.811914 0.814035 0.085878 -0.350556
O19   O     O_R   0.843391 0.615236 0.077535 -0.454305
N7    N     N_R   0.891067 0.259170 0.548759 0.200623
O20   O     O_R   0.778578 0.229366 0.521711 -0.319236
O21   O     O_R   0.968952 0.172102 0.551997 -0.301117
N8    N     N_R   0.856668 0.393045 0.740043 0.123422
O22   O     O_R   0.880377 0.482716 0.822555 -0.432710
O23   O     O_R   0.774536 0.310987 0.782652 -0.325086
O24   O     O_3   0.121288 0.646473 0.680307 -0.621157
C33   C     C_3   0.052790 0.716343 0.778404 0.038769
H27   H     H_    0.011649 0.655071 0.859368 0.252783
H28   H     H_    0.980542 0.770282 0.738040 0.126771
C34   C     C_3   0.137673 0.806048 0.847437 -0.730948
H29   H     H_    0.162879 0.882655 0.777712 0.259310
H30   H     H_    0.089759 0.843879 0.940989 0.256459
H31   H     H_    0.222695 0.761213 0.872870 0.239341
O25   O     O_3   0.145135 0.510647 0.240141 -0.581482
C35   C     C_3   0.105994 0.618612 0.181612 0.142232
H32   H     H_    0.039506 0.670255 0.245276 0.229753
H33   H     H_    0.064667 0.595533 0.083227 0.210840
C36   C     C_3   0.220496 0.698327 0.148377 -0.723931
H34   H     H_    0.274690 0.659903 0.059821 0.219650
H35   H     H_    0.195711 0.792368 0.124198 0.207451
H36   H     H_    0.280322 0.701155 0.236839 0.289101
N9    N     N_R   0.116083 0.319375 0.328351 0.185653
O26   O     O_R   0.113658 0.275999 0.203922 -0.308496
O27   O     O_R   0.188960 0.265473 0.408513 -0.416127
O28   O     O_3   0.881991 0.343089 0.299963 -0.532768
C37   C     C_3   0.868011 0.343216 0.156101 0.196690
H37   H     H_    0.946121 0.390491 0.097563 0.214066
H38   H     H_    0.782272 0.389026 0.134617 0.172417
C38   C     C_3   0.858724 0.211826 0.105321 -0.567214
H39   H     H_    0.783411 0.161615 0.163471 0.278554
H40   H     H_    0.841947 0.209757 0.994004 0.245587
H41   H     H_    0.943821 0.162538 0.120034 0.280249

loop_
_geom_bond_atom_site_label_1
_geom_bond_atom_site_label_2
_geom_bond_distance
_ccdc_geom_bond_type
C5    C6    1.574003 S    
C23   N5    1.425132 S    
C33   H27   1.102607 S    
C3    C17   1.464572 S    
O28   C37   1.413864 S    
C37   H38   1.107463 S    
Cu1   Cu2   2.731992 S    
C25   C26   1.507713 S    
C13   C18   1.380161 A    
Cu1   O7    1.990856 S    
C7    O24   1.446863 S    
C26   H11   1.109834 S    
C6    N7    1.487132 S    
N3    O13   1.300520 A    
O4    C2    1.301989 A    
C14   C15   1.418908 A    
C20   H7    1.102022 S    
O1    C1    1.320094 A    
C16   H5    1.079531 S    
O7    C4    1.305175 A    
N7    O21   1.301838 A    
C26   N6    1.458494 S    
C38   H39   1.104345 S    
C2    C9    1.518611 S    
C34   H31   1.105300 S    
N9    O26   1.299437 A    
C5    H2    1.100285 S    
C19   C20   1.520771 S    
O5    C3    1.311193 A    
C36   H34   1.107002 S    
C30   H20   1.108009 S    
C5    C9    1.577700 S    
C30   H19   1.099964 S    
C7    C11   1.594903 S    
C38   H40   1.106601 S    
C34   H30   1.109475 S    
C7    O9    1.431588 S    
C10   C11   1.587912 S    
C32   H24   1.105388 S    
Cu2   N1    2.052411 S    
Cu1   N2    2.052878 S    
N8    O23   1.302446 A    
C25   H9    1.112512 S    
O11   C31   1.404169 S    
C29   H17   1.100145 S    
C33   H28   1.092315 S    
C8    C9    1.628579 S    
O3    Cu1   2.014567 S    
C36   H35   1.105204 S    
C37   H37   1.113034 S    
O9    C27   1.414150 S    
N4    O15   1.303416 A    
C28   H15   1.110287 S    
C29   H18   1.105147 S    
N3    O12   1.299514 A    
C31   H22   1.116438 S    
C35   H32   1.098206 S    
N5    O17   1.292683 A    
N1    C22   1.357604 A    
C8    O25   1.434325 S    
N7    O20   1.302493 A    
C13   C20   1.489826 S    
O10   C29   1.412400 S    
N4    O14   1.300148 A    
C20   N4    1.467081 S    
C27   H12   1.105923 S    
C31   H23   1.112828 S    
C4    C10   1.521192 S    
N2    C24   1.353332 A    
C21   C24   1.427902 A    
C15   C16   1.405686 A    
N6    O18   1.300356 A    
Cu2   O8    2.014566 S    
C38   H41   1.106841 S    
C34   H29   1.099320 S    
C32   H26   1.104561 S    
C18   C19   1.496462 S    
C36   H36   1.108113 S    
C19   N3    1.467006 S    
O3    C2    1.325062 A    
C22   H8    1.077465 S    
N6    O19   1.296271 A    
C7    C9    1.582576 S    
C35   C36   1.523424 S    
C23   N2    1.388933 A    
C24   C25   1.464084 S    
C35   H33   1.105132 S    
C25   H10   1.103280 S    
Cu1   O5    1.992769 S    
C8    C12   1.583660 S    
C28   H14   1.108153 S    
C1    C14   1.478810 S    
C29   C30   1.516253 S    
C30   H21   1.107686 S    
O1    Cu1   1.992010 S    
C6    N8    1.483466 S    
Cu2   O6    1.992010 S    
O2    Cu2   1.992767 S    
O8    C4    1.325238 A    
N5    O16   1.300752 A    
O6    C3    1.311269 A    
O4    Cu2   1.990855 S    
C32   H25   1.099011 S    
C33   C34   1.513142 S    
C31   C32   1.511554 S    
C17   C18   1.391850 A    
C27   C28   1.521254 S    
O2    C1    1.308138 A    
C12   H4    1.096592 S    
C16   C17   1.401593 A    
C21   N1    1.380009 A    
C6    C10   1.608710 S    
C22   C23   1.426519 A    
O24   C33   1.417831 S    
N9    O27   1.300723 A    
H3    C11   1.104721 S    
C19   H6    1.110154 S    
C10   C12   1.573896 S    
C21   C26   1.511694 S    
C8    N9    1.494364 S    
C12   O28   1.424950 S    
C15   O11   1.371702 S    
C11   O10   1.425745 S    
C13   C14   1.399203 A    
O25   C35   1.405181 S    
C27   H13   1.102132 S    
N8    O22   1.297599 A    
C37   C38   1.526582 S    
C5    H1    1.103530 S    
C28   H16   1.106113 S    
