data_mof_unit_49688.cif
_audit_creation_date              2012-10-26T19:28:26-0400
_audit_creation_method            fapswitch 2.2
_symmetry_space_group_name_H-M    P1
_symmetry_Int_Tables_number       1
_space_group_crystal_system       triclinic
_cell_length_a                    14.696498
_cell_length_b                    14.753233
_cell_length_c                    14.346469
_cell_angle_alpha                 77.695969
_cell_angle_beta                  102.730844
_cell_angle_gamma                 115.021331
_cell_volume                      2723.9787592

loop_
_atom_site_label
_atom_site_type_symbol
_atom_type_description
_atom_site_fract_x
_atom_site_fract_y
_atom_site_fract_z
_atom_type_partial_charge
C1    C     C_R   0.879556 0.312001 0.515933 0.568669
C2    C     C_R   0.495855 0.113534 0.403588 -0.069033
C3    C     C_R   0.616279 0.897620 0.509241 -0.132751
C4    C     C_R   0.392229 0.084149 0.372487 -0.106536
C5    C     C_R   0.715984 0.661675 0.333912 0.228354
C6    C     C_R   0.294127 0.348555 0.667156 0.234811
C7    C     C_R   0.795737 0.630117 0.362973 0.065249
C8    C     C_R   0.205302 0.364906 0.631700 0.059558
C9    C     C_R   0.721804 0.525260 0.498746 0.065117
C10   C     C_R   0.285936 0.494292 0.511402 0.108738
C11   C     C_R   0.637117 0.552909 0.473027 -0.035356
C12   C     C_R   0.120168 0.687430 0.485493 0.576371
C13   C     C_R   0.375320 0.475170 0.536292 -0.030119
C14   C     C_R   0.633015 0.617722 0.385680 -0.019313
C15   C     C_R   0.380047 0.405139 0.620283 -0.017456
C16   C     C_R   0.000244 0.499880 0.668919 0.584766
C17   C     C_R   0.999680 0.499943 0.331099 0.526796
C18   C     C_R   0.553911 0.512606 0.526670 -0.005479
C19   C     C_R   0.461023 0.525506 0.484544 0.002376
C20   C     C_R   0.457306 0.586091 0.392356 0.246279
C21   C     C_R   0.559976 0.459112 0.621328 0.279886
C22   C     C_R   0.544753 0.633703 0.347414 -0.109535
C23   C     C_R   0.640360 0.073389 0.492812 0.033838
C24   C     C_R   0.472510 0.398943 0.661727 -0.043324
C25   C     C_1   0.000754 0.499571 0.771440 -0.006555
C26   C     C_1   0.999085 0.499779 0.228646 -0.043209
C27   C     C_1   0.000782 0.499477 0.856889 -0.030575
C28   C     C_1   0.999193 0.499694 0.143259 -0.042503
C29   C     C_1   0.000291 0.499542 0.957436 0.002507
C30   C     C_1   0.999743 0.499623 0.042721 0.003437
C31   C     C_R   0.810794 0.203681 0.519903 -0.011880
C32   C     C_R   0.189152 0.793807 0.467162 -0.005180
C33   C     C_R   0.786936 0.029603 0.521556 -0.141285
C34   C     C_R   0.362990 0.916710 0.462709 0.024158
C35   C     C_R   0.220665 0.958479 0.373282 -0.138665
C36   C     C_R   0.850704 0.131493 0.522479 -0.165470
C37   C     C_R   0.153657 0.861075 0.401671 -0.178805
C38   C     C_R   0.704512 0.171464 0.515450 0.170978
C39   C     C_R   0.293244 0.825585 0.506041 0.226867
C40   C     C_3   0.373040 0.683444 0.293994 -0.029213
C41   C     C_3   0.269617 0.689224 0.276509 -0.366996
C42   C     C_3   0.688330 0.557537 0.722049 -0.028639
C43   C     C_3   0.792587 0.573470 0.779759 -0.346786
C44   C     C_3   0.762502 0.828179 0.278571 -0.029026
C45   C     C_R   0.681528 0.999726 0.507721 0.020973
C46   C     C_3   0.758425 0.904681 0.189765 -0.355816
C47   C     C_3   0.300023 0.311696 0.830171 -0.023042
C48   C     C_3   0.317471 0.238395 0.917210 -0.351478
C49   C     C_R   0.325092 0.986803 0.402831 0.014930
C50   C     C_R   0.535154 0.044638 0.461011 0.061020
C51   C     C_R   0.469247 0.942311 0.478018 0.058450
C52   C     C_R   0.511366 0.868965 0.499159 -0.090224
Cu1   Cu    Cu3+1 0.081740 0.475690 0.523180 0.979760
Cu2   Cu    Cu3+1 0.918260 0.524310 0.476820 0.954027
H1    H     H_    0.646338 0.839850 0.520827 0.102902
H2    H     H_    0.479620 0.353508 0.730887 0.184982
H3    H     H_    0.280912 0.557079 0.460696 0.209105
H4    H     H_    0.728531 0.470936 0.559657 0.258002
H5    H     H_    0.138252 0.322048 0.666197 0.131801
H6    H     H_    0.858403 0.660946 0.322039 0.140618
H7    H     H_    0.397389 0.698030 0.222307 0.150301
H8    H     H_    0.426941 0.743970 0.337843 0.109701
H9    H     H_    0.243748 0.680584 0.345982 0.149354
H10   H     H_    0.274671 0.763760 0.235698 0.102456
H11   H     H_    0.213516 0.628939 0.234066 0.175357
H12   H     H_    0.364531 0.138063 0.325709 0.119471
H13   H     H_    0.636892 0.550926 0.772019 0.133962
H14   H     H_    0.696215 0.625164 0.666747 0.123673
H15   H     H_    0.846256 0.584411 0.730709 0.170745
H16   H     H_    0.821248 0.641579 0.816399 0.106357
H17   H     H_    0.788132 0.506906 0.834999 0.178783
H18   H     H_    0.365980 0.641577 0.687580 0.361720
H19   H     H_    0.650733 0.335753 0.439167 0.325147
H20   H     H_    0.843601 0.846381 0.310321 0.124404
H21   H     H_    0.721707 0.835760 0.331597 0.121273
H22   H     H_    0.678238 0.889065 0.157171 0.163829
H23   H     H_    0.073947 0.838254 0.372121 0.128695
H24   H     H_    0.794360 0.982040 0.210323 0.101887
H25   H     H_    0.799764 0.900367 0.135800 0.169550
H26   H     H_    0.227076 0.317242 0.831355 0.131807
H27   H     H_    0.363568 0.387043 0.836864 0.123369
H28   H     H_    0.390490 0.232117 0.918683 0.169769
H29   H     H_    0.320345 0.265917 0.984504 0.100478
H30   H     H_    0.254655 0.162685 0.913674 0.171499
H31   H     H_    0.931690 0.153362 0.527612 0.145794
H32   H     H_    0.819877 0.974648 0.529222 0.115928
H33   H     H_    0.191205 0.010442 0.325207 0.120732
H34   H     H_    0.463387 0.789715 0.500570 0.166464
H35   H     H_    0.545917 0.187931 0.376020 0.127943
H36   H     H_    0.541371 0.677415 0.276951 0.157674
N1    N     N_R   0.795420 0.560790 0.441960 -0.291908
N2    N     N_R   0.204580 0.439210 0.558040 -0.270317
O1    O     O_R   0.977910 0.338120 0.530560 -0.512489
O2    O     O_3   0.651298 0.468546 0.678970 -0.548475
O3    O     O_2   0.419733 0.847632 0.675879 -0.241280
O4    O     O_2   0.241977 0.734129 0.681394 -0.277322
O5    O     O_3   0.355672 0.672072 0.619643 -0.569788
O6    O     O_2   0.570397 0.156432 0.624645 -0.199255
O7    O     O_2   0.735531 0.295929 0.644456 -0.256668
O8    O     O_3   0.607022 0.308946 0.490433 -0.532385
O9    O     O_3   0.716740 0.730249 0.251425 -0.572481
O10   O     O_3   0.296370 0.275540 0.745257 -0.557494
O11   O     O_R   0.022090 0.661880 0.469440 -0.514685
O12   O     O_R   0.839850 0.379180 0.491410 -0.469918
O13   O     O_R   0.160150 0.620820 0.508590 -0.453078
O14   O     O_R   0.069040 0.479460 0.643530 -0.471279
O15   O     O_R   0.930960 0.520540 0.356470 -0.497994
O16   O     O_R   0.930990 0.520530 0.604380 -0.475306
O17   O     O_R   0.069010 0.479470 0.395620 -0.485687
O18   O     O_3   0.365212 0.585736 0.340060 -0.574834
S1    S     S_3+6 0.328558 0.770605 0.624661 0.015917
S2    S     S_3+6 0.654766 0.234166 0.572167 0.037528

loop_
_geom_bond_atom_site_label_1
_geom_bond_atom_site_label_2
_ccdc_geom_bond_type
H19   O8    S    
C11   C18   A    
C23   C45   A    
C27   C29   S    
C18   C21   A    
C33   C45   A    
C19   C20   A    
C9    N1    A    
C46   H22   S    
Cu1   Cu2   S    
C47   H27   S    
C34   C51   A    
Cu2   O15   S    
C17   C26   S    
Cu2   O12   S    
C35   C37   A    
C18   C19   A    
C17   O15   A    
C8    H5    S    
C46   H25   S    
O5    S1    S    
C11   C14   A    
C21   O2    S    
C1    C31   S    
C33   C36   A    
C40   H8    S    
C9    H4    S    
C32   C39   A    
C2    H35   S    
C2    C50   A    
C6    C15   A    
C35   H33   S    
Cu1   O14   S    
C35   C49   A    
C8    N2    A    
C16   O14   A    
C39   S1    S    
C10   N2    A    
C43   H15   S    
C47   O10   S    
C12   C32   S    
C42   H14   S    
C3    H1    S    
C47   H26   S    
C44   C46   S    
H18   O5    S    
O4    S1    D    
C5    O9    S    
O6    S2    D    
C13   C19   A    
Cu1   O1    S    
C34   C39   A    
Cu2   O11   S    
C52   H34   S    
C10   H3    S    
C12   O11   A    
C46   H24   S    
C23   C50   A    
C41   H11   S    
C37   H23   S    
C3    C45   A    
C40   H7    S    
C51   C52   A    
C44   H21   S    
C2    C4    A    
C33   H32   S    
C29   C30   T    
Cu1   O13   S    
C47   C48   S    
C3    C52   A    
C7    N1    A    
Cu1   N2    S    
C50   C51   A    
C22   H36   S    
C32   C37   A    
C44   H20   S    
C9    C11   A    
C1    O12   A    
C5    C14   A    
C20   O18   S    
C40   C41   S    
C20   C22   A    
O8    S2    S    
C43   H16   S    
C13   C15   A    
C42   H13   S    
C24   H2    S    
C42   C43   S    
C41   H9    S    
C38   S2    S    
C7    H6    S    
C5    C7    A    
Cu1   O17   S    
C16   C25   S    
C15   C24   A    
C34   C49   A    
C43   H17   S    
C42   O2    S    
C10   C13   A    
C17   O17   A    
C6    C8    A    
C44   O9    S    
C48   H29   S    
C36   H31   S    
C25   C27   T    
C23   C38   A    
C26   C28   T    
C31   C38   A    
Cu2   O16   S    
C4    C49   A    
C14   C22   A    
C28   C30   S    
Cu2   N1    S    
O3    S1    D    
C4    H12   S    
C12   O13   A    
O7    S2    D    
C48   H28   S    
C6    O10   S    
C40   O18   S    
C16   O16   A    
C48   H30   S    
C1    O1    A    
C21   C24   A    
C31   C36   A    
C41   H10   S    
