data_mof_unit_17719.cif
_audit_creation_date              2012-12-10T20:26:32-0500
_audit_creation_method            fapswitch 2.2
_symmetry_space_group_name_H-M    P1
_symmetry_Int_Tables_number       1
_space_group_crystal_system       triclinic
_cell_length_a                    10.676738
_cell_length_b                    10.694912
_cell_length_c                    9.905354
_cell_angle_alpha                 91.591481
_cell_angle_beta                  91.300509
_cell_angle_gamma                 90.754683
_cell_volume                      1130.22507184

loop_
_atom_site_label
_atom_site_type_symbol
_atom_type_description
_atom_site_fract_x
_atom_site_fract_y
_atom_site_fract_z
_atom_type_partial_charge
C1    C     C_R   0.498975 0.260278 0.497889 0.979783
C2    C     C_R   0.502147 0.128126 0.491107 -0.249120
C3    C     C_R   0.438622 0.059714 0.386227 0.374779
C4    C     C_R   0.424329 0.929930 0.400176 0.326927
C5    C     C_R   0.496500 0.871174 0.500388 -0.189638
C6    C     C_R   0.582724 0.939354 0.580639 -0.296810
C7    C     C_3   0.615699 0.936840 0.730250 0.231979
C8    C     C_3   0.606308 0.080064 0.729755 0.784283
C9    C     C_R   0.426565 0.417015 0.066582 0.117251
C10   C     C_R   0.581451 0.572740 0.077586 -0.109023
C11   C     C_R   0.582044 0.573805 0.934716 0.413392
C12   C     C_R   0.262556 0.501332 0.498271 0.986994
C13   C     C_R   0.426679 0.416809 0.924611 0.237361
C14   C     C_3   0.287531 0.403696 0.914906 0.258643
C15   C     C_3   0.287618 0.403938 0.069010 -0.562819
C16   C     C_R   0.497850 0.739412 0.501305 0.966810
C17   C     C_R   0.737443 0.506387 0.501734 0.946093
C18   C     C_2   0.930736 0.555404 0.395813 -0.299890
C19   C     C_2   0.868769 0.529999 0.507452 -0.377795
C20   C     C_2   0.066710 0.566274 0.400851 0.469963
C21   C     C_2   0.129912 0.500426 0.492712 -0.361071
C22   C     C_R   0.578750 0.066374 0.581406 -0.049862
H1    H     H_    0.882378 0.565773 0.299095 0.179028
H2    H     H_    0.645183 0.633517 0.136159 0.170385
H3    H     H_    0.242683 0.486300 0.868633 0.085958
H4    H     H_    0.242434 0.487814 0.113939 0.224356
H5    H     H_    0.257606 0.313662 0.111736 0.235741
H6    H     H_    0.913931 0.531490 0.606819 0.158119
H7    H     H_    0.084687 0.439825 0.563210 0.097908
H8    H     H_    0.542025 0.890740 0.789816 0.112886
N1    N     N_R   0.499170 0.499140 0.142800 -0.142927
N2    N     N_R   0.499170 0.499180 0.857150 -0.202934
O1    O     O_R   0.500020 0.316790 0.614690 -0.555524
O2    O     O_R   0.500000 0.316760 0.385350 -0.588901
O3    O     O_R   0.319080 0.500020 0.614640 -0.645939
O4    O     O_R   0.319070 0.499980 0.385300 -0.548298
O5    O     O_R   0.500000 0.683240 0.614650 -0.678715
O6    O     O_R   0.499980 0.683210 0.385310 -0.570044
O7    O     O_R   0.680930 0.500020 0.614700 -0.632400
O8    O     O_R   0.680920 0.499980 0.385360 -0.634367
Zn1   Zn    Zn3+2 0.500010 0.500020 0.653130 0.979673
Zn2   Zn    Zn3+2 0.499990 0.499980 0.346870 0.993986
O9    O     O_3   0.719632 0.144963 0.756051 -0.740498
H9    H     H_    0.736892 0.139867 0.854492 0.342960
O10   O     O_3   0.666725 0.653560 0.878724 -0.756600
H10   H     H_    0.651580 0.651966 0.780990 0.389558
O11   O     O_3   0.253826 0.286531 0.854636 -0.567157
C23   C     C_3   0.122199 0.276240 0.841947 0.117069
H11   H     H_    0.082480 0.354722 0.784013 0.131297
H12   H     H_    0.079269 0.274909 0.943266 0.148562
C24   C     C_3   0.087947 0.154429 0.766362 -0.812858
H13   H     H_    0.125870 0.074051 0.822133 0.245828
H14   H     H_    0.984514 0.144032 0.756798 0.248971
H15   H     H_    0.127781 0.154289 0.663717 0.252600
O12   O     O_3   0.129227 0.639687 0.310476 -0.727806
H16   H     H_    0.066149 0.681141 0.252581 0.326138
O13   O     O_3   0.385103 0.120726 0.277658 -0.632713
C25   C     C_3   0.443031 0.082712 0.155592 0.107265
H17   H     H_    0.389610 0.123373 0.070386 0.204900
H18   H     H_    0.439008 0.979732 0.137447 0.157311
C26   C     C_3   0.579244 0.128573 0.148560 -0.788950
H19   H     H_    0.637710 0.088558 0.230311 0.228692
H20   H     H_    0.618342 0.097620 0.050723 0.232834
H21   H     H_    0.584881 0.232002 0.156555 0.269715
O14   O     O_3   0.337776 0.859981 0.323006 -0.728605
H22   H     H_    0.277907 0.916971 0.279071 0.349880
O15   O     O_3   0.738418 0.898816 0.770823 -0.570899
C27   C     C_3   0.811349 0.851702 0.663917 0.206242
H23   H     H_    0.832977 0.927260 0.592682 0.156335
H24   H     H_    0.762349 0.772572 0.608991 0.123915
C28   C     C_3   0.934512 0.804043 0.721366 -0.824628
H25   H     H_    0.916505 0.725254 0.789326 0.271780
H26   H     H_    0.994450 0.770851 0.637872 0.210852
H27   H     H_    0.984850 0.880269 0.779349 0.255858
O16   O     O_3   0.506854 0.128992 0.805110 -0.778237
H28   H     H_    0.428640 0.083118 0.776967 0.314165

loop_
_geom_bond_atom_site_label_1
_geom_bond_atom_site_label_2
_ccdc_geom_bond_type
C2    C22   A    
C26   H21   S    
C8    C22   S    
O12   H16   S    
C8    O16   S    
O16   H28   S    
C14   O11   S    
N1    Zn2   S    
C12   O4    A    
C15   H4    S    
C1    C2    S    
C13   N2    A    
O4    Zn2   S    
O11   C23   S    
O2    Zn2   S    
C8    O9    S    
C16   O5    A    
N2    Zn1   S    
C24   H15   S    
O1    Zn1   S    
C25   C26   S    
O8    Zn2   S    
C2    C3    A    
C9    C15   S    
C1    O1    A    
C7    C8    S    
O7    Zn1   S    
C7    H8    S    
C26   H20   S    
C13   C14   S    
C12   O3    A    
C19   H6    S    
O13   C25   S    
C4    O14   S    
C27   C28   S    
C5    C6    A    
C3    O13   S    
C15   H5    S    
C23   H12   S    
C23   H11   S    
C17   C19   S    
C11   N2    A    
O6    Zn2   S    
C6    C7    S    
C18   C20   S    
C20   O12   S    
O9    H9    S    
O5    Zn1   S    
C26   H19   S    
O3    Zn1   S    
C11   O10   S    
C10   C11   A    
C9    N1    A    
C1    O2    A    
C25   H18   S    
C18   H1    S    
C6    C22   A    
O10   H10   S    
C28   H25   S    
C24   H13   S    
C20   C21   D    
C7    O15   S    
C27   H24   S    
O14   H22   S    
C17   O7    A    
C28   H26   S    
C9    C13   A    
C14   C15   S    
C18   C19   D    
C5    C16   S    
C28   H27   S    
C10   H2    S    
C25   H17   S    
C14   H3    S    
C21   H7    S    
C12   C21   S    
C27   H23   S    
C23   C24   S    
C3    C4    A    
O15   C27   S    
C16   O6    A    
C4    C5    A    
C24   H14   S    
C17   O8    A    
C10   N1    A    
