data_mof_unit_10703.cif
_audit_creation_date              2012-12-10T18:33:30-0500
_audit_creation_method            fapswitch 2.2
_symmetry_space_group_name_H-M    P1
_symmetry_Int_Tables_number       1
_space_group_crystal_system       triclinic
_cell_length_a                    8.718814
_cell_length_b                    15.140868
_cell_length_c                    13.835754
_cell_angle_alpha                 90.041263
_cell_angle_beta                  98.069483
_cell_angle_gamma                 89.986962
_cell_volume                      1808.37848909

loop_
_atom_site_label
_atom_site_type_symbol
_atom_type_description
_atom_site_fract_x
_atom_site_fract_y
_atom_site_fract_z
_atom_type_partial_charge
C1    C     C_R   0.499992 0.329834 0.499971 0.788422
C2    C     C_R   0.499995 0.670162 0.500041 0.786940
C3    C     C_R   0.558276 0.571101 0.111896 -0.306721
C4    C     C_R   0.568374 0.432604 0.899383 -0.295807
C5    C     C_R   0.559967 0.569724 0.213805 0.030005
C6    C     C_R   0.569815 0.433533 0.797827 0.024921
C7    C     C_R   0.438553 0.429980 0.204126 -0.012429
C8    C     C_R   0.428438 0.567010 0.783569 -0.019440
C9    C     C_R   0.434882 0.428025 0.101770 0.329390
C10   C     C_R   0.421904 0.568665 0.884943 0.360606
C11   C     C_R   0.496616 0.499709 0.054067 0.031519
C12   C     C_R   0.495623 0.500784 0.945067 0.031695
C13   C     C_R   0.203565 0.500046 0.475027 0.890723
C14   C     C_R   0.796445 0.500099 0.525006 0.892185
C15   C     C_2   0.037696 0.500088 0.461277 -0.370992
C16   C     C_2   0.962331 0.500273 0.538863 -0.372839
C17   C     C_R   0.453580 0.095300 0.578690 -0.168332
C18   C     C_R   0.452931 0.904725 0.413340 -0.168077
C19   C     C_R   0.454631 0.187097 0.578961 -0.188164
C20   C     C_R   0.454020 0.812931 0.413196 -0.190289
C21   C     C_R   0.499966 0.233400 0.499964 -0.029108
C22   C     C_R   0.499986 0.766590 0.500101 -0.028389
C23   C     C_R   0.545360 0.186943 0.421025 -0.185780
C24   C     C_R   0.545976 0.813000 0.587028 -0.185102
C25   C     C_R   0.546575 0.095142 0.421423 -0.167011
C26   C     C_R   0.547152 0.904806 0.586898 -0.166726
C27   C     C_R   0.500114 0.048556 0.500088 0.104224
C28   C     C_R   0.500082 0.951431 0.500115 0.104829
Cu1   Cu    Cu3+1 0.500000 0.499990 0.596430 0.930132
Cu2   Cu    Cu3+1 0.500000 0.500010 0.403570 0.935577
H1    H     H_    0.977396 0.499900 0.386944 0.175922
H2    H     H_    0.022591 0.500524 0.613225 0.171940
H3    H     H_    0.414567 0.060973 0.639407 0.128263
H4    H     H_    0.413426 0.939081 0.345811 0.127545
H5    H     H_    0.417936 0.221786 0.640288 0.148882
H6    H     H_    0.416853 0.778269 0.345429 0.146802
H7    H     H_    0.581995 0.221516 0.359664 0.151363
H8    H     H_    0.583121 0.778385 0.654781 0.151743
H9    H     H_    0.585627 0.060688 0.360744 0.128561
H10   H     H_    0.586669 0.939232 0.654431 0.128224
H11   H     H_    0.606897 0.627284 0.078483 0.175829
H12   H     H_    0.625552 0.379243 0.942343 0.179330
H13   H     H_    0.609947 0.624882 0.256830 0.139863
H14   H     H_    0.627780 0.380890 0.764418 0.144216
H15   H     H_    0.390437 0.374993 0.239592 0.145836
H16   H     H_    0.373254 0.619437 0.738330 0.147588
N1    N     N_R   0.500000 0.500020 0.258690 -0.193543
N2    N     N_R   0.500000 0.499980 0.741310 -0.198504
O1    O     O_R   0.500010 0.371450 0.581430 -0.591862
O2    O     O_R   0.499990 0.628550 0.418570 -0.594899
O3    O     O_R   0.500010 0.371460 0.418560 -0.595022
O4    O     O_R   0.499990 0.628540 0.581440 -0.594027
O5    O     O_R   0.274840 0.499990 0.562640 -0.577619
O6    O     O_R   0.725160 0.500010 0.437360 -0.572672
O7    O     O_R   0.274840 0.500000 0.399770 -0.586116
O8    O     O_R   0.725160 0.500000 0.600230 -0.587610
O9    O     O_3   0.376253 0.354002 0.050687 -0.618920
C29   C     C_3   0.221087 0.370407 0.009890 0.038171
H17   H     H_    0.218049 0.414983 0.945907 0.152490
H18   H     H_    0.153209 0.400206 0.064410 0.126732
C30   C     C_3   0.144054 0.283538 0.974225 -0.297032
H19   H     H_    0.209654 0.253015 0.919452 0.223060
H20   H     H_    0.145904 0.237370 0.036811 0.219811
C31   C     C_3   0.976545 0.298374 0.927808 -0.950753
H21   H     H_    0.908185 0.327272 0.982001 0.254447
H22   H     H_    0.923582 0.234321 0.902256 0.259404
H23   H     H_    0.972016 0.343615 0.864259 0.258502
O10   O     O_3   0.351751 0.640353 0.923158 -0.623374
C32   C     C_3   0.204462 0.616701 0.947279 0.061774
H24   H     H_    0.163311 0.672952 0.988372 0.174481
H25   H     H_    0.211087 0.559527 0.997669 0.118662
C33   C     C_3   0.084420 0.600268 0.856371 -0.402029
H26   H     H_    0.078344 0.659035 0.807902 0.230157
H27   H     H_    0.118894 0.542236 0.815213 0.202874
C34   C     C_3   0.924095 0.582105 0.884354 -0.892693
H28   H     H_    0.927099 0.522324 0.931127 0.251754
H29   H     H_    0.840315 0.570671 0.817325 0.272739
H30   H     H_    0.883761 0.639400 0.924196 0.253750

loop_
_geom_bond_atom_site_label_1
_geom_bond_atom_site_label_2
_ccdc_geom_bond_type
C14   O8    A    
Cu2   O3    S    
C1    C21   S    
C32   C33   S    
Cu1   O1    S    
C5    N1    A    
C6    N2    A    
C7    H15   S    
C19   C21   A    
C24   C26   A    
C29   H18   S    
C15   C16   D    
C30   H20   S    
C32   H25   S    
C2    O2    A    
O10   C32   S    
C2    C22   S    
C24   H8    S    
C14   C16   S    
C4    C12   A    
C9    O9    S    
C9    C11   A    
Cu2   O6    S    
C29   C30   S    
Cu2   O2    S    
C6    H14   S    
C32   H24   S    
C17   H3    S    
C33   C34   S    
C10   C12   A    
C13   O5    A    
Cu1   N2    S    
C17   C27   A    
C31   H23   S    
Cu2   N1    S    
C18   C28   A    
C33   H27   S    
C29   H17   S    
C23   H7    S    
Cu1   O5    S    
C7    N1    A    
C30   C31   S    
C34   H28   S    
C8    N2    A    
Cu1   Cu2   S    
C1    O3    A    
C18   H4    S    
C2    O4    A    
C4    C6    A    
C14   O6    A    
C20   C22   A    
C13   C15   S    
C22   C24   A    
C16   H2    S    
C7    C9    A    
C3    H11   S    
C33   H26   S    
C3    C5    A    
C11   C12   S    
C15   H1    S    
Cu1   O8    S    
C10   O10   S    
C25   C27   A    
Cu2   O7    S    
C26   C28   A    
C31   H21   S    
C21   C23   A    
C19   H5    S    
C25   H9    S    
C26   H10   S    
O9    C29   S    
C4    H12   S    
C17   C19   A    
C18   C20   A    
C23   C25   A    
C5    H13   S    
C30   H19   S    
C34   H30   S    
C8    H16   S    
C3    C11   A    
C20   H6    S    
C8    C10   A    
C34   H29   S    
C27   C28   S    
C1    O1    A    
C31   H22   S    
C13   O7    A    
Cu1   O4    S    
