data_mof_unit_14092.cif
_audit_creation_date              2012-12-10T18:09:34-0500
_audit_creation_method            fapswitch 2.2
_symmetry_space_group_name_H-M    P1
_symmetry_Int_Tables_number       1
_space_group_crystal_system       triclinic
_cell_length_a                    14.441722
_cell_length_b                    16.152226
_cell_length_c                    9.399425
_cell_angle_alpha                 90.258326
_cell_angle_beta                  89.645807
_cell_angle_gamma                 90.0606
_cell_volume                      2192.50053165

loop_
_atom_site_label
_atom_site_type_symbol
_atom_type_description
_atom_site_fract_x
_atom_site_fract_y
_atom_site_fract_z
_atom_type_partial_charge
C1    C     C_R   0.121353 0.380310 0.499390 0.844563
C2    C     C_R   0.122041 0.619162 0.500054 0.841001
C3    C     C_R   0.621358 0.880313 0.499389 0.844562
C4    C     C_R   0.622043 0.119160 0.500054 0.840996
C5    C     C_3   0.077225 0.448758 0.082666 -0.158849
C6    C     C_3   0.076415 0.447601 0.915266 -0.172651
C7    C     C_3   0.577045 0.948549 0.082668 -0.159177
C8    C     C_3   0.576256 0.947422 0.915268 -0.172618
C9    C     C_R   0.875770 0.383829 0.500294 0.761185
C10   C     C_R   0.875676 0.616139 0.500342 0.763628
C11   C     C_R   0.375768 0.883831 0.500294 0.761182
C12   C     C_R   0.375677 0.116140 0.500342 0.763617
C13   C     C_3   0.795428 0.280741 0.653671 -0.421156
C14   C     C_3   0.842935 0.246458 0.400896 -0.390766
C15   C     C_3   0.837674 0.752300 0.605924 -0.395007
C16   C     C_3   0.799913 0.720633 0.348514 -0.417503
C17   C     C_3   0.295410 0.780756 0.653674 -0.421156
C18   C     C_3   0.342940 0.746456 0.400915 -0.390781
C19   C     C_3   0.337681 0.252306 0.605904 -0.395029
C20   C     C_3   0.299899 0.220623 0.348511 -0.417489
C21   C     C_3   0.235504 0.701782 0.651956 -0.151316
C22   C     C_3   0.268438 0.678967 0.381180 -0.151381
C23   C     C_3   0.259943 0.316180 0.627027 -0.135660
C24   C     C_3   0.241282 0.300008 0.349838 -0.145615
C25   C     C_3   0.735521 0.201768 0.651950 -0.151351
C26   C     C_3   0.768430 0.178970 0.381164 -0.151378
C27   C     C_3   0.759938 0.816177 0.627038 -0.135699
C28   C     C_3   0.741306 0.800024 0.349844 -0.145616
C29   C     C_3   0.710128 0.343838 0.450223 -0.382728
C30   C     C_3   0.707442 0.654369 0.541650 -0.382902
C31   C     C_3   0.210128 0.843838 0.450195 -0.382730
C32   C     C_3   0.207445 0.154368 0.541676 -0.382899
C33   C     C_3   0.806986 0.315518 0.500963 0.114779
C34   C     C_3   0.806340 0.684082 0.500047 0.107522
C35   C     C_3   0.306982 0.815522 0.500962 0.114770
C36   C     C_3   0.306339 0.184081 0.500048 0.107518
C37   C     C_3   0.191725 0.688625 0.500211 -0.022378
C38   C     C_3   0.190381 0.310508 0.498732 -0.024737
C39   C     C_3   0.691728 0.188622 0.500211 -0.022355
C40   C     C_3   0.690388 0.810514 0.498729 -0.024731
C41   C     C_3   0.140024 0.770976 0.464442 -0.416170
C42   C     C_3   0.137255 0.227028 0.523076 -0.422918
C43   C     C_3   0.640024 0.270975 0.464469 -0.416176
C44   C     C_3   0.637257 0.727033 0.523045 -0.422899
C45   C     C_3   0.013152 0.584789 0.084310 -0.192135
C46   C     C_3   0.014092 0.584636 0.916744 -0.187162
C47   C     C_3   0.913104 0.467205 0.084369 -0.195587
C48   C     C_3   0.912716 0.468011 0.916806 -0.196040
C49   C     C_3   0.513437 0.084756 0.084308 -0.192072
C50   C     C_3   0.514342 0.084605 0.916744 -0.187192
C51   C     C_3   0.412992 0.967445 0.084372 -0.195569
C52   C     C_3   0.412619 0.968228 0.916805 -0.196030
Cu1   Cu    Cu3+1 0.000100 0.500000 0.642410 0.926009
Cu2   Cu    Cu3+1 0.000100 0.500000 0.357590 0.928639
Cu3   Cu    Cu3+1 0.500100 1.000000 0.642410 0.926021
Cu4   Cu    Cu3+1 0.500100 1.000000 0.357590 0.928646
H1    H     H_    0.761550 0.328208 0.722811 0.150937
H2    H     H_    0.861159 0.271221 0.293951 0.150073
H3    H     H_    0.854242 0.725588 0.711728 0.170347
H4    H     H_    0.767601 0.674434 0.275612 0.159854
H5    H     H_    0.261523 0.828227 0.722796 0.150925
H6    H     H_    0.361174 0.771213 0.293968 0.150099
H7    H     H_    0.354264 0.225601 0.711709 0.170378
H8    H     H_    0.267588 0.174416 0.275620 0.159849
H9    H     H_    0.864536 0.269109 0.701787 0.179451
H10   H     H_    0.907980 0.222120 0.447342 0.223980
H11   H     H_    0.902287 0.781781 0.565316 0.186148
H12   H     H_    0.870831 0.731929 0.304770 0.168245
H13   H     H_    0.364512 0.769129 0.701812 0.179469
H14   H     H_    0.407982 0.722121 0.447378 0.223982
H15   H     H_    0.402286 0.281789 0.565273 0.186144
H16   H     H_    0.370814 0.231924 0.304756 0.168260
H17   H     H_    0.177759 0.712132 0.729311 0.116685
H18   H     H_    0.234364 0.691354 0.277249 0.105768
H19   H     H_    0.220647 0.297569 0.724338 0.118697
H20   H     H_    0.187167 0.292187 0.266854 0.120281
H21   H     H_    0.677782 0.212115 0.729319 0.116651
H22   H     H_    0.734348 0.191364 0.277242 0.105739
H23   H     H_    0.720633 0.797567 0.724341 0.118685
H24   H     H_    0.687201 0.792218 0.266841 0.120300
H25   H     H_    0.685682 0.397588 0.514643 0.157657
H26   H     H_    0.714213 0.364116 0.337352 0.165770
H27   H     H_    0.706776 0.633192 0.654139 0.166358
H28   H     H_    0.686303 0.600956 0.474045 0.162099
H29   H     H_    0.185677 0.897593 0.514599 0.157659
H30   H     H_    0.214223 0.864109 0.337321 0.165768
H31   H     H_    0.206789 0.133195 0.654167 0.166352
H32   H     H_    0.186301 0.100951 0.474082 0.162097
H33   H     H_    0.088532 0.785643 0.549479 0.174163
H34   H     H_    0.100637 0.764507 0.363542 0.172120
H35   H     H_    0.091731 0.231021 0.618893 0.175222
H36   H     H_    0.091259 0.213684 0.431169 0.188600
H37   H     H_    0.588540 0.285638 0.549519 0.174160
H38   H     H_    0.600629 0.264513 0.363575 0.172118
H39   H     H_    0.591723 0.731021 0.618851 0.175217
H40   H     H_    0.591271 0.713695 0.431123 0.188593
H41   H     H_    0.079072 0.612441 0.122211 0.155250
H42   H     H_    0.080929 0.611074 0.879746 0.175140
H43   H     H_    0.902070 0.402431 0.120116 0.141957
H44   H     H_    0.900238 0.403763 0.878803 0.142732
H45   H     H_    0.579469 0.112214 0.122168 0.155383
H46   H     H_    0.581248 0.110889 0.879730 0.175378
H47   H     H_    0.401725 0.902709 0.120149 0.141966
H48   H     H_    0.399950 0.904007 0.878822 0.142701
H49   H     H_    0.956700 0.625914 0.123309 0.144945
H50   H     H_    0.958971 0.626573 0.877517 0.142554
H51   H     H_    0.853680 0.503935 0.126200 0.135776
H52   H     H_    0.853826 0.506007 0.878287 0.134374
H53   H     H_    0.457144 0.126038 0.123359 0.144917
H54   H     H_    0.459336 0.126668 0.877532 0.142514
H55   H     H_    0.353699 0.004349 0.126179 0.135774
H56   H     H_    0.353845 0.006359 0.878265 0.134394
H57   H     H_    0.144528 0.473468 0.119995 0.221280
H58   H     H_    0.144615 0.468855 0.873901 0.204385
H59   H     H_    0.071308 0.384052 0.121529 0.143584
H60   H     H_    0.067651 0.382491 0.878616 0.134691
H61   H     H_    0.644426 0.973064 0.120028 0.221367
H62   H     H_    0.644525 0.968538 0.873946 0.204193
H63   H     H_    0.570892 0.883858 0.121524 0.143387
H64   H     H_    0.567316 0.882339 0.878575 0.134679
N1    N     N_3   0.001260 0.500000 0.143650 -0.131421
N2    N     N_3   0.001260 0.500000 0.856350 -0.126764
N3    N     N_3   0.501260 0.000000 0.143650 -0.131354
N4    N     N_3   0.501260 0.000000 0.856350 -0.126728
O1    O     O_R   0.091250 0.408820 0.620260 -0.592418
O2    O     O_R   0.091250 0.408820 0.379740 -0.577040
O3    O     O_R   0.091250 0.591180 0.620260 -0.578790
O4    O     O_R   0.091250 0.591180 0.379740 -0.567144
O5    O     O_R   0.591250 0.908820 0.620260 -0.592418
O6    O     O_R   0.591250 0.908820 0.379740 -0.577058
O7    O     O_R   0.591250 0.091180 0.620260 -0.578811
O8    O     O_R   0.591250 0.091180 0.379740 -0.567149
O9    O     O_R   0.908940 0.408800 0.620260 -0.603017
O10   O     O_R   0.908940 0.408800 0.379740 -0.604760
O11   O     O_R   0.908940 0.591200 0.620260 -0.602856
O12   O     O_R   0.908940 0.591200 0.379740 -0.602842
O13   O     O_R   0.408940 0.908800 0.620260 -0.603011
O14   O     O_R   0.408940 0.908800 0.379740 -0.604754
O15   O     O_R   0.408940 0.091200 0.620260 -0.602846
O16   O     O_R   0.408940 0.091200 0.379740 -0.602842
C53   C     C_2   0.292144 0.630249 0.706586 0.886055
O17   O     O_2   0.263647 0.589758 0.807298 -0.639959
O18   O     O_R   0.380914 0.615985 0.651401 -0.743606
H65   H     H_    0.417289 0.573487 0.706334 0.327729
C54   C     C_2   0.311355 0.594746 0.360975 0.928962
O19   O     O_2   0.261464 0.535968 0.335055 -0.581355
O20   O     O_R   0.407771 0.585250 0.357494 -0.754093
H66   H     H_    0.428632 0.527930 0.328458 0.357730
C55   C     C_2   0.300077 0.398472 0.669025 0.890247
O21   O     O_2   0.285563 0.460598 0.599691 -0.543215
O22   O     O_R   0.352739 0.402329 0.793315 -0.777381
H67   H     H_    0.373792 0.460095 0.818824 0.337655
C56   C     C_2   0.302989 0.369420 0.300550 0.929784
O23   O     O_2   0.369967 0.390031 0.371043 -0.610675
O24   O     O_R   0.291759 0.400724 0.163349 -0.775863
H68   H     H_    0.342028 0.441545 0.135647 0.341276
C57   C     C_2   0.792161 0.130228 0.706554 0.886040
O25   O     O_2   0.763663 0.089719 0.807244 -0.639866
O26   O     O_R   0.880931 0.115973 0.651362 -0.743606
H69   H     H_    0.917303 0.073459 0.706266 0.327749
C58   C     C_2   0.811344 0.094750 0.360933 0.928936
O27   O     O_2   0.761451 0.035973 0.335004 -0.581328
O28   O     O_R   0.907761 0.085254 0.357436 -0.754090
H70   H     H_    0.928619 0.027938 0.328376 0.357696
C59   C     C_2   0.800076 0.898466 0.669039 0.890313
O29   O     O_2   0.785569 0.960592 0.599699 -0.543210
O30   O     O_R   0.852736 0.902321 0.793330 -0.777356
H71   H     H_    0.873805 0.960085 0.818830 0.337675
C60   C     C_2   0.803034 0.869432 0.300588 0.929744
O31   O     O_2   0.870000 0.890035 0.371115 -0.610671
O32   O     O_R   0.791847 0.900729 0.163375 -0.775813
H72   H     H_    0.842130 0.941541 0.135695 0.341265

loop_
_geom_bond_atom_site_label_1
_geom_bond_atom_site_label_2
_ccdc_geom_bond_type
C16   C28   S    
C41   H33   S    
O32   H72   S    
C17   H13   S    
C57   O25   D    
C31   H29   S    
C29   C33   S    
C3    O6    A    
C51   N3    S    
C60   O31   D    
C7    H61   S    
C19   H15   S    
O20   H66   S    
Cu1   O11   S    
Cu3   Cu4   S    
C13   C25   S    
C14   C33   S    
C58   O27   D    
C8    H62   S    
C7    C8    S    
C4    O8    A    
C13   H9    S    
C45   C46   S    
C29   H25   S    
Cu2   O2    S    
C59   O29   D    
Cu3   O15   S    
C37   C41   S    
C25   H21   S    
C32   C36   S    
C11   O14   A    
C1    O1    A    
C38   C42   S    
C27   H23   S    
C19   C36   S    
C55   O22   S    
O26   H69   S    
C49   H45   S    
C5    C6    S    
Cu4   O16   S    
C26   C39   S    
C47   N1    S    
C13   H1    S    
C52   H56   S    
C51   H47   S    
O18   H65   S    
Cu2   O10   S    
C21   H17   S    
C50   H54   S    
C43   H38   S    
C47   H43   S    
C42   H35   S    
C16   H4    S    
C30   H27   S    
C6    H58   S    
Cu1   O3    S    
C16   C34   S    
C20   H16   S    
C20   C24   S    
C19   H7    S    
Cu3   O5    S    
C24   C38   S    
O22   H67   S    
C12   O16   A    
C16   H12   S    
C12   C36   S    
C18   C35   S    
C15   C34   S    
C17   H5    S    
C2    O3    A    
C41   H34   S    
C46   H42   S    
Cu2   O12   S    
C57   O26   S    
C31   H30   S    
C18   C22   S    
C5    H59   S    
C22   C54   S    
C9    C33   S    
C60   O32   S    
C30   C44   S    
C48   H44   S    
C58   O28   S    
C45   H49   S    
C54   O19   D    
C4    O7    A    
C14   H2    S    
C30   C34   S    
C51   C52   S    
Cu4   N3    S    
C7    H63   S    
C22   H18   S    
C50   N4    S    
C1    O2    A    
C23   H19   S    
O30   H71   S    
C23   C55   S    
C39   C43   S    
C45   N1    S    
Cu1   Cu2   S    
C22   C37   S    
Cu2   O4    S    
C17   C21   S    
C20   H8    S    
C19   C23   S    
C28   C40   S    
C13   C33   S    
C44   H40   S    
Cu4   O14   S    
C15   C27   S    
C47   C48   S    
C4    C39   S    
C27   C40   S    
C10   O12   A    
C15   H11   S    
C14   H10   S    
C12   O15   A    
Cu1   O9    S    
C10   C34   S    
C26   H22   S    
C14   C26   S    
C6    H60   S    
Cu4   O8    S    
Cu1   O1    S    
C1    C38   S    
C27   C59   S    
C29   C43   S    
Cu2   N1    S    
C3    C40   S    
C50   H46   S    
Cu3   O7    S    
C25   C57   S    
C31   C35   S    
C56   O24   S    
C6    N2    S    
C24   C56   S    
C8    H64   S    
C49   H53   S    
C9    O9    A    
Cu3   N4    S    
C52   H48   S    
C5    N1    S    
C51   H55   S    
C31   C41   S    
C5    H57   S    
C3    O5    A    
C15   H3    S    
C8    N4    S    
C7    N3    S    
C23   C38   S    
C26   C58   S    
C47   H51   S    
C18   H14   S    
Cu3   O13   S    
Cu1   N2    S    
C53   O18   S    
C11   O13   A    
C21   C53   S    
C10   O11   A    
C44   H39   S    
C45   H41   S    
C53   O17   D    
C9    O10   A    
C48   N2    S    
C52   N4    S    
C2    C37   S    
C48   H52   S    
C54   O20   S    
C46   H50   S    
C11   C35   S    
C43   H37   S    
C42   H36   S    
C30   H28   S    
C28   H24   S    
Cu4   O6    S    
O28   H70   S    
C24   H20   S    
C20   C36   S    
C28   C60   S    
C40   C44   S    
C21   C37   S    
C29   H26   S    
C49   N3    S    
C59   O30   S    
C49   C50   S    
O24   H68   S    
C32   C42   S    
C46   N2    S    
C18   H6    S    
C17   C35   S    
C32   H31   S    
C56   O23   D    
C55   O21   D    
C25   C39   S    
C2    O4    A    
C32   H32   S    
