data_mof_unit_32209.cif
_audit_creation_date              2012-12-10T19:10:04-0500
_audit_creation_method            fapswitch 2.2
_symmetry_space_group_name_H-M    P1
_symmetry_Int_Tables_number       1
_space_group_crystal_system       triclinic
_cell_length_a                    10.850755
_cell_length_b                    10.820878
_cell_length_c                    9.541808
_cell_angle_alpha                 90.181958
_cell_angle_beta                  90.161739
_cell_angle_gamma                 90.633126
_cell_volume                      1120.2698615

loop_
_atom_site_label
_atom_site_type_symbol
_atom_type_description
_atom_site_fract_x
_atom_site_fract_y
_atom_site_fract_z
_atom_type_partial_charge
C1    C     C_R   0.501892 0.262627 0.499900 0.837456
C2    C     C_R   0.236049 0.690721 0.013506 -0.133714
C3    C     C_R   0.933278 0.543736 0.385191 -0.200165
C4    C     C_R   0.871335 0.494298 0.500850 -0.083362
C5    C     C_R   0.938168 0.445772 0.614839 0.062201
C6    C     C_R   0.066033 0.452012 0.612719 -0.131236
C7    C     C_R   0.128147 0.502728 0.497777 -0.065394
C8    C     C_R   0.061021 0.548397 0.382035 0.048335
C9    C     C_R   0.865793 0.441324 0.865007 0.387437
C10   C     C_R   0.812630 0.377466 0.977462 -0.204401
C11   C     C_R   0.768210 0.256777 0.959108 -0.165636
C12   C     C_R   0.262228 0.501952 0.499408 0.855554
C13   C     C_R   0.777751 0.198856 0.828565 -0.102104
C14   C     C_R   0.833241 0.260927 0.716610 -0.163619
C15   C     C_R   0.878259 0.382178 0.734168 0.049275
C16   C     C_R   0.476751 0.064894 0.621236 0.027432
C17   C     C_R   0.510239 0.129897 0.501211 -0.035710
C18   C     C_R   0.556620 0.065018 0.385690 -0.198367
C19   C     C_R   0.555959 0.936093 0.386597 -0.185376
C20   C     C_R   0.508439 0.871437 0.502476 -0.018848
C21   C     C_R   0.477098 0.937722 0.623043 0.022721
C22   C     C_3   0.363022 0.932508 0.711243 -0.432787
C23   C     C_R   0.500350 0.737822 0.500426 0.830660
C24   C     C_3   0.363160 0.072748 0.708869 0.230396
C25   C     C_R   0.581456 0.572758 0.074001 0.266427
C26   C     C_R   0.430446 0.417417 0.073985 -0.076876
C27   C     C_R   0.430392 0.417449 0.924932 -0.104228
C28   C     C_R   0.581784 0.572383 0.926748 0.321057
C29   C     C_3   0.593947 0.709250 0.920747 -0.480900
C30   C     C_3   0.592733 0.709927 0.079471 -0.521424
C31   C     C_R   0.737573 0.496870 0.500359 0.797391
C32   C     C_R   0.231059 0.764334 0.133850 -0.168332
C33   C     C_R   0.172890 0.720026 0.254832 0.414085
C34   C     C_R   0.120409 0.600244 0.255398 0.045649
C35   C     C_R   0.125435 0.527439 0.133645 -0.164988
C36   C     C_R   0.182907 0.572809 0.013338 -0.036542
Cu1   Cu    Cu3+1 0.499990 0.499980 0.640670 0.970850
Cu2   Cu    Cu3+1 0.500010 0.500020 0.359330 0.955659
H1    H     H_    0.280574 0.724845 0.919991 0.144588
H2    H     H_    0.725577 0.208483 0.045857 0.143387
H3    H     H_    0.742570 0.105650 0.814242 0.145314
H4    H     H_    0.840984 0.214741 0.616174 0.149951
H5    H     H_    0.589752 0.113375 0.293717 0.148831
H6    H     H_    0.589933 0.887679 0.295839 0.147688
H7    H     H_    0.283621 0.887846 0.656903 0.276682
H8    H     H_    0.380203 0.897555 0.818264 0.132021
H9    H     H_    0.381165 0.115782 0.812974 0.094713
H10   H     H_    0.371200 0.353251 0.129450 0.153389
H11   H     H_    0.272076 0.855996 0.132821 0.160174
H12   H     H_    0.371019 0.353411 0.868631 0.152821
H13   H     H_    0.683122 0.740293 0.875377 0.250275
H14   H     H_    0.511693 0.752569 0.874751 0.198780
H15   H     H_    0.681794 0.740849 0.126358 0.216482
H16   H     H_    0.509080 0.754281 0.122541 0.212788
H17   H     H_    0.085202 0.435364 0.132144 0.147531
H18   H     H_    0.185966 0.516463 0.919650 0.148342
H19   H     H_    0.882071 0.580767 0.297254 0.170450
H20   H     H_    0.117253 0.413103 0.699460 0.161551
H21   H     H_    0.803659 0.422133 0.078554 0.157426
N1    N     N_R   0.500790 0.500930 0.147930 -0.192004
N2    N     N_R   0.500790 0.500890 0.852020 -0.197754
O1    O     O_R   0.500000 0.319640 0.618810 -0.582909
O2    O     O_R   0.500010 0.319680 0.381230 -0.591729
O3    O     O_R   0.319640 0.499990 0.618790 -0.583456
O4    O     O_R   0.319650 0.500030 0.381210 -0.580500
O5    O     O_R   0.499990 0.680320 0.618770 -0.586847
O6    O     O_R   0.500000 0.680360 0.381190 -0.585526
O7    O     O_R   0.680350 0.499970 0.618790 -0.560910
O8    O     O_R   0.680360 0.500010 0.381210 -0.599592
Cl1   Cl    Cl    0.233141 0.134041 0.617669 -0.597404
Cl2   Cl    Cl    0.165228 0.816862 0.402642 -0.622450
Cl3   Cl    Cl    0.908218 0.597460 0.887580 -0.680680

loop_
_geom_bond_atom_site_label_1
_geom_bond_atom_site_label_2
_ccdc_geom_bond_type
C17   C18   A    
Cu1   N2    S    
C20   C23   S    
C16   C21   A    
C36   H18   S    
C25   N1    A    
C11   C13   A    
C12   O4    A    
C6    H20   S    
C1    C17   S    
C19   C20   A    
C9    Cl3   S    
C26   H10   S    
C14   H4    S    
Cu1   O5    S    
Cu1   O3    S    
C13   H3    S    
Cu1   O1    S    
C9    C15   A    
Cu2   O8    S    
C24   Cl1   S    
C7    C8    A    
C16   C24   S    
C8    C34   S    
C13   C14   A    
C32   C33   A    
C25   C28   A    
C18   H5    S    
C30   H16   S    
C26   C27   A    
C29   C30   S    
C26   N1    A    
C1    O1    A    
Cu2   N1    S    
C5    C6    A    
C3    H19   S    
C23   O5    A    
C28   C29   S    
C22   H8    S    
Cu1   Cu2   S    
C33   C34   A    
C6    C7    A    
C3    C8    A    
C29   H13   S    
C31   O7    A    
C12   O3    A    
C30   H15   S    
C22   C24   S    
C7    C12   S    
C5    C15   S    
C4    C31   S    
C32   H11   S    
C10   C11   A    
C33   Cl2   S    
C28   N2    A    
C35   H17   S    
C11   H2    S    
Cu2   O6    S    
Cu1   O7    S    
C1    O2    A    
C31   O8    A    
C22   H7    S    
C2    C36   A    
C19   H6    S    
C27   H12   S    
C2    C32   A    
C34   C35   A    
C9    C10   A    
C23   O6    A    
C25   C30   S    
Cu2   O2    S    
C14   C15   A    
C18   C19   A    
C24   H9    S    
C27   N2    A    
C20   C21   A    
C21   C22   S    
Cu2   O4    S    
C10   H21   S    
C2    H1    S    
C29   H14   S    
C3    C4    A    
C16   C17   A    
C4    C5    A    
C35   C36   A    
