data_mof_unit_32599.cif
_audit_creation_date              2012-12-10T18:00:49-0500
_audit_creation_method            fapswitch 2.2
_symmetry_space_group_name_H-M    P1
_symmetry_Int_Tables_number       1
_space_group_crystal_system       triclinic
_cell_length_a                    15.86924
_cell_length_b                    10.820048
_cell_length_c                    9.534309
_cell_angle_alpha                 90.771407
_cell_angle_beta                  91.062734
_cell_angle_gamma                 89.671615
_cell_volume                      1636.64292075

loop_
_atom_site_label
_atom_site_type_symbol
_atom_type_description
_atom_site_fract_x
_atom_site_fract_y
_atom_site_fract_z
_atom_type_partial_charge
C1    C     C_R   0.502975 0.262369 0.499068 0.867277
C2    C     C_R   0.497418 0.737765 0.500991 0.878471
C3    C     C_R   0.548451 0.930677 0.406487 -0.306778
C4    C     C_R   0.452926 0.069738 0.594226 -0.296489
C5    C     C_R   0.497082 0.871801 0.502593 -0.200484
C6    C     C_R   0.503985 0.128528 0.497851 -0.201863
C7    C     C_R   0.445553 0.426955 0.071569 0.051168
C8    C     C_R   0.554403 0.573113 0.928426 0.062472
C9    C     C_R   0.445614 0.426909 0.922870 0.027510
C10   C     C_R   0.554372 0.573111 0.077128 0.052482
C11   C     C_R   0.339827 0.498989 0.498646 0.839573
C12   C     C_R   0.660141 0.499933 0.501364 0.838055
C13   C     C_3   0.975024 0.404396 0.586335 -0.250741
C14   C     C_3   0.024685 0.587628 0.414757 -0.301463
C15   C     C_3   0.026844 0.386676 0.451089 -0.033193
C16   C     C_3   0.972981 0.605350 0.550109 -0.006721
C17   C     C_1   0.250158 0.498167 0.495260 -0.109141
C18   C     C_1   0.749727 0.498100 0.504997 -0.077987
C19   C     C_3   0.031763 0.515070 0.628836 0.470993
C20   C     C_3   0.967950 0.476927 0.372340 0.380572
C21   C     C_3   0.082956 0.496576 0.495141 -0.041235
C22   C     C_3   0.916830 0.495575 0.506094 -0.025937
C23   C     C_1   0.174647 0.497532 0.493442 0.053443
C24   C     C_1   0.825197 0.496455 0.507397 0.065541
C25   C     C_R   0.553449 0.058802 0.403735 0.368568
C26   C     C_R   0.448226 0.941754 0.597524 0.450985
Cu1   Cu    Cu3+1 0.500000 0.500020 0.640660 1.021316
Cu2   Cu    Cu3+1 0.500000 0.499980 0.359340 1.033710
H1    H     H_    0.953848 0.330488 0.657009 0.195858
H2    H     H_    0.045813 0.661379 0.343836 0.185476
H3    H     H_    0.586289 0.875780 0.335285 0.198660
H4    H     H_    0.415088 0.124697 0.665370 0.198625
H5    H     H_    0.402066 0.368151 0.125269 0.124981
H6    H     H_    0.597886 0.631919 0.874723 0.130940
H7    H     H_    0.402122 0.368061 0.864754 0.134436
H8    H     H_    0.597870 0.631948 0.135244 0.131224
N1    N     N_R   0.500020 0.500030 0.852070 -0.171950
N2    N     N_R   0.499980 0.499970 0.147930 -0.166044
O1    O     O_R   0.500000 0.319660 0.618740 -0.594376
O2    O     O_R   0.500000 0.680340 0.381260 -0.597502
O3    O     O_R   0.499990 0.319630 0.381170 -0.533721
O4    O     O_R   0.500010 0.680370 0.618830 -0.535390
O5    O     O_R   0.379080 0.500000 0.618760 -0.560438
O6    O     O_R   0.620920 0.500000 0.381240 -0.539154
O7    O     O_R   0.379080 0.499970 0.381190 -0.591566
O8    O     O_R   0.620920 0.500030 0.618810 -0.594719
C27   C     C_3   0.063370 0.264384 0.396782 -0.381533
C28   C     C_3   0.995163 0.166576 0.372695 -0.286402
C29   C     C_3   0.032724 0.047413 0.312949 -0.788792
H9    H     H_    0.058343 0.063867 0.207217 0.275340
H10   H     H_    0.084221 0.013043 0.382830 0.250546
H11   H     H_    0.983034 0.975767 0.303521 0.254630
H12   H     H_    0.964476 0.146857 0.473526 0.215801
H13   H     H_    0.946268 0.200503 0.298036 0.291755
H14   H     H_    0.096716 0.281343 0.297555 0.216022
H15   H     H_    0.110240 0.230159 0.475376 0.212202
C30   C     C_3   0.937294 0.727754 0.605544 -0.377712
C31   C     C_3   0.005666 0.826256 0.622824 -0.338472
C32   C     C_3   0.969712 0.945548 0.684958 -0.784416
H16   H     H_    0.916364 0.979674 0.618851 0.256717
H17   H     H_    0.947150 0.929422 0.792750 0.268408
H18   H     H_    0.019485 0.017287 0.690138 0.258501
H19   H     H_    0.057200 0.793053 0.692892 0.269853
H20   H     H_    0.032785 0.845600 0.519079 0.226011
H21   H     H_    0.888188 0.760843 0.530127 0.210997
H22   H     H_    0.906926 0.711346 0.707608 0.231639
S1    S     S_3+6 0.921577 0.455195 0.201862 0.049619
O9    O     O_2   0.845619 0.373623 0.210916 -0.224657
O10   O     O_2   0.894840 0.578251 0.144483 -0.248214
O11   O     O_3   0.991776 0.387983 0.095092 -0.441283
H23   H     H_    0.045706 0.430127 0.117470 0.365346
S2    S     S_3+6 0.077241 0.535404 0.799890 0.008953
O12   O     O_2   0.106184 0.412097 0.853620 -0.252014
O13   O     O_2   0.151845 0.619961 0.794398 -0.339293
O14   O     O_3   0.004739 0.595833 0.907672 -0.468138
H24   H     H_    0.018687 0.684650 0.917508 0.358042
S3    S     S_3+6 0.625504 0.126703 0.287560 0.048553
O15   O     O_2   0.675592 0.224596 0.364342 -0.252115
O16   O     O_2   0.685320 0.031151 0.230312 -0.275242
O17   O     O_3   0.572399 0.191813 0.153127 -0.483754
H25   H     H_    0.537025 0.124701 0.112552 0.340641
S4    S     S_3+6 0.376936 0.874535 0.715081 0.018900
O18   O     O_2   0.425726 0.816565 0.834018 -0.284616
O19   O     O_2   0.318079 0.970811 0.773534 -0.284989
O20   O     O_3   0.319988 0.765968 0.629598 -0.547354
H26   H     H_    0.291134 0.720825 0.704271 0.405075

loop_
_geom_bond_atom_site_label_1
_geom_bond_atom_site_label_2
_ccdc_geom_bond_type
C20   S1    S    
C15   C27   S    
C30   H22   S    
S3    O15   D    
C28   H13   S    
C17   C23   T    
C25   S3    S    
C14   C21   S    
C13   H1    S    
C19   C21   S    
Cu1   N1    S    
C6    C25   A    
Cu2   O2    S    
Cu2   O3    S    
Cu1   O1    S    
C29   H10   S    
C11   O5    A    
O11   H23   S    
C18   C24   T    
C32   H16   S    
C26   S4    S    
C7    H5    S    
C19   S2    S    
C15   C20   S    
C14   H2    S    
S2    O14   S    
S3    O16   D    
C31   H20   S    
C28   H12   S    
Cu2   O7    S    
C32   H17   S    
C13   C19   S    
C1    C6    S    
C14   C20   S    
C3    C25   A    
C4    C6    A    
S2    O12   D    
C31   C32   S    
O20   H26   S    
Cu2   O6    S    
S1    O9    D    
S1    O10   D    
C12   O8    A    
O14   H24   S    
Cu1   O5    S    
C27   C28   S    
Cu2   N2    S    
C29   H11   S    
C9    N1    A    
C8    H6    S    
C3    H3    S    
C4    H4    S    
Cu1   O8    S    
S2    O13   D    
C28   C29   S    
C20   C22   S    
S4    O18   D    
S4    O19   D    
C13   C15   S    
C14   C16   S    
C11   O7    A    
C2    C5    S    
C8    N1    A    
C27   H14   S    
S3    O17   S    
C1    O3    A    
C31   H19   S    
C7    C9    A    
C11   C17   S    
C32   H18   S    
C16   C22   S    
C30   H21   S    
O17   H25   S    
C3    C5    A    
C4    C26   A    
S4    O20   S    
C10   N2    A    
S1    O11   S    
C21   C23   S    
C12   O6    A    
Cu1   O4    S    
C30   C31   S    
C2    O4    A    
C16   C19   S    
C7    N2    A    
C13   C22   S    
C22   C24   S    
C16   C30   S    
C1    O1    A    
C5    C26   A    
C2    O2    A    
C15   C21   S    
C8    C10   A    
C29   H9    S    
C12   C18   S    
Cu1   Cu2   S    
C9    H7    S    
C10   H8    S    
C27   H15   S    
