data_mof_unit_46585.cif
_audit_creation_date              2012-12-11T18:37:45-0500
_audit_creation_method            fapswitch 2.2
_symmetry_space_group_name_H-M    P1
_symmetry_Int_Tables_number       1
_space_group_crystal_system       triclinic
_cell_length_a                    8.232875
_cell_length_b                    14.28872
_cell_length_c                    26.950762
_cell_angle_alpha                 92.613984
_cell_angle_beta                  93.257513
_cell_angle_gamma                 88.291308
_cell_volume                      3160.8187418

loop_
_atom_site_label
_atom_site_type_symbol
_atom_type_description
_atom_site_fract_x
_atom_site_fract_y
_atom_site_fract_z
_atom_type_partial_charge
Ba1   Ba    Ba6+2 0.849670 0.455410 0.524690 1.684961
Ba2   Ba    Ba6+2 0.340150 0.544510 0.475310 1.662073
C1    C     C_3   0.730264 0.123619 0.684943 0.266082
C2    C     C_R   0.925756 0.592286 0.174850 0.574202
C3    C     C_2   0.762061 0.564478 0.269873 -0.083355
C4    C     C_3   0.182952 0.227176 0.661657 0.332218
C5    C     C_3   0.749063 0.592684 0.324099 -0.041729
C6    C     C_1   0.974669 0.481636 0.342538 -0.026837
C7    C     C_2   0.012647 0.477472 0.294854 -0.129546
C8    C     C_2   0.897958 0.517889 0.255065 0.214975
C9    C     C_R   0.011022 0.503037 0.100922 -0.080529
C10   C     C_R   0.018076 0.421567 0.128663 -0.033235
C11   C     C_R   0.062315 0.336063 0.104935 -0.060205
C12   C     C_3   0.687975 0.210105 0.655348 0.362343
C13   C     C_R   0.965104 0.588851 0.124435 -0.024355
C14   C     C_2   0.845899 0.529359 0.358364 -0.270151
C15   C     C_2   0.339659 0.466679 0.640370 -0.263216
C16   C     C_3   0.245231 0.166728 0.704056 -0.332879
C17   C     C_R   0.117632 0.406402 0.973700 0.020034
C18   C     C_R   0.091963 0.578600 0.972182 0.020753
C19   C     C_R   0.123266 0.490448 0.947532 0.049845
C20   C     C_R   0.140649 0.320267 0.946631 -0.101528
C21   C     C_R   0.172711 0.316970 0.896362 -0.062696
C22   C     C_R   0.184679 0.399294 0.870627 -0.028437
C23   C     C_3   0.533138 0.674098 0.622490 0.288126
C24   C     C_R   0.160392 0.486290 0.896129 -0.080276
C25   C     C_R   0.172758 0.569082 0.870193 -0.033672
C26   C     C_R   0.212328 0.563859 0.819598 0.592184
C27   C     C_R   0.219383 0.396078 0.819754 0.590981
C28   C     C_3   0.154429 0.258840 0.346077 0.447151
C29   C     C_2   0.411021 0.422387 0.728517 -0.099434
C30   C     C_3   0.434120 0.400827 0.673844 -0.066851
C31   C     C_1   0.211790 0.514836 0.656169 0.028171
C32   C     C_2   0.172182 0.519809 0.703471 -0.087960
C33   C     C_2   0.278390 0.472957 0.742815 0.216593
C34   C     C_3   0.532069 0.695157 0.678283 -0.368112
C35   C     C_R   0.087782 0.410994 0.025588 0.019890
C36   C     C_R   0.048986 0.498754 0.049580 0.049433
C37   C     C_R   0.047171 0.582330 0.022749 0.020186
C38   C     C_R   0.096040 0.330707 0.054706 -0.100067
C39   C     C_R   0.958356 0.670047 0.097056 -0.060151
C40   C     C_3   0.001330 0.230441 0.315457 -0.366548
C41   C     C_R   0.107660 0.660348 0.945197 -0.100042
C42   C     C_R   0.147263 0.655529 0.895534 -0.061668
C43   C     C_R   0.998604 0.667076 0.047554 -0.102185
C44   C     C_R   0.687059 0.064772 0.472184 -0.015191
C45   C     C_3   0.085815 0.746406 0.333561 0.337437
C46   C     C_R   0.505663 0.197568 0.499321 0.058043
C47   C     C_R   0.364211 0.228091 0.521883 -0.240807
C48   C     C_R   0.266069 0.164896 0.542893 0.023776
C49   C     C_R   0.313664 0.070627 0.544379 -0.120956
C50   C     C_R   0.456765 0.038382 0.522312 0.024363
C51   C     C_R   0.551385 0.100976 0.497631 -0.015525
C52   C     C_3   0.033628 0.743153 0.575533 0.300019
C53   C     C_R   0.639893 0.908083 0.499233 -0.022340
C54   C     C_R   0.733047 0.969442 0.473285 -0.003107
C55   C     C_R   0.685065 0.812181 0.499175 0.021951
C56   C     C_3   0.103835 0.772845 0.280182 -0.298343
C57   C     C_R   0.817622 0.778266 0.473114 -0.290129
C58   C     C_R   0.916803 0.839079 0.450787 0.010271
C59   C     C_R   0.873475 0.934740 0.449904 -0.143000
C60   C     C_R   0.503711 0.943871 0.523963 -0.008197
C61   C     C_3   0.038532 0.848764 0.585458 -0.372853
C62   C     C_3   0.659657 0.342465 0.379503 0.321758
C63   C     C_3   0.613209 0.332234 0.324049 -0.365406
C64   C     C_3   0.706317 0.963492 0.685050 0.138642
C65   C     C_3   0.552197 0.796271 0.354754 0.333511
C66   C     C_3   0.519698 0.892106 0.333431 -0.336508
C67   C     C_R   0.980781 0.427192 0.179544 0.595776
H1    H     H_    0.739738 0.201267 0.618244 0.091396
H2    H     H_    0.793227 0.343613 0.385061 -0.005082
H3    H     H_    0.604648 0.409706 0.393607 0.065164
H4    H     H_    0.643072 0.260264 0.309398 0.142262
H5    H     H_    0.678692 0.383229 0.303413 0.062804
H6    H     H_    0.481417 0.346592 0.317260 0.134836
H7    H     H_    0.553563 0.214333 0.650090 -0.087897
H8    H     H_    0.669903 0.131847 0.720934 0.009527
H9    H     H_    0.407656 0.658082 0.608298 0.018219
H10   H     H_    0.614688 0.612050 0.615853 0.083014
H11   H     H_    0.447634 0.755386 0.686192 0.126416
H12   H     H_    0.932926 0.293508 0.302977 0.089651
H13   H     H_    0.491377 0.633095 0.697028 0.089047
H14   H     H_    0.656482 0.712402 0.693374 0.122765
H15   H     H_    0.864331 0.118649 0.692478 0.072590
H16   H     H_    0.343906 0.202999 0.726394 0.116593
H17   H     H_    0.162005 0.682229 0.340300 0.095094
H18   H     H_    0.956266 0.731793 0.338250 -0.056183
H19   H     H_    0.219592 0.809061 0.276621 0.146237
H20   H     H_    0.105992 0.708389 0.255792 0.121185
H21   H     H_    0.000955 0.819879 0.267881 0.124965
H22   H     H_    0.685960 0.782346 0.355661 -0.060715
H23   H     H_    0.034296 0.188053 0.281792 0.141144
H24   H     H_    0.510652 0.798758 0.393339 0.080327
H25   H     H_    0.589319 0.945603 0.356244 0.096223
H26   H     H_    0.388270 0.911286 0.333846 0.176666
H27   H     H_    0.125118 0.292584 0.677149 0.077056
H28   H     H_    0.558306 0.891537 0.294600 0.122633
H29   H     H_    0.128973 0.447181 0.284539 0.107098
H30   H     H_    0.070799 0.272190 0.125220 0.121379
H31   H     H_    0.490307 0.387458 0.755886 0.097941
H32   H     H_    0.188928 0.248864 0.877651 0.117220
H33   H     H_    0.131326 0.253381 0.962946 0.067664
H34   H     H_    0.923127 0.188709 0.337823 0.133542
H35   H     H_    0.131495 0.262243 0.040043 0.068660
H36   H     H_    0.673660 0.593147 0.242825 0.113401
H37   H     H_    0.921776 0.737109 0.113931 0.122222
H38   H     H_    0.093460 0.729970 0.961656 0.067677
H39   H     H_    0.289784 0.245646 0.641257 -0.076164
H40   H     H_    0.157771 0.720548 0.876931 0.119001
H41   H     H_    0.061860 0.557347 0.713951 0.114633
H42   H     H_    0.986696 0.732749 0.029460 0.068584
H43   H     H_    0.826362 0.538627 0.397777 0.074049
H44   H     H_    0.365766 0.462974 0.601307 0.078560
H45   H     H_    0.907761 0.723149 0.565173 -0.001629
H46   H     H_    0.327412 0.301438 0.521771 0.075505
H47   H     H_    0.238500 0.022706 0.562263 0.067146
H48   H     H_    0.950003 0.981777 0.431888 0.099893
H49   H     H_    0.850780 0.704396 0.473262 0.061512
H50   H     H_    0.758331 0.109485 0.451203 0.103134
H51   H     H_    0.145030 0.153259 0.728452 0.131252
H52   H     H_    0.430834 0.898838 0.544296 0.088333
H53   H     H_    0.295100 0.098880 0.688896 0.114678
H54   H     H_    0.227117 0.304418 0.324280 0.011312
H55   H     H_    0.636378 0.967096 0.719242 0.036572
H56   H     H_    0.113113 0.723608 0.544640 0.071969
H57   H     H_    0.838729 0.953528 0.694721 0.036782
H58   H     H_    0.666102 0.901112 0.662179 0.112979
H59   H     H_    0.952539 0.870900 0.614291 0.128599
H60   H     H_    0.003909 0.885786 0.551051 0.069664
H61   H     H_    0.163490 0.868921 0.598598 0.116273
I1    I     I_    0.297267 0.134368 0.359791 -0.505027
N1    N     N_R   0.935451 0.512148 0.202405 -0.422090
N2    N     N_R   0.236070 0.477866 0.794861 -0.422406
O1    O     O_2   0.918080 0.549800 0.616640 -0.452306
O2    O     O_2   0.254645 0.834785 0.457073 -0.481431
O3    O     O_3   0.137151 0.820623 0.365956 -0.591454
O4    O     O_3   0.150070 0.549720 0.556460 -0.497559
O5    O     O_3   0.546340 0.387390 0.478340 -0.482906
O6    O     O_2   0.398940 0.728800 0.517420 -0.467253
O7    O     O_3   0.588483 0.752466 0.599598 -0.653768
O8    O     O_2   0.412896 0.547149 0.321296 -0.500929
O9    O     O_3   0.466991 0.727921 0.325203 -0.597111
O10   O     O_2   0.986227 0.356068 0.203160 -0.610303
O11   O     O_2   0.233248 0.320142 0.797472 -0.621866
O12   O     O_3   0.604691 0.264904 0.402942 -0.605219
O13   O     O_2   0.883453 0.667339 0.194240 -0.621682
O14   O     O_2   0.227397 0.635972 0.797789 -0.600877
O15   O     O_3   0.658250 0.379560 0.591530 -0.489266
O16   O     O_2   0.748490 0.473935 0.676481 -0.479651
O17   O     O_3   0.086238 0.699399 0.619051 -0.631689
O18   O     O_3   0.751606 0.290328 0.680904 -0.622886
O19   O     O_2   0.790750 0.271170 0.482550 -0.459429
O20   O     O_3   0.062300 0.331660 0.568480 -0.476641
O21   O     O_2   0.926847 0.165952 0.542870 -0.483980
O22   O     O_3   0.674801 0.043608 0.657063 -0.661458
O23   O     O_3   0.067046 0.177614 0.631502 -0.607992
O24   O     O_2   0.271610 0.450170 0.383330 -0.464049
O25   O     O_3   0.039630 0.450200 0.443530 -0.456468
O26   O     O_3   0.531440 0.620360 0.408460 -0.476032
O27   O     O_3   0.115265 0.299439 0.392672 -0.596256
O28   O     O_3   0.643350 0.612530 0.521650 -0.476572
O29   O     O_3   0.127390 0.668260 0.431510 -0.495135
P1    P     P_3+3 0.090020 0.577590 0.608380 0.988612
P2    P     P_3+3 0.614340 0.285150 0.467650 1.025668
P3    P     P_3+3 0.078652 0.209369 0.569996 0.986416
P4    P     P_3+3 0.099670 0.422330 0.391610 1.004882
P5    P     P_3+3 0.108731 0.790692 0.426976 0.953757
P6    P     P_3+3 0.649743 0.388580 0.656410 0.951952
P7    P     P_3+3 0.583018 0.728472 0.535303 0.934989
P8    P     P_3+3 0.538374 0.617907 0.343909 0.942315

loop_
_geom_bond_atom_site_label_1
_geom_bond_atom_site_label_2
_ccdc_geom_bond_type
C27   N2    Am   
C53   C54   A    
C7    H29   S    
O26   P8    S    
C62   O12   S    
C4    H39   S    
C19   C24   A    
C40   H34   S    
C33   N2    S    
C15   H44   S    
C52   O17   S    
C3    H36   S    
C64   H58   S    
C28   O27   S    
O17   P1    S    
O16   P6    D    
O25   P4    S    
C24   C25   A    
O7    P7    S    
Ba2   O6    S    
Ba1   O25   S    
C17   C19   A    
C22   C24   A    
C32   C33   S    
C35   C38   A    
C67   N1    Am   
C36   C37   A    
C45   O3    S    
C55   C57   A    
C52   C61   S    
C21   H32   S    
C34   H14   S    
O18   P6    S    
C53   C60   A    
C63   H4    S    
O1    P1    D    
Ba1   O19   S    
Ba1   Ba2   S    
C61   H61   S    
C26   N2    Am   
C66   H28   S    
C11   C38   A    
C17   C35   A    
C22   C27   A    
C9    C13   A    
C25   C42   A    
Ba1   P2    S    
C34   H13   S    
C6    C7    D    
C12   O18   S    
C21   C22   A    
O21   P3    D    
O27   P4    S    
C7    C8    S    
Ba2   P4    S    
C40   H23   S    
C61   H59   S    
C37   C43   A    
O28   P7    S    
C42   H40   S    
C61   H60   S    
Ba1   O28   S    
C57   C58   A    
C6    C14   D    
C12   H1    S    
Ba2   O29   S    
C40   H12   S    
C15   C31   D    
Ba2   O28   S    
C65   H22   S    
C31   C32   D    
O24   P4    D    
C55   P7    S    
C46   C51   A    
C4    C16   S    
C52   H56   S    
C16   H16   S    
C39   H37   S    
C59   H48   S    
C49   C50   A    
Ba2   O5    S    
C45   H17   S    
C23   O7    S    
C13   C39   A    
C2    N1    Am   
C34   H11   S    
C3    C5    S    
C18   C37   A    
Ba2   O26   S    
C27   O11   D    
C23   H9    S    
C66   H25   S    
C63   H5    S    
C65   C66   S    
C58   C59   A    
C45   H18   S    
C11   H30   S    
C9    C36   A    
C41   C42   A    
C35   C36   A    
C38   H35   S    
C29   C30   S    
Ba2   O25   S    
C2    O13   D    
C17   C20   A    
C48   P3    S    
C1    O22   S    
C48   C49   A    
C54   C59   A    
C41   H38   S    
C29   H31   S    
C18   C19   A    
Ba1   O20   S    
C28   H54   S    
C56   H21   S    
C66   H26   S    
O19   P2    D    
C1    C12   S    
C6    P4    S    
C16   H53   S    
C46   C47   A    
C47   H46   S    
C10   C67   A    
C57   H49   S    
C4    H27   S    
C53   C55   A    
C32   H41   S    
C64   H55   S    
Ba1   O1    S    
C1    H8    S    
C16   H51   S    
C1    H15   S    
C18   C41   A    
Ba1   O4    S    
C50   C51   A    
C14   H43   S    
O4    P1    S    
C5    C14   S    
C26   O14   D    
C39   C43   A    
O20   P3    S    
C23   H10   S    
Ba2   O4    S    
C56   H19   S    
C58   P5    S    
C9    C10   A    
C43   H42   S    
C46   P2    S    
O12   P2    S    
C67   O10   D    
C62   H2    S    
C49   H47   S    
C20   H33   S    
O9    P8    S    
C62   C63   S    
C2    C13   A    
C30   P6    S    
C3    C8    D    
C50   C60   A    
C45   C56   S    
C64   O22   S    
O23   P3    S    
Ba2   O24   S    
O15   P6    S    
C52   H45   S    
C44   C51   A    
O8    P8    D    
C31   P1    S    
C44   H50   S    
O6    P7    D    
C29   C33   D    
C62   H3    S    
C56   H20   S    
C8    N1    S    
O3    P5    S    
Ba1   O5    S    
C23   C34   S    
O29   P5    S    
C64   H57   S    
C10   C11   A    
Ba1   P1    S    
C47   C48   A    
C5    P8    S    
C44   C54   A    
C25   C26   A    
C65   H24   S    
C15   C30   S    
O2    P5    D    
C20   C21   A    
C28   C40   S    
Ba1   O15   S    
O5    P2    S    
C65   O9    S    
C60   H52   S    
C4    O23   S    
C63   H6    S    
C28   I1    S    
C12   H7    S    
