data_mof_unit_13290.cif
_audit_creation_date              2012-12-10T17:10:24-0500
_audit_creation_method            fapswitch 2.2
_symmetry_space_group_name_H-M    P1
_symmetry_Int_Tables_number       1
_space_group_crystal_system       triclinic
_cell_length_a                    10.882678
_cell_length_b                    13.074557
_cell_length_c                    11.717459
_cell_angle_alpha                 100.599594
_cell_angle_beta                  93.436551
_cell_angle_gamma                 92.358236
_cell_volume                      1633.52283716

loop_
_atom_site_label
_atom_site_type_symbol
_atom_type_description
_atom_site_fract_x
_atom_site_fract_y
_atom_site_fract_z
_atom_type_partial_charge
C1    C     C_R   0.503080 0.298843 0.477020 0.800962
C2    C     C_R   0.502086 0.700619 0.521602 0.870732
C3    C     C_R   0.519101 0.813702 0.531733 -0.217896
C4    C     C_R   0.510270 0.184045 0.459322 -0.177937
C5    C     C_R   0.422274 0.014374 0.360477 -0.058930
C6    C     C_R   0.649846 0.972651 0.594825 -0.046518
C7    C     C_R   0.449879 0.119896 0.359442 -0.111946
C8    C     C_R   0.624159 0.866410 0.595918 -0.083061
C9    C     C_R   0.575340 0.137082 0.542594 -0.029690
C10   C     C_R   0.441294 0.865678 0.462958 -0.050199
C11   C     C_R   0.567501 0.026870 0.531165 0.011590
C12   C     C_R   0.474224 0.968993 0.452397 0.027513
C13   C     C_R   0.388454 0.395441 0.022548 -0.253237
C14   C     C_R   0.614596 0.601939 0.977118 -0.228139
C15   C     C_R   0.399104 0.406169 0.143862 0.150423
C16   C     C_R   0.604914 0.590754 0.855819 0.093932
C17   C     C_R   0.544634 0.549360 0.157383 0.195173
C18   C     C_R   0.450400 0.454383 0.842770 0.165130
C19   C     C_R   0.540636 0.537988 0.033958 0.006818
C20   C     C_R   0.459784 0.461298 0.965750 -0.004915
C21   C     C_R   0.262421 0.501817 0.501714 0.819628
C22   C     C_R   0.736699 0.487378 0.498339 0.870005
C23   C     C_R   0.125030 0.601847 0.707791 0.037501
C24   C     C_R   0.872569 0.353387 0.302977 -0.087758
C25   C     C_R   0.074211 0.602109 0.815105 -0.127732
C26   C     C_R   0.930120 0.265078 0.249697 -0.146131
C27   C     C_R   0.965213 0.545473 0.820581 -0.169426
C28   C     C_R   0.052156 0.251139 0.280298 -0.111526
C29   C     C_R   0.899120 0.497857 0.718392 -0.108463
C30   C     C_R   0.120389 0.328578 0.358491 -0.137506
C31   C     C_R   0.943092 0.503748 0.608043 0.058089
C32   C     C_R   0.062309 0.415211 0.419232 0.064275
C33   C     C_R   0.066911 0.537530 0.604634 0.033986
C34   C     C_R   0.932812 0.419394 0.403196 -0.005258
C35   C     C_R   0.871127 0.471263 0.500345 -0.135987
C36   C     C_R   0.128443 0.491546 0.505147 -0.129453
Cu1   Cu    Cu3+1 0.509250 0.507730 0.615930 1.015589
Cu2   Cu    Cu3+1 0.490750 0.492270 0.384070 1.047205
H1    H     H_    0.095066 0.182748 0.237876 0.225121
H2    H     H_    0.929118 0.541953 0.903995 0.167805
H3    H     H_    0.324185 0.335307 0.974342 0.161023
H4    H     H_    0.681079 0.660222 0.025363 0.174481
H5    H     H_    0.118450 0.647150 0.894982 0.173017
H6    H     H_    0.883958 0.211527 0.176537 0.183869
H7    H     H_    0.817055 0.452103 0.728255 0.204306
H8    H     H_    0.216541 0.315876 0.377010 0.147717
H9    H     H_    0.662820 0.639691 0.813929 0.168250
H10   H     H_    0.343093 0.356171 0.185965 0.128293
N1    N     N_R   0.523180 0.519350 0.790130 -0.229867
N2    N     N_R   0.476820 0.480650 0.209870 -0.211184
O1    O     O_R   0.506570 0.354460 0.582000 -0.570847
O2    O     O_R   0.493430 0.645540 0.418000 -0.541218
O3    O     O_R   0.490940 0.341410 0.386200 -0.579147
O4    O     O_R   0.509060 0.658590 0.613800 -0.570141
O5    O     O_R   0.327470 0.506520 0.597900 -0.577382
O6    O     O_R   0.672530 0.493480 0.402100 -0.547100
O7    O     O_R   0.311840 0.493460 0.402100 -0.583474
O8    O     O_R   0.688160 0.506540 0.597900 -0.605452
C37   C     C_2   0.226625 0.679944 0.707242 0.858401
O9    O     O_2   0.305613 0.698777 0.788211 -0.568649
O10   O     O_R   0.227534 0.737184 0.618340 -0.763326
H11   H     H_    0.292010 0.797009 0.636876 0.335621
C38   C     C_2   0.782458 0.390715 0.223702 0.916997
O11   O     O_2   0.683244 0.343184 0.196849 -0.493770
O12   O     O_R   0.815252 0.472112 0.167434 -0.737919
H12   H     H_    0.902199 0.502390 0.191424 0.311679
C39   C     C_2   0.316435 0.819116 0.417048 0.853407
O13   O     O_2   0.303767 0.735227 0.350276 -0.540281
O14   O     O_R   0.212846 0.875132 0.447874 -0.717892
H13   H     H_    0.132989 0.837136 0.411177 0.367731
C40   C     C_2   0.648480 0.203430 0.642437 0.905384
O15   O     O_2   0.727641 0.266674 0.624712 -0.612419
O16   O     O_R   0.627985 0.191991 0.756191 -0.692543
H14   H     H_    0.683051 0.241656 0.816459 0.347808
C41   C     C_2   0.712946 0.808432 0.657151 0.877853
O17   O     O_2   0.722935 0.824574 0.763499 -0.539648
O18   O     O_R   0.785580 0.736525 0.592784 -0.774247
H15   H     H_    0.845008 0.704572 0.644357 0.331882
C42   C     C_2   0.428616 0.157514 0.248094 0.883577
O19   O     O_2   0.516859 0.184442 0.198978 -0.505108
O20   O     O_R   0.309942 0.154640 0.195244 -0.784834
H16   H     H_    0.309001 0.174086 0.115359 0.329074
C43   C     C_2   0.355048 0.949882 0.255740 0.896198
O21   O     O_2   0.244857 0.959494 0.236297 -0.534189
O22   O     O_R   0.418567 0.880053 0.178855 -0.681746
H17   H     H_    0.363104 0.840740 0.110947 0.358218
C44   C     C_2   0.774835 0.019201 0.638935 0.856943
O23   O     O_2   0.811703 0.022088 0.740192 -0.517710
O24   O     O_R   0.849803 0.060072 0.563549 -0.729461
H18   H     H_    0.932224 0.090168 0.603065 0.356113
C45   C     C_2   0.358235 0.378163 0.773500 0.864490
O25   O     O_2   0.252837 0.403401 0.756623 -0.600088
O26   O     O_R   0.387217 0.274206 0.741225 -0.731643
H19   H     H_    0.315488 0.228636 0.697540 0.336285
C46   C     C_2   0.610378 0.644102 0.226998 0.891235
O27   O     O_2   0.567566 0.728697 0.225230 -0.547802
O28   O     O_R   0.722635 0.639283 0.289187 -0.718944
H20   H     H_    0.757071 0.710220 0.331744 0.348410

loop_
_geom_bond_atom_site_label_1
_geom_bond_atom_site_label_2
_ccdc_geom_bond_type
C44   O23   D    
C38   O12   S    
O26   H19   S    
C27   C29   A    
O16   H14   S    
C19   C20   A    
C25   H5    S    
C13   H3    S    
O28   H20   S    
C26   H6    S    
C21   C36   S    
O18   H15   S    
C23   C37   S    
C22   C35   S    
C18   C45   S    
C32   C36   A    
C24   C26   A    
C5    C43   S    
Cu2   O2    S    
C33   C36   A    
C34   C35   A    
C15   N2    A    
C41   O18   S    
C1    O3    A    
C46   O27   D    
C23   C33   A    
C31   C33   A    
C17   C46   S    
C18   C20   A    
Cu1   O8    S    
C14   H4    S    
C37   O9    D    
C9    C11   A    
O14   H13   S    
C15   H10   S    
C4    C7    A    
C10   C12   A    
C16   H9    S    
O20   H16   S    
C5    C7    A    
C37   O10   S    
C39   O13   D    
C16   N1    A    
C5    C12   A    
C3    C8    A    
C2    O4    A    
C45   O25   D    
C42   O20   S    
C6    C8    A    
C28   H1    S    
O22   H17   S    
C8    C41   S    
C24   C34   A    
C6    C44   S    
C42   O19   D    
C29   H7    S    
C39   O14   S    
C32   C34   A    
C41   O17   D    
C21   O7    A    
Cu1   Cu2   S    
C45   O26   S    
Cu2   O7    S    
Cu1   N1    S    
C43   O21   D    
C27   H2    S    
C1    O1    A    
C2    O2    A    
Cu1   O4    S    
C43   O22   S    
C24   C38   S    
C13   C15   A    
C14   C16   A    
C6    C11   A    
C7    C42   S    
C21   O5    A    
C13   C20   A    
C14   C19   A    
C30   H8    S    
C9    C40   S    
C17   N2    A    
C22   O8    A    
C22   O6    A    
C11   C12   A    
C46   O28   S    
Cu2   N2    S    
C25   C27   A    
C26   C28   A    
C1    C4    S    
C28   C30   A    
C2    C3    S    
C4    C9    A    
C40   O15   D    
C29   C31   A    
C3    C10   A    
C10   C39   S    
C30   C32   A    
Cu2   O3    S    
Cu1   O1    S    
C17   C19   A    
C31   C35   A    
C23   C25   A    
O10   H11   S    
C38   O11   D    
Cu1   O5    S    
Cu2   O6    S    
O12   H12   S    
C40   O16   S    
C44   O24   S    
O24   H18   S    
C18   N1    A    
