data_mof_unit_38269.cif
_audit_creation_date              2012-10-26T19:45:34-0400
_audit_creation_method            fapswitch 2.2
_symmetry_space_group_name_H-M    P1
_symmetry_Int_Tables_number       1
_space_group_crystal_system       triclinic
_cell_length_a                    10.941759
_cell_length_b                    9.62822
_cell_length_c                    10.946963
_cell_angle_alpha                 89.889867
_cell_angle_beta                  94.527843
_cell_angle_gamma                 89.812668
_cell_volume                      1149.65074786

loop_
_atom_site_label
_atom_site_type_symbol
_atom_type_description
_atom_site_fract_x
_atom_site_fract_y
_atom_site_fract_z
_atom_type_partial_charge
C1    C     C_R   0.262610 0.500173 0.502220 0.593361
C2    C     C_R   0.418227 0.926607 0.423171 0.117041
C3    C     C_R   0.587015 0.926487 0.570130 0.423784
C4    C     C_R   0.587524 0.072665 0.569494 0.460302
C5    C     C_R   0.500093 0.498975 0.260267 0.590037
C6    C     C_R   0.737595 0.499751 0.499206 0.615343
C7    C     C_R   0.504327 0.500004 0.740087 0.578425
C8    C     C_3   0.369183 0.540131 0.061717 0.156604
C9    C     C_3   0.541120 0.343679 0.073805 0.110583
C10   C     C_3   0.376178 0.560758 0.917265 0.118316
C11   C     C_3   0.523400 0.341580 0.928405 0.161241
C12   C     C_3   0.616833 0.593647 0.939611 0.025801
C13   C     C_3   0.602528 0.604503 0.084037 0.430617
C14   C     C_3   0.501604 0.495355 0.122062 -0.000957
C15   C     C_3   0.504424 0.499285 0.878784 -0.067947
C16   C     C_2   0.270520 0.438583 0.097901 0.210182
C17   C     C_2   0.475282 0.217934 0.125614 0.281852
C18   C     C_2   0.265424 0.500665 0.840878 0.210133
C19   C     C_2   0.418587 0.244520 0.879116 0.244656
C20   C     C_2   0.626921 0.741774 0.888857 0.307524
C21   C     C_2   0.739740 0.528251 0.910515 0.409362
C22   C     C_2   0.307268 0.148589 0.366015 0.369738
C23   C     C_R   0.066075 0.377077 0.532369 0.201027
C24   C     C_2   0.346261 0.856481 0.321032 0.392834
C25   C     C_R   0.062004 0.623626 0.476705 0.216598
C26   C     C_R   0.938044 0.374155 0.519334 0.263846
C27   C     C_R   0.934212 0.624885 0.480691 0.199107
C28   C     C_R   0.871856 0.499306 0.498550 0.039781
C29   C     C_R   0.128755 0.500752 0.506173 0.018507
C30   C     C_R   0.411973 0.074757 0.430891 0.115457
Cu1   Cu    Cu3+1 0.500020 0.640660 0.500000 1.064251
Cu2   Cu    Cu3+1 0.500020 0.359340 0.500000 1.043026
H1    H     H_    0.249836 0.690086 0.084364 0.381835
H2    H     H_    0.645068 0.190831 0.916343 0.417845
H3    H     H_    0.508258 0.783469 0.062440 0.400996
H4    H     H_    0.716700 0.610365 0.233414 0.379149
H5    H     H_    0.555695 0.790466 0.829903 0.198314
H6    H     H_    0.799432 0.475459 0.979424 0.236267
H7    H     H_    0.189430 0.281675 0.636764 0.343779
H8    H     H_    0.068602 0.794375 0.382155 0.366541
H9    H     H_    0.931828 0.170369 0.530658 0.403616
H10   H     H_    0.920163 0.825006 0.499818 0.375970
H11   H     H_    0.320459 0.244423 0.318942 0.171621
H12   H     H_    0.680769 0.322385 0.199024 0.382048
H13   H     H_    0.314789 0.751968 0.328304 0.216659
H14   H     H_    0.659567 0.766968 0.653652 0.369585
H15   H     H_    0.656124 0.231207 0.657156 0.407401
H16   H     H_    0.230299 0.361197 0.036460 0.122771
H17   H     H_    0.376946 0.208168 0.116626 0.074612
H18   H     H_    0.277659 0.435692 0.762843 0.086819
H19   H     H_    0.327187 0.254572 0.906795 0.044518
H20   H     H_    0.291471 0.744163 0.894795 0.393537
N1    N     N_R   0.500030 0.852070 0.500030 -0.328147
N2    N     N_R   0.500030 0.147930 0.500030 -0.317488
O1    O     O_R   0.319660 0.618740 0.499990 -0.478098
O2    O     O_3   0.667450 0.322865 0.108240 -0.616302
O3    O     O_3   0.681103 0.863760 0.640551 -0.594295
O4    O     O_3   0.678419 0.134440 0.644250 -0.560961
O5    O     O_2   0.231219 0.446216 0.199074 -0.491017
O6    O     O_2   0.533613 0.121662 0.174622 -0.408712
O7    O     O_2   0.160907 0.533163 0.861255 -0.477161
O8    O     O_2   0.437331 0.148522 0.810004 -0.442590
O9    O     O_3   0.374568 0.704113 0.889073 -0.702668
O10   O     O_3   0.631009 0.286226 0.882961 -0.601858
O11   O     O_3   0.571206 0.741143 0.120444 -0.566306
O12   O     O_R   0.319660 0.381260 0.499990 -0.526720
O13   O     O_3   0.716991 0.575194 0.148285 -0.666327
O14   O     O_2   0.716005 0.813388 0.920395 -0.380805
O15   O     O_2   0.771943 0.529919 0.806052 -0.480812
O16   O     O_3   0.126641 0.256932 0.570680 -0.632286
O17   O     O_3   0.122551 0.741458 0.442719 -0.672976
O18   O     O_3   0.875680 0.250959 0.532997 -0.597968
O19   O     O_3   0.869072 0.747752 0.464797 -0.625383
O20   O     O_2   0.203456 0.102158 0.365344 -0.431435
O21   O     O_2   0.323913 0.915594 0.222921 -0.456643
O22   O     O_R   0.499990 0.618790 0.317690 -0.459776
O23   O     O_R   0.499990 0.381210 0.317690 -0.560253
O24   O     O_R   0.680370 0.618830 0.500010 -0.468909
O25   O     O_R   0.680370 0.381170 0.500010 -0.473175
O26   O     O_R   0.500030 0.618780 0.682310 -0.537194
O27   O     O_R   0.500030 0.381220 0.682310 -0.488062
O28   O     O_3   0.336374 0.667785 0.112519 -0.629987

loop_
_geom_bond_atom_site_label_1
_geom_bond_atom_site_label_2
_ccdc_geom_bond_type
H8    O17   S    
C26   O18   S    
C10   O9    S    
C16   H16   S    
C6    O25   A    
H4    O13   S    
Cu1   O26   S    
C13   O11   S    
Cu2   O27   S    
C30   N2    A    
C11   C19   S    
C8    O28   S    
C24   H13   S    
C23   C29   A    
C10   C15   S    
C6    O24   A    
H3    O11   S    
C19   O8    D    
C23   C26   A    
Cu2   O23   S    
C11   C15   S    
C6    C28   S    
C21   H6    S    
C22   H11   S    
C25   O17   S    
H1    O28   S    
C7    C15   S    
C8    C16   S    
C13   C14   S    
C23   O16   S    
Cu2   N2    S    
C25   C29   A    
C11   O10   S    
C17   H17   S    
C12   C21   S    
C2    N1    A    
C21   O15   D    
C16   O5    D    
C9    C14   S    
H12   O2    S    
Cu1   Cu2   S    
C12   C15   S    
C12   C20   S    
H2    O10   S    
C1    O12   A    
C18   O7    D    
C9    O2    S    
Cu1   N1    S    
C9    C11   S    
C5    C14   S    
H9    O18   S    
C3    O3    S    
C9    C17   S    
C7    O27   A    
H14   O3    S    
C2    C24   S    
C1    C29   S    
C5    O23   A    
C3    C4    A    
C18   H18   S    
Cu1   O24   S    
Cu2   O12   S    
C13   O13   S    
H10   O19   S    
C8    C14   S    
C22   C30   S    
C4    N2    A    
C20   O14   D    
H20   O9    S    
C24   O21   D    
C25   C27   A    
C26   C28   A    
C2    C30   A    
C5    O22   A    
C1    O1    A    
H15   O4    S    
C20   H5    S    
C3    N1    A    
Cu1   O22   S    
C10   C18   S    
H7    O16   S    
C17   O6    D    
C19   H19   S    
C12   C13   S    
C8    C10   S    
C4    O4    S    
C27   C28   A    
C22   O20   D    
Cu1   O1    S    
C27   O19   S    
C7    O26   A    
Cu2   O25   S    
