data_mof_unit_63062.cif
_audit_creation_date              2012-12-10T18:51:02-0500
_audit_creation_method            fapswitch 2.2
_symmetry_space_group_name_H-M    P1
_symmetry_Int_Tables_number       1
_space_group_crystal_system       triclinic
_cell_length_a                    37.241967
_cell_length_b                    30.248886
_cell_length_c                    21.755181
_cell_angle_alpha                 89.912883
_cell_angle_beta                  125.598106
_cell_angle_gamma                 90.014052
_cell_volume                      19927.7701733

loop_
_atom_site_label
_atom_site_type_symbol
_atom_type_description
_atom_site_fract_x
_atom_site_fract_y
_atom_site_fract_z
_atom_type_partial_charge
C1    C     C_R   0.413716 0.500032 0.913952 0.860158
C2    C     C_R   0.586098 0.499980 0.086164 0.851145
C3    C     C_R   0.913718 0.000039 0.913848 0.860327
C4    C     C_R   0.086267 0.000011 0.086188 0.860618
C5    C     C_2   0.501016 0.501400 0.816589 -0.300397
C6    C     C_2   0.498642 0.501286 0.183150 -0.309421
C7    C     C_2   0.000862 0.001321 0.816484 -0.304617
C8    C     C_2   0.998492 0.001319 0.183029 -0.308650
C9    C     C_R   0.296751 0.461406 0.811782 -0.168436
C10   C     C_R   0.702674 0.480246 0.155224 -0.159359
C11   C     C_R   0.796662 0.961883 0.812513 -0.168139
C12   C     C_R   0.203376 0.962583 0.186165 -0.167695
C13   C     C_R   0.342546 0.461098 0.857212 -0.193641
C14   C     C_R   0.656827 0.479388 0.109746 -0.193221
C15   C     C_R   0.842470 0.961378 0.858012 -0.193276
C16   C     C_R   0.157565 0.961952 0.140761 -0.194728
C17   C     C_R   0.365784 0.500265 0.866830 -0.029984
C18   C     C_R   0.633690 0.499907 0.134370 -0.004253
C19   C     C_R   0.865787 0.000339 0.866510 -0.029328
C20   C     C_R   0.134171 0.000304 0.133589 -0.029694
C21   C     C_R   0.342922 0.539823 0.831269 -0.184199
C22   C     C_R   0.656102 0.520334 0.204982 -0.187944
C23   C     C_R   0.843011 0.039866 0.829756 -0.183596
C24   C     C_R   0.156831 0.039354 0.171553 -0.183817
C25   C     C_R   0.297230 0.540148 0.786093 -0.176535
C26   C     C_R   0.701925 0.519571 0.251908 -0.163842
C27   C     C_R   0.797324 0.040360 0.784704 -0.176517
C28   C     C_R   0.202499 0.040039 0.216404 -0.176243
C29   C     C_R   0.274024 0.500862 0.775732 0.123107
C30   C     C_R   0.725626 0.500012 0.227097 0.114974
C31   C     C_R   0.774036 0.001283 0.775435 0.123041
C32   C     C_R   0.225921 0.001554 0.224404 0.122344
C33   C     C_R   0.204077 0.522309 0.656400 -0.144761
C34   C     C_R   0.796825 0.537330 0.321880 -0.140856
C35   C     C_R   0.704009 0.022719 0.656176 -0.143515
C36   C     C_R   0.295998 0.023052 0.343544 -0.141981
C37   C     C_R   0.158118 0.524826 0.610019 -0.017394
C38   C     C_R   0.842977 0.538323 0.368779 -0.026562
C39   C     C_R   0.658013 0.025329 0.609883 -0.017384
C40   C     C_R   0.342003 0.025659 0.389917 -0.015447
C41   C     C_R   0.134224 0.503575 0.633771 -0.126023
C42   C     C_R   0.866162 0.502500 0.366340 -0.105790
C43   C     C_R   0.634217 0.003899 0.633707 -0.126047
C44   C     C_R   0.365802 0.004116 0.366250 -0.126938
C45   C     C_R   0.500553 0.500179 0.881756 0.924388
C46   C     C_R   0.499341 0.500124 0.118176 0.923590
C47   C     C_R   0.000537 0.000170 0.881755 0.927718
C48   C     C_R   0.999302 0.000128 0.118146 0.928680
C49   C     C_R   0.156570 0.482475 0.704104 -0.181168
C50   C     C_R   0.843572 0.466408 0.319149 -0.179864
C51   C     C_R   0.656664 0.982996 0.704253 -0.182515
C52   C     C_R   0.343340 0.983400 0.295541 -0.181967
C53   C     C_R   0.202227 0.481350 0.750454 -0.173812
C54   C     C_R   0.797874 0.465025 0.275164 -0.163705
C55   C     C_R   0.702327 0.982080 0.750606 -0.173652
C56   C     C_R   0.297688 0.982626 0.249097 -0.173912
C57   C     C_R   0.226006 0.501121 0.726555 0.059645
C58   C     C_R   0.774123 0.500778 0.275443 0.059285
C59   C     C_R   0.726013 0.001668 0.726439 0.058926
C60   C     C_R   0.273970 0.002067 0.273293 0.058338
C61   C     C_R   0.500016 0.413717 0.500002 0.860859
C62   C     C_R   0.000012 0.913716 0.499977 0.861186
C63   C     C_R   0.499901 0.498202 0.618869 0.934264
C64   C     C_R   0.500124 0.498213 0.381177 0.934567
C65   C     C_R   0.999900 0.998306 0.618857 0.938563
C66   C     C_R   0.000127 0.998158 0.381179 0.938212
C67   C     C_R   0.499984 0.586102 0.499987 0.860832
C68   C     C_R   0.999985 0.086281 0.499995 0.869160
C69   C     C_R   0.999994 0.413634 0.500033 0.874638
C70   C     C_R   0.500007 0.913809 0.500049 0.871789
C71   C     C_R   0.086266 0.501773 0.586097 0.849822
C72   C     C_R   0.913876 0.500891 0.413945 0.840380
C73   C     C_R   0.586261 0.001887 0.586085 0.845855
C74   C     C_R   0.413743 0.001955 0.413910 0.845859
C75   C     C_R   0.999983 0.586388 0.499942 0.839876
C76   C     C_R   0.500007 0.086390 0.499966 0.845150
C77   C     C_R   0.462162 0.296919 0.443846 -0.173529
C78   C     C_R   0.538092 0.296840 0.555963 -0.174113
C79   C     C_R   0.962024 0.796965 0.443671 -0.169527
C80   C     C_R   0.037962 0.796788 0.555750 -0.174918
C81   C     C_R   0.999905 0.273938 0.499995 0.111139
C82   C     C_R   0.499985 0.774206 0.500103 0.106701
C83   C     C_R   0.461993 0.342735 0.444172 -0.187884
C84   C     C_R   0.538171 0.342655 0.555710 -0.187965
C85   C     C_R   0.961925 0.842780 0.444046 -0.187748
C86   C     C_R   0.038107 0.842605 0.555549 -0.187038
C87   C     C_R   0.500057 0.365753 0.499967 -0.026332
C88   C     C_R   0.000020 0.865751 0.499860 -0.026943
C89   C     C_R   0.500147 0.274004 0.499894 0.109726
C90   C     C_R   0.999975 0.773999 0.499684 0.108719
C91   C     C_R   0.011449 0.703195 0.564761 -0.167985
C92   C     C_R   0.988321 0.703256 0.434623 -0.168872
C93   C     C_R   0.511640 0.203190 0.564960 -0.171784
C94   C     C_R   0.488648 0.203279 0.434893 -0.172013
C95   C     C_R   0.011138 0.657386 0.564685 -0.180456
C96   C     C_R   0.988622 0.657439 0.434813 -0.187090
C97   C     C_R   0.511284 0.157379 0.564835 -0.188125
C98   C     C_R   0.488913 0.157463 0.435037 -0.188119
C99   C     C_R   0.999910 0.634351 0.499801 -0.034689
C100  C     C_R   0.500067 0.134358 0.499938 -0.034415
C101  C     C_R   0.999914 0.726101 0.499683 0.109321
C102  C     C_R   0.500161 0.226108 0.499921 0.109054
C103  C     C_R   0.481646 0.702355 0.531460 -0.164101
C104  C     C_R   0.518243 0.702453 0.468540 -0.164181
C105  C     C_R   0.962336 0.203098 0.482903 -0.175222
C106  C     C_R   0.037520 0.203143 0.517119 -0.174819
C107  C     C_R   0.480955 0.656467 0.530203 -0.188685
C108  C     C_R   0.518929 0.656563 0.469731 -0.189175
C109  C     C_R   0.962265 0.157266 0.482708 -0.186463
C110  C     C_R   0.037628 0.157317 0.517294 -0.186729
C111  C     C_R   0.499948 0.633734 0.499963 -0.007661
C112  C     C_R   0.999955 0.134247 0.499991 -0.029877
C113  C     C_R   0.014381 0.296844 0.462022 -0.174864
C114  C     C_R   0.985450 0.296779 0.537992 -0.174412
C115  C     C_R   0.535592 0.797503 0.509832 -0.163711
C116  C     C_R   0.464407 0.797519 0.490431 -0.163892
C117  C     C_R   0.499954 0.725709 0.500030 0.106051
C118  C     C_R   0.999918 0.225994 0.500008 0.110900
C119  C     C_R   0.999981 0.365679 0.500084 -0.036406
C120  C     C_R   0.500023 0.866180 0.500149 -0.015865
C121  C     C_R   0.014353 0.342669 0.461881 -0.186598
C122  C     C_R   0.985560 0.342613 0.538234 -0.189934
C123  C     C_R   0.535218 0.843393 0.508504 -0.189921
C124  C     C_R   0.464816 0.843408 0.491800 -0.190132
C125  C     C_2   0.536007 0.485959 0.753305 -0.148347
C126  C     C_2   0.464492 0.485011 0.247300 -0.149429
C127  C     C_2   0.035946 0.987191 0.753242 -0.148980
C128  C     C_2   0.964528 0.984304 0.247354 -0.149037
C129  C     C_2   0.498941 0.492085 0.683511 -0.337792
C130  C     C_2   0.501262 0.492132 0.316757 -0.339026
C131  C     C_2   0.998934 0.992489 0.683488 -0.336970
C132  C     C_2   0.001290 0.991976 0.316784 -0.337585
C133  C     C_2   0.534034 0.481797 0.818209 -0.151108
C134  C     C_2   0.466725 0.480751 0.182681 -0.151565
C135  C     C_2   0.034064 0.983212 0.818246 -0.154128
C136  C     C_2   0.966849 0.980031 0.182822 -0.152064
H1    H     H_    0.568233 0.483593 0.763324 0.169754
H2    H     H_    0.432394 0.481848 0.237430 0.170573
H3    H     H_    0.068117 0.985384 0.763192 0.171003
H4    H     H_    0.932409 0.980709 0.237468 0.169891
H5    H     H_    0.138643 0.466429 0.722981 0.159152
H6    H     H_    0.861479 0.438552 0.318105 0.140788
H7    H     H_    0.638814 0.966967 0.723310 0.159830
H8    H     H_    0.361181 0.967426 0.276395 0.159681
H9    H     H_    0.219019 0.465389 0.805212 0.135385
H10   H     H_    0.781183 0.435589 0.241920 0.132566
H11   H     H_    0.719262 0.966332 0.805550 0.135591
H12   H     H_    0.280797 0.967031 0.194121 0.134939
H13   H     H_    0.025280 0.279031 0.432200 0.134054
H14   H     H_    0.974518 0.278908 0.567767 0.133673
H15   H     H_    0.563809 0.780266 0.519142 0.130969
H16   H     H_    0.436171 0.780295 0.481089 0.130793
H17   H     H_    0.432664 0.279313 0.400537 0.136216
H18   H     H_    0.567618 0.279174 0.599261 0.135897
H19   H     H_    0.932496 0.779401 0.400359 0.139443
H20   H     H_    0.067467 0.779085 0.599015 0.135630
H21   H     H_    0.432345 0.360083 0.400542 0.155533
H22   H     H_    0.567788 0.359939 0.599364 0.155308
H23   H     H_    0.932296 0.860165 0.400448 0.156338
H24   H     H_    0.067748 0.859852 0.599208 0.155531
H25   H     H_    0.020234 0.720802 0.615118 0.136459
H26   H     H_    0.979535 0.720914 0.384225 0.136274
H27   H     H_    0.520381 0.220789 0.615301 0.136703
H28   H     H_    0.479923 0.220951 0.384539 0.136588
H29   H     H_    0.020091 0.640064 0.615404 0.157816
H30   H     H_    0.979665 0.640153 0.384144 0.158237
H31   H     H_    0.520163 0.140046 0.615506 0.158370
H32   H     H_    0.479999 0.140192 0.384377 0.158333
H33   H     H_    0.025875 0.360061 0.432582 0.156452
H34   H     H_    0.974058 0.359967 0.567543 0.155030
H35   H     H_    0.562672 0.861135 0.515552 0.138160
H36   H     H_    0.437366 0.861164 0.484735 0.137865
H37   H     H_    0.468305 0.719544 0.557579 0.130832
H38   H     H_    0.531585 0.719725 0.442438 0.130834
H39   H     H_    0.933156 0.220926 0.469210 0.133642
H40   H     H_    0.066691 0.221000 0.530831 0.134137
H41   H     H_    0.466402 0.490864 0.672308 0.158659
H42   H     H_    0.533794 0.491674 0.327922 0.158083
H43   H     H_    0.966439 0.990923 0.672252 0.158536
H44   H     H_    0.033861 0.991869 0.327947 0.158916
H45   H     H_    0.466535 0.638679 0.554157 0.135372
H46   H     H_    0.533357 0.638852 0.445767 0.134901
H47   H     H_    0.933027 0.139879 0.469776 0.155090
H48   H     H_    0.066884 0.139974 0.530233 0.155080
H49   H     H_    0.561409 0.465342 0.869498 0.142092
H50   H     H_    0.440331 0.463348 0.132449 0.149122
H51   H     H_    0.061630 0.967943 0.869703 0.147425
H52   H     H_    0.940708 0.962038 0.132838 0.149031
H53   H     H_    0.476603 0.523457 0.770284 0.139697
H54   H     H_    0.521748 0.523992 0.228144 0.141956
H55   H     H_    0.976007 0.022014 0.769886 0.141948
H56   H     H_    0.021197 0.024601 0.227685 0.143980
H57   H     H_    0.279049 0.430804 0.803873 0.132981
H58   H     H_    0.720082 0.466150 0.133573 0.128725
H59   H     H_    0.778817 0.931493 0.805384 0.132464
H60   H     H_    0.221270 0.932613 0.192251 0.132134
H61   H     H_    0.359695 0.430340 0.884854 0.156070
H62   H     H_    0.639387 0.463838 0.054576 0.129566
H63   H     H_    0.859578 0.930671 0.886657 0.155305
H64   H     H_    0.140513 0.931662 0.111117 0.155237
H65   H     H_    0.360265 0.570436 0.837900 0.158020
H66   H     H_    0.638101 0.535948 0.224186 0.135677
H67   H     H_    0.860432 0.070314 0.835436 0.157389
H68   H     H_    0.139318 0.069306 0.166898 0.157749
H69   H     H_    0.279947 0.571068 0.759430 0.135444
H70   H     H_    0.718767 0.534073 0.307487 0.138408
H71   H     H_    0.780067 0.071228 0.757319 0.135772
H72   H     H_    0.219605 0.070615 0.244599 0.136506
H73   H     H_    0.223036 0.537711 0.638755 0.173970
H74   H     H_    0.778537 0.565263 0.320712 0.169543
H75   H     H_    0.723002 0.037945 0.638433 0.174144
H76   H     H_    0.277016 0.038201 0.361289 0.174687
O1    O     O_R   0.434530 0.536960 0.934530 -0.627243
O2    O     O_R   0.565470 0.536960 0.065470 -0.617843
O3    O     O_R   0.934530 0.036960 0.934530 -0.627097
O4    O     O_R   0.065470 0.036960 0.065470 -0.626916
O5    O     O_R   0.065470 0.500010 0.514410 -0.629577
O6    O     O_R   0.934530 0.500010 0.485590 -0.619190
O7    O     O_R   0.565470 0.000010 0.514410 -0.631775
O8    O     O_R   0.434530 0.000010 0.485590 -0.633767
O9    O     O_R   0.065460 0.500010 0.616540 -0.615491
O10   O     O_R   0.934540 0.500010 0.383460 -0.612045
O11   O     O_R   0.565460 0.000010 0.616540 -0.614533
O12   O     O_R   0.434540 0.000010 0.383460 -0.614237
O13   O     O_R   0.000010 0.565480 0.448930 -0.630578
O14   O     O_R   0.999990 0.565480 0.551070 -0.626155
O15   O     O_R   0.500010 0.065480 0.448930 -0.630075
O16   O     O_R   0.499990 0.065480 0.551070 -0.630394
O17   O     O_R   0.434530 0.463040 0.934530 -0.627750
O18   O     O_R   0.565470 0.463040 0.065470 -0.619633
O19   O     O_R   0.934530 0.963040 0.934530 -0.627415
O20   O     O_R   0.065470 0.963040 0.065470 -0.626876
O21   O     O_R   0.500010 0.536960 0.909550 -0.618772
O22   O     O_R   0.499990 0.536960 0.090450 -0.620014
O23   O     O_R   0.000010 0.036960 0.909550 -0.618486
O24   O     O_R   0.999990 0.036960 0.090450 -0.619483
O25   O     O_R   0.500010 0.463040 0.909550 -0.611370
O26   O     O_R   0.499990 0.463040 0.090450 -0.611260
O27   O     O_R   0.000010 0.963040 0.909550 -0.610702
O28   O     O_R   0.999990 0.963040 0.090450 -0.611158
O29   O     O_R   0.536960 0.434530 0.536970 -0.628096
O30   O     O_R   0.463040 0.434530 0.463030 -0.627785
O31   O     O_R   0.036960 0.934530 0.536970 -0.627748
O32   O     O_R   0.963040 0.934530 0.463030 -0.627457
O33   O     O_R   0.536950 0.500000 0.627420 -0.620011
O34   O     O_R   0.463050 0.500000 0.372580 -0.619688
O35   O     O_R   0.036950 1.000000 0.627420 -0.620277
O36   O     O_R   0.963050 1.000000 0.372580 -0.619398
O37   O     O_R   0.463030 0.500000 0.553490 -0.622468
O38   O     O_R   0.536970 0.500000 0.446510 -0.623562
O39   O     O_R   0.963030 1.000000 0.553490 -0.621951
O40   O     O_R   0.036970 1.000000 0.446510 -0.622409
O41   O     O_R   0.536960 0.565470 0.536960 -0.616236
O42   O     O_R   0.463040 0.565470 0.463040 -0.615822
O43   O     O_R   0.036960 0.065470 0.536960 -0.623533
O44   O     O_R   0.963040 0.065470 0.463040 -0.623312
O45   O     O_R   0.000000 0.434540 0.448940 -0.620391
O46   O     O_R   0.000000 0.434540 0.551060 -0.622022
O47   O     O_R   0.500000 0.934540 0.448940 -0.612587
O48   O     O_R   0.500000 0.934540 0.551060 -0.612717
Zn1   Zn    Zn3+2 0.500000 0.549350 0.000000 0.961059
Zn2   Zn    Zn3+2 1.000000 0.049350 0.000000 0.955828
Zn3   Zn    Zn3+2 0.500000 0.450640 0.000000 0.961855
Zn4   Zn    Zn3+2 1.000000 0.950640 0.000000 0.958502
Zn5   Zn    Zn3+2 0.549360 0.500000 0.549360 0.955886
Zn6   Zn    Zn3+2 0.450640 0.500000 0.450640 0.958222
Zn7   Zn    Zn3+2 0.049360 1.000000 0.549360 0.954121
Zn8   Zn    Zn3+2 0.950640 1.000000 0.450640 0.955593
Zn9   Zn    Zn3+2 0.000010 0.500010 0.431810 0.962469
Zn10  Zn    Zn3+2 0.999990 0.500010 0.568190 0.960273
Zn11  Zn    Zn3+2 0.500010 0.000010 0.431810 0.963148
Zn12  Zn    Zn3+2 0.499990 0.000010 0.568190 0.961371
C137  C     C_2   0.136430 0.551979 0.540149 0.398168
H77   H     H_    0.103299 0.564652 0.513653 0.086303
O49   O     O_2   0.155838 0.561373 0.511897 -0.569223
C138  C     C_2   0.866298 0.576803 0.418700 0.397449
H78   H     H_    0.901315 0.581169 0.446001 0.066888
O50   O     O_2   0.846705 0.603967 0.430980 -0.564491
C139  C     C_2   0.636197 0.052923 0.540244 0.395880
H79   H     H_    0.602566 0.064362 0.512666 0.089174
O51   O     O_2   0.656093 0.064435 0.513649 -0.569458
C140  C     C_2   0.363775 0.053507 0.459169 0.394251
H80   H     H_    0.397856 0.063664 0.488713 0.093689
O52   O     O_2   0.343281 0.066918 0.482959 -0.573460

loop_
_geom_bond_atom_site_label_1
_geom_bond_atom_site_label_2
_ccdc_geom_bond_type
C43   C73   S    
C121  H33   S    
O19   Zn4   S    
C49   C53   A    
O24   Zn2   S    
C64   O38   A    
C4    O4    A    
C55   C59   A    
C89   C102  S    
C8    C136  D    
C24   H68   S    
C134  H50   S    
O2    Zn1   S    
C83   C87   A    
C132  H44   S    
C84   C87   A    
C103  H37   S    
C38   C138  S    
C97   C100  A    
C62   O31   A    
C39   C139  S    
C66   O36   A    
O15   Zn11  S    
C5    C133  D    
C14   H62   S    
C40   C140  S    
C140  H80   S    
C50   C54   A    
C13   H61   S    
C107  H45   S    
C71   O9    A    
C46   O22   A    
O21   Zn1   S    
O4    Zn2   S    
C127  C135  S    
C82   C115  A    
C38   C42   A    
C128  C136  S    
C54   C58   A    
C63   C129  S    
C95   C99   A    
C67   O42   A    
C76   O16   A    
C94   C98   A    
C3    O3    A    
C96   C99   A    
C74   O12   A    
C105  H39   S    
C92   C96   A    
C73   O7    A    
C35   C59   A    
C51   C55   A    
C68   C112  S    
C31   C59   S    
C106  C110  A    
C9    C13   A    
C79   C90   A    
C80   C86   A    
C61   C87   S    
C77   H17   S    
C15   C19   A    
O10   Zn9   S    
C33   H73   S    
C108  H46   S    
O22   Zn1   S    
C126  H2    S    
C12   C16   A    
C70   C120  S    
C122  H34   S    
C124  H36   S    
C81   C114  A    
C128  C132  D    
C139  H79   S    
C3    C19   S    
C82   C117  S    
C137  O49   D    
C23   C27   A    
O48   Zn12  S    
C6    C46   S    
C125  C133  S    
C9    H57   S    
C27   H71   S    
C16   H64   S    
C120  C123  A    
C133  H49   S    
C54   H10   S    
C37   C137  S    
C44   C52   A    
C70   O48   A    
C65   O35   A    
C11   C31   A    
C5    C45   S    
C72   O10   A    
C136  H52   S    
C76   O15   A    
C25   C29   A    
C12   H60   S    
O3    Zn2   S    
C7    H55   S    
O26   Zn3   S    
C103  C117  A    
C127  H3    S    
C91   C101  A    
O8    Zn12  S    
C95   H29   S    
C41   C49   A    
C34   C38   A    
C65   C131  S    
C10   H58   S    
C80   H20   S    
C66   C132  S    
O17   Zn3   S    
C78   C89   A    
C61   O29   A    
C63   O33   A    
C66   O40   A    
C115  C123  A    
C109  H47   S    
C73   O11   A    
C86   C88   A    
C27   C31   A    
C21   H65   S    
C106  C118  A    
C34   H74   S    
O16   Zn12  S    
C109  C112  A    
C3    O19   A    
C126  C130  D    
C84   H22   S    
C19   C23   A    
C78   H18   S    
C104  H38   S    
C116  H16   S    
C125  H1    S    
C97   H31   S    
C62   C88   S    
C81   C118  S    
C69   C119  S    
C77   C83   A    
C33   C37   A    
C56   C60   A    
C23   H67   S    
O32   Zn8   S    
C4    C20   S    
O37   Zn6   S    
C56   H12   S    
C22   H66   S    
C35   C39   A    
C8    C48   S    
C90   C101  S    
C7    C135  D    
C75   O13   A    
C35   H75   S    
C114  H14   S    
C15   H63   S    
C53   H9    S    
C68   O44   A    
O40   Zn7   S    
C55   H11   S    
C96   H30   S    
C83   H21   S    
C28   C32   A    
C16   C20   A    
C46   O26   A    
C77   C89   A    
C6    H54   S    
C105  C109  A    
C75   C99   S    
C137  H77   S    
C138  O50   D    
C49   H5    S    
C113  C121  A    
C12   C32   A    
O6    Zn10  S    
C138  H78   S    
C44   C74   S    
O13   Zn9   S    
C48   O24   A    
C119  C121  A    
C92   C101  A    
C36   H76   S    
C47   O27   A    
C105  C118  A    
C67   C111  S    
C70   O47   A    
C63   O37   A    
O14   Zn10  S    
C42   C50   A    
C2    O2    A    
O23   Zn2   S    
C11   C15   A    
O39   Zn8   S    
C52   H8    S    
C125  C129  D    
C10   C14   A    
C28   H72   S    
O29   Zn5   S    
C10   C30   A    
O45   Zn9   S    
O31   Zn7   S    
C32   C60   S    
C115  H15   S    
C94   H28   S    
C104  C108  A    
C36   C40   A    
O47   Zn11  S    
C51   H7    S    
C52   C56   A    
C4    O20   A    
C69   O45   A    
C104  C117  A    
C29   C57   S    
C85   C88   A    
C92   H26   S    
C61   O30   A    
C47   O23   A    
C21   C25   A    
O18   Zn3   S    
O42   Zn6   S    
C33   C57   A    
C116  C124  A    
C113  H13   S    
C18   C22   A    
C107  C111  A    
C14   C18   A    
C98   H32   S    
C75   O14   A    
O33   Zn5   S    
O27   Zn4   S    
C24   C28   A    
O38   Zn5   S    
C45   O21   A    
C2    C18   S    
C36   C60   A    
C53   C57   A    
C93   C102  A    
C2    O18   A    
C39   C43   A    
C5    H53   S    
C135  H51   S    
C62   O32   A    
O36   Zn8   S    
C9    C29   A    
C76   C100  S    
C45   O25   A    
C72   O6    A    
C48   O28   A    
C140  O52   D    
C71   O5    A    
C108  C111  A    
C41   C71   S    
C79   C85   A    
C11   H59   S    
O41   Zn5   S    
C127  C131  D    
C65   O39   A    
C128  H4    S    
O35   Zn7   S    
O11   Zn12  S    
C81   C113  A    
C79   H19   S    
C26   H70   S    
O44   Zn8   S    
C139  O51   D    
C1    O1    A    
O25   Zn3   S    
C110  H48   S    
C68   O43   A    
C43   C51   A    
C129  H41   S    
C8    H56   S    
O5    Zn9   S    
C131  H43   S    
C30   C58   S    
C114  C122  A    
C119  C122  A    
C93   C97   A    
C25   H69   S    
O7    Zn11  S    
O30   Zn6   S    
C37   C41   A    
O46   Zn10  S    
C98   C100  A    
C110  C112  A    
C78   C84   A    
C130  H42   S    
C120  C124  A    
O28   Zn4   S    
C67   O41   A    
C82   C116  A    
C13   C17   A    
C93   H27   S    
O20   Zn4   S    
C1    O17   A    
C40   C44   A    
C64   O34   A    
C1    C17   S    
C126  C134  S    
C91   C95   A    
C6    C134  D    
C22   C26   A    
C64   C130  S    
C74   O8    A    
C34   C58   A    
C106  H40   S    
O43   Zn7   S    
C91   H25   S    
C103  C107  A    
C85   H23   S    
O1    Zn1   S    
C42   C72   S    
O34   Zn6   S    
C86   H24   S    
C80   C90   A    
C20   C24   A    
C123  H35   S    
O9    Zn10  S    
C50   H6    S    
C94   C102  A    
C7    C47   S    
C69   O46   A    
O12   Zn11  S    
C26   C30   A    
C17   C21   A    
