data_mof_unit_66902.cif
_audit_creation_date              2013-03-05T15:57:25-0500
_audit_creation_method            fapswitch 2.2
_symmetry_space_group_name_H-M    P1
_symmetry_Int_Tables_number       1
_space_group_crystal_system       triclinic
_cell_length_a                    17.538568
_cell_length_b                    18.62662
_cell_length_c                    8.507225
_cell_angle_alpha                 90.000083
_cell_angle_beta                  101.187863
_cell_angle_gamma                 89.453764
_cell_volume                      2726.23291423

loop_
_atom_site_label
_atom_site_type_symbol
_atom_site_description
_atom_site_fract_x
_atom_site_fract_y
_atom_site_fract_z
_atom_type_partial_charge
P1    P     P_3+3 0.834140 0.419320 0.003900 0.457698
P2    P     P_3+3 0.834140 0.580680 0.503900 0.458055
P3    P     P_3+3 0.334140 0.919320 0.003900 0.457703
P4    P     P_3+3 0.334140 0.080680 0.503900 0.459276
O1    O     O_2   0.841960 0.394640 0.833410 -0.378560
O2    O     O_2   0.841960 0.605360 0.333410 -0.382532
O3    O     O_2   0.341960 0.894640 0.833410 -0.374970
O4    O     O_2   0.341960 0.105360 0.333410 -0.385518
O5    O     O_3   0.907950 0.463080 0.102990 -0.391359
O6    O     O_3   0.907950 0.536920 0.602990 -0.379060
O7    O     O_3   0.407950 0.963080 0.102990 -0.393941
O8    O     O_3   0.407950 0.036920 0.602990 -0.376640
O9    O     O_3   0.972780 0.329600 0.629720 -0.360687
O10   O     O_3   0.972780 0.670400 0.129720 -0.383728
O11   O     O_3   0.472780 0.829600 0.629720 -0.360350
O12   O     O_3   0.472780 0.170400 0.129720 -0.382947
O13   O     O_2   0.837621 0.278498 0.681664 -0.413414
O14   O     O_2   0.833076 0.718390 0.177234 -0.393459
O15   O     O_2   0.336821 0.779722 0.681493 -0.411757
O16   O     O_2   0.334554 0.220009 0.181566 -0.400222
O17   O     O_3   0.759955 0.483618 0.971229 -0.580987
O18   O     O_3   0.760988 0.518028 0.479673 -0.585157
O19   O     O_3   0.259969 0.983750 0.970004 -0.581376
O20   O     O_3   0.261052 0.018052 0.481021 -0.583791
O21   O     O_3   0.926565 0.179135 0.606817 -0.543684
O22   O     O_3   0.921665 0.816716 0.110534 -0.604602
O23   O     O_3   0.424487 0.679705 0.607431 -0.543227
O24   O     O_3   0.422424 0.316937 0.106750 -0.605264
H1    H     H_    0.024868 0.192627 0.779948 0.127416
H2    H     H_    0.008686 0.789932 0.296374 0.125507
H3    H     H_    0.523225 0.691016 0.780013 0.126597
H4    H     H_    0.506981 0.291048 0.297719 0.123115
C1    C     C_3   0.031814 0.094044 0.641051 0.674706
C2    C     C_3   0.034780 0.890794 0.189501 0.443284
C3    C     C_3   0.527833 0.593147 0.637278 0.676676
C4    C     C_3   0.534909 0.391124 0.189708 0.445464
H5    H     H_    0.584669 0.591387 0.600889 -0.020514
H6    H     H_    0.563534 0.400322 0.315312 0.125880
H7    H     H_    0.090205 0.092885 0.611703 -0.017277
H8    H     H_    0.062190 0.900283 0.315867 0.131038
P5    P     P_3+3 0.165830 0.418670 0.685610 0.532506
P6    P     P_3+3 0.165830 0.581330 0.185610 0.537752
P7    P     P_3+3 0.665830 0.918670 0.685610 0.532500
P8    P     P_3+3 0.665830 0.081330 0.185610 0.537411
P9    P     P_3+3 0.089111 0.258032 0.113484 0.477071
P10   P     P_3+3 0.091587 0.739852 0.613885 0.472633
P11   P     P_3+3 0.589136 0.757974 0.113416 0.479209
P12   P     P_3+3 0.591377 0.239997 0.614210 0.472865
O25   O     O_2   0.157990 0.394030 0.856030 -0.381001
O26   O     O_2   0.157990 0.605970 0.356030 -0.399277
O27   O     O_2   0.657990 0.894030 0.856030 -0.380861
O28   O     O_2   0.657990 0.105970 0.356030 -0.399769
O29   O     O_3   0.027110 0.329490 0.059550 -0.305823
O30   O     O_3   0.027110 0.670510 0.559550 -0.315922
O31   O     O_3   0.527110 0.829490 0.059550 -0.307008
O32   O     O_3   0.527110 0.170510 0.559550 -0.315849
O33   O     O_2   0.146153 0.261582 0.995805 -0.391692
O34   O     O_2   0.147050 0.737544 0.492675 -0.394585
O35   O     O_2   0.646189 0.761310 0.995680 -0.388515
O36   O     O_2   0.646785 0.237987 0.492845 -0.394677
O37   O     O_3   0.249051 0.471750 0.726668 -0.564495
O38   O     O_3   0.247330 0.524619 0.225923 -0.545036
O39   O     O_3   0.749042 0.971782 0.727078 -0.564788
O40   O     O_3   0.747021 0.024266 0.224839 -0.546361
O41   O     O_3   0.030409 0.183364 0.049491 -0.580731
O42   O     O_3   0.034587 0.817434 0.560406 -0.567925
O43   O     O_3   0.530384 0.683219 0.050048 -0.579410
O44   O     O_3   0.534208 0.317567 0.561397 -0.568872
C5    C     C_3   0.957565 0.189399 0.096507 0.418468
C6    C     C_3   0.964892 0.814337 0.620019 0.465931
C7    C     C_3   0.457512 0.689646 0.096898 0.429048
C8    C     C_3   0.464205 0.313962 0.619803 0.457583
H9    H     H_    0.936763 0.245496 0.098620 0.060418
H10   H     H_    0.943497 0.759172 0.627247 0.042300
H11   H     H_    0.436575 0.745777 0.097241 0.058437
H12   H     H_    0.442975 0.258665 0.626091 0.043589
C9    C     C_3   0.894995 0.151091 0.978499 0.342520
C10   C     C_3   0.901584 0.854845 0.507308 0.377126
C11   C     C_3   0.394913 0.650887 0.980013 0.344366
C12   C     C_3   0.400879 0.354413 0.506753 0.380057
H13   H     H_    0.393550 0.671376 0.859429 0.126971
H14   H     H_    0.390306 0.326569 0.390122 0.068593
H15   H     H_    0.894718 0.171199 0.858041 0.130855
H16   H     H_    0.890329 0.826380 0.391427 0.068659
C13   C     C_3   0.226335 0.453233 0.247642 0.412828
C14   C     C_3   0.230951 0.545093 0.730875 0.365521
C15   C     C_3   0.725534 0.953113 0.247835 0.411658
C16   C     C_3   0.730996 0.045175 0.730370 0.371617
H17   H     H_    0.237817 0.440939 0.377776 0.068008
H18   H     H_    0.239311 0.562274 0.857869 0.093127
H19   H     H_    0.735276 0.941715 0.378628 0.066546
H20   H     H_    0.739411 0.062663 0.857161 0.094261
H21   H     H_    0.165268 0.439827 0.196364 0.160115
H22   H     H_    0.171493 0.560536 0.669401 0.160867
H23   H     H_    0.664793 0.939531 0.193140 0.162125
H24   H     H_    0.671524 0.060561 0.668891 0.159747
C17   C     C_3   0.276662 0.405359 0.165869 -0.867029
C18   C     C_3   0.287293 0.584862 0.649173 -0.770820
C19   C     C_3   0.777086 0.904410 0.170545 -0.865179
C20   C     C_3   0.787361 0.084663 0.648123 -0.779637
H25   H     H_    0.337325 0.411295 0.225221 0.282805
H26   H     H_    0.347623 0.571158 0.706237 0.309605
H27   H     H_    0.837535 0.912538 0.229364 0.285672
H28   H     H_    0.847698 0.070955 0.705031 0.308334
H29   H     H_    0.259073 0.348419 0.170048 0.232746
H30   H     H_    0.276802 0.643536 0.654796 0.211108
H31   H     H_    0.760973 0.847149 0.180298 0.230521
H32   H     H_    0.777016 0.143373 0.653332 0.212721
H33   H     H_    0.273883 0.423384 0.041117 0.281309
H34   H     H_    0.280821 0.567257 0.523370 0.278266
H35   H     H_    0.773899 0.920158 0.043803 0.280035
H36   H     H_    0.780773 0.066819 0.522473 0.276642
Ba1   Ba    Ba6+2 0.000000 0.447380 0.844850 1.624429
Ba2   Ba    Ba6+2 0.000000 0.552620 0.344850 1.628091
Ba3   Ba    Ba6+2 0.500000 0.947380 0.844850 1.625136
Ba4   Ba    Ba6+2 0.500000 0.052620 0.344850 1.627322
C21   C     C_3   0.787920 0.550817 0.941669 0.441053
C22   C     C_3   0.786306 0.452689 0.430008 0.377023
C23   C     C_3   0.288731 0.051185 0.944935 0.439404
C24   C     C_3   0.285505 0.953251 0.427051 0.372242
H37   H     H_    0.815892 0.547750 0.835938 0.092139
H38   H     H_    0.816273 0.459913 0.327818 0.108749
H39   H     H_    0.315541 0.049201 0.837622 0.091757
H40   H     H_    0.314345 0.961399 0.323536 0.109412
H41   H     H_    0.829215 0.570894 0.047434 0.151333
H42   H     H_    0.824103 0.424129 0.530720 0.150157
H43   H     H_    0.331363 0.069322 0.050613 0.152160
H44   H     H_    0.323977 0.923765 0.525360 0.147833
C25   C     C_3   0.718259 0.601160 0.908707 -1.004070
C26   C     C_3   0.713031 0.411543 0.375719 -0.931559
C27   C     C_3   0.220453 0.103309 0.919645 -0.999372
C28   C     C_3   0.211769 0.912726 0.373455 -0.917564
H45   H     H_    0.688549 0.594227 0.782532 0.231270
H46   H     H_    0.679432 0.443912 0.276941 0.306942
H47   H     H_    0.193598 0.104966 0.790557 0.227121
H48   H     H_    0.176424 0.947403 0.281243 0.304781
H49   H     H_    0.734529 0.657850 0.929424 0.270910
H50   H     H_    0.721792 0.356896 0.334310 0.254437
H51   H     H_    0.238366 0.157997 0.960324 0.276126
H52   H     H_    0.219688 0.859449 0.323724 0.255065
H53   H     H_    0.678265 0.588595 0.990788 0.277212
H54   H     H_    0.680423 0.407997 0.474745 0.257823
H55   H     H_    0.177480 0.086180 0.991566 0.276046
H56   H     H_    0.181247 0.906112 0.474950 0.256349
O45   O     O_3   0.092100 0.536880 0.086720 -0.309968
O46   O     O_3   0.092100 0.463120 0.586720 -0.310863
O47   O     O_3   0.592100 0.036880 0.086720 -0.310429
O48   O     O_3   0.592100 0.963120 0.586720 -0.311260
P13   P     P_3+3 0.891964 0.729069 0.065874 0.398965
P14   P     P_3+3 0.895653 0.268233 0.567751 0.422057
P15   P     P_3+3 0.392059 0.229165 0.066598 0.395060
P16   P     P_3+3 0.394865 0.768973 0.567887 0.423526
C29   C     C_3   0.007501 0.173248 0.656901 0.255784
C30   C     C_3   0.000701 0.815406 0.178343 0.310496
C31   C     C_3   0.505324 0.672581 0.656387 0.254259
C32   C     C_3   0.500847 0.315712 0.179227 0.313387
H57   H     H_    0.040026 0.207842 0.587584 -0.013648
H58   H     H_    0.035172 0.781481 0.109849 0.095758
H59   H     H_    0.538390 0.707194 0.588239 -0.012618
H60   H     H_    0.536462 0.281273 0.114081 0.096293
H61   H     H_    0.337142 0.661440 0.007854 0.012005
H62   H     H_    0.345844 0.354993 0.551946 0.021579
H63   H     H_    0.837015 0.162446 0.004636 0.012332
H64   H     H_    0.846815 0.856337 0.553594 0.024340
C33   C     C_R   0.139678 0.676146 0.920339 0.339306
C34   C     C_R   0.135390 0.322351 0.421373 0.341889
C35   C     C_R   0.639675 0.176127 0.920470 0.338527
C36   C     C_R   0.635463 0.822415 0.421257 0.341640
C37   C     C_R   0.855495 0.324686 0.257376 -0.546952
C38   C     C_R   0.856087 0.675089 0.754917 -0.522341
C39   C     C_R   0.355076 0.825028 0.257429 -0.549633
C40   C     C_R   0.355542 0.174844 0.755634 -0.522049
C41   C     C_R   0.782056 0.219969 0.299896 -0.136634
C42   C     C_R   0.783446 0.781516 0.794838 -0.149269
C43   C     C_R   0.281424 0.720512 0.300239 -0.132466
C44   C     C_R   0.282329 0.280770 0.796151 -0.142821
C45   C     C_R   0.839535 0.271167 0.358245 0.230083
C46   C     C_R   0.840565 0.729535 0.853805 0.214504
C47   C     C_R   0.338765 0.771826 0.358548 0.231791
C48   C     C_R   0.339370 0.228761 0.855207 0.217369
C49   C     C_R   0.808875 0.335945 0.106341 0.287482
C50   C     C_R   0.808722 0.663691 0.605624 0.308932
C51   C     C_R   0.308750 0.836025 0.106090 0.285324
C52   C     C_R   0.308472 0.163557 0.605955 0.308400
C53   C     C_R   0.746603 0.285758 0.045797 -0.054210
C54   C     C_R   0.745418 0.713532 0.545441 -0.092177
C55   C     C_R   0.246509 0.785830 0.045511 -0.053989
C56   C     C_R   0.245023 0.213271 0.545883 -0.094727
C57   C     C_R   0.236372 0.724167 0.142457 -0.190857
C58   C     C_R   0.235905 0.276024 0.640156 -0.196557
C59   C     C_R   0.736649 0.223948 0.142449 -0.188997
C60   C     C_R   0.736536 0.776432 0.639411 -0.196288
C61   C     C_R   0.181617 0.668594 0.078424 0.106175
C62   C     C_R   0.179754 0.331064 0.577414 0.099919
C63   C     C_R   0.681743 0.168494 0.078414 0.106704
C64   C     C_R   0.679999 0.831219 0.577125 0.100145
C65   C     C_R   0.146888 0.736475 0.826827 0.049142
C66   C     C_R   0.142492 0.261184 0.328940 0.058087
C67   C     C_R   0.646829 0.236492 0.827095 0.051340
C68   C     C_R   0.642621 0.761274 0.328795 0.057793
C69   C     C_R   0.194284 0.793825 0.893940 0.080611
C70   C     C_R   0.190636 0.203788 0.397683 0.065001
C71   C     C_R   0.694265 0.293801 0.894313 0.079730
C72   C     C_R   0.690875 0.703965 0.397485 0.063250
H65   H     H_    0.274321 0.676967 0.378498 0.189088
H66   H     H_    0.275552 0.324721 0.873916 0.189302
H67   H     H_    0.775028 0.176305 0.377891 0.188326
H68   H     H_    0.776577 0.825425 0.872638 0.189734
H69   H     H_    0.902582 0.360965 0.302004 0.199309
H70   H     H_    0.903372 0.638257 0.800219 0.193284
H71   H     H_    0.402099 0.861363 0.302164 0.199460
H72   H     H_    0.403202 0.138342 0.800538 0.192876
F1    F     F_    0.475141 0.560317 0.517443 -0.621204
F2    F     F_    0.588320 0.392974 0.091095 -0.759898
F3    F     F_    0.982230 0.060462 0.517295 -0.624743
F4    F     F_    0.089545 0.892252 0.093827 -0.761410
C73   C     C_3   0.675546 0.366167 0.819340 -0.646789
H73   H     H_    0.669275 0.404003 0.913289 0.298684
H74   H     H_    0.713971 0.381038 0.737597 0.248780
H75   H     H_    0.618042 0.371881 0.748398 0.233109
C74   C     C_3   0.670086 0.630669 0.330234 -0.759509
H76   H     H_    0.660821 0.595313 0.427775 0.240221
H77   H     H_    0.614391 0.627858 0.249744 0.231206
H78   H     H_    0.710518 0.610496 0.257096 0.279353
C75   C     C_3   0.175669 0.866227 0.818902 -0.645959
H79   H     H_    0.169023 0.904060 0.912729 0.298040
H80   H     H_    0.214343 0.881168 0.737845 0.249536
H81   H     H_    0.118489 0.871986 0.746681 0.233265
C76   C     C_3   0.169909 0.130509 0.330083 -0.766061
H82   H     H_    0.160338 0.094979 0.427080 0.243054
H83   H     H_    0.114385 0.127818 0.248995 0.232587
H84   H     H_    0.210547 0.110324 0.257506 0.279187
F5    F     F_    0.089909 0.624052 0.855435 -0.675308
F6    F     F_    0.083264 0.373777 0.358042 -0.677230
F7    F     F_    0.589857 0.124073 0.855550 -0.675226
F8    F     F_    0.583227 0.873776 0.358040 -0.677284
C77   C     C_3   0.033226 0.049120 0.791195 -0.821932
H85   H     H_    0.051689 0.080058 0.901630 0.240584
H86   H     H_    0.974872 0.026977 0.790890 0.313406
H87   H     H_    0.074804 0.003776 0.792679 0.237253
C78   C     C_3   0.979070 0.953430 0.138361 -0.590613
H88   H     H_    0.947055 0.967814 0.233769 0.277149
H89   H     H_    0.014263 0.000944 0.120200 0.254322
H90   H     H_    0.938041 0.942549 0.024412 0.265086
C79   C     C_3   0.532413 0.548183 0.788540 -0.824248
H91   H     H_    0.552146 0.579368 0.898502 0.241626
H92   H     H_    0.474772 0.525327 0.792466 0.315038
H93   H     H_    0.574255 0.503251 0.787152 0.236187
C80   C     C_3   0.478885 0.453799 0.141687 -0.594220
H94   H     H_    0.447505 0.467552 0.238270 0.277829
H95   H     H_    0.513713 0.501481 0.123734 0.256881
H96   H     H_    0.437387 0.443309 0.028264 0.267466
C81   C     C_3   0.963503 0.156132 0.259713 -0.722988
H97   H     H_    0.995487 0.104044 0.265781 0.285436
H98   H     H_    0.995029 0.195158 0.345084 0.181645
H99   H     H_    0.905607 0.145223 0.287753 0.255708
C82   C     C_3   0.975934 0.848402 0.784103 -0.851974
H100  H     H_    0.018124 0.815456 0.866285 0.237206
H101  H     H_    0.998064 0.903462 0.781486 0.295112
H102  H     H_    0.920289 0.851498 0.826078 0.222625
C83   C     C_3   0.463406 0.657520 0.261232 -0.739400
H103  H     H_    0.495906 0.605622 0.270193 0.283041
H104  H     H_    0.494146 0.697523 0.345151 0.180940
H105  H     H_    0.405459 0.646507 0.288867 0.257983
C84   C     C_3   0.474632 0.347559 0.784365 -0.833777
H106  H     H_    0.515466 0.313501 0.867370 0.234672
H107  H     H_    0.498179 0.402230 0.783722 0.293633
H108  H     H_    0.418390 0.351802 0.823903 0.223377
F9    F     F_    0.906053 0.077852 0.985069 -0.718943
F10   F     F_    0.924400 0.924631 0.488796 -0.635709
F11   F     F_    0.406973 0.577833 0.985741 -0.718452
F12   F     F_    0.422937 0.424547 0.490241 -0.634895

loop_
_geom_bond_atom_site_label_1
_geom_bond_atom_site_label_2
_geom_bond_distance
_ccdc_geom_bond_type
C57   C61   1.451355 A    
C9    H63   1.100852 S    
C42   H68   1.072645 S    
C16   H24   1.107358 S    
C10   H64   1.106707 S    
O23   P16   1.750303 S    
C18   H34   1.104256 S    
C15   H19   1.112601 S    
O39   C16   1.401783 S    
C6    C10   1.514083 S    
C5    C9    1.519435 S    
P1    O17   1.741960 S    
P3    O19   1.743651 S    
O13   P14   1.546167 D    
C31   H59   1.107107 S    
P5    O37   1.749160 S    
C8    H12   1.103369 S    
C23   H39   1.105522 S    
P8    O47   1.632078 S    
C7    C11   1.518831 S    
C1    F3    1.382397 S    
P7    O39   1.749519 S    
C26   H46   1.103629 S    
P8    O40   1.748023 S    
C73   H75   1.074457 S    
C35   F7    1.355536 S    
C51   C55   1.460321 A    
P9    O33   1.548361 D    
C80   H94   1.102918 S    
P5    C62   1.910302 S    
C38   C46   1.376210 A    
P1    O1    1.552347 D    
O5    Ba2   2.895490 S    
C60   C64   1.442989 A    
H1    C29   1.094171 S    
C3    H5    1.099848 S    
C3    C31   1.544417 S    
O9    P14   1.779623 S    
C82   H100  1.097039 S    
C74   H78   1.094225 S    
P3    O3    1.552347 D    
C29   H57   1.107203 S    
C22   H38   1.108496 S    
C81   H97   1.112224 S    
P4    O20   1.724406 S    
C55   C57   1.446302 A    
C1    C29   1.544943 S    
O44   C8    1.413177 S    
C25   H53   1.107965 S    
C40   C48   1.376364 A    
C9    H15   1.090171 S    
Ba1   O45   2.895479 S    
Ba3   Ba4   4.683570 S    
Ba3   O47   2.895479 S    
C20   H28   1.102474 S    
C75   H81   1.074045 S    
C39   H71   1.082535 S    
C56   C58   1.442649 A    
C78   H88   1.104455 S    
C50   C54   1.454801 A    
O25   Ba1   2.918863 S    
C44   H66   1.072692 S    
C1    C77   1.523044 S    
C21   H37   1.106212 S    
O2    Ba2   2.915608 S    
C9    F9    1.375697 S    
O17   C21   1.389277 S    
P7    O48   1.619523 S    
C14   H22   1.107399 S    
C4    F2    1.374077 S    
H4    C32   1.093500 S    
C13   H21   1.106140 S    
P5    O25   1.552429 D    
C6    C82   1.511978 S    
O9    Ba1   2.840996 S    
P5    O46   1.619523 S    
C16   H20   1.109274 S    
C80   H96   1.108670 S    
C15   H23   1.108237 S    
C6    H10   1.103060 S    
C23   C27   1.516822 S    
C65   C69   1.410974 A    
O19   C23   1.389782 S    
P4    O8    1.614686 S    
O14   P13   1.545108 D    
C21   C25   1.515205 S    
C84   H106  1.099573 S    
P6    O38   1.748601 S    
O40   C15   1.405328 S    
C83   H104  1.101763 S    
C7    C83   1.505331 S    
C36   C64   1.412733 A    
C13   C17   1.510476 S    
P4    O4    1.553123 D    
C36   F8    1.354947 S    
O8    Ba3   2.877707 S    
P7    Ba3   3.475537 S    
P8    O28   1.551653 D    
C2    C30   1.527122 S    
C8    C84   1.512543 S    
P9    O29   1.715633 S    
C28   H56   1.108112 S    
C4    C80   1.522361 S    
C79   H91   1.100225 S    
P10   O34   1.549127 D    
C2    C78   1.522659 S    
C67   C71   1.411018 A    
P4    Ba4   3.473378 S    
C39   C47   1.380142 A    
P2    O2    1.553123 D    
P12   O36   1.549333 D    
P1    Ba1   3.481714 S    
C11   H61   1.100311 S    
C37   C49   1.397322 A    
O12   Ba4   2.833963 S    
C37   C45   1.380961 A    
O11   P16   1.780387 S    
O29   Ba1   2.833235 S    
C53   C59   1.446248 A    
C14   C18   1.512874 S    
C15   C19   1.512554 S    
O28   Ba4   2.936794 S    
O23   C31   1.403002 S    
H2    C30   1.094156 S    
O38   C13   1.404808 S    
C20   H32   1.109111 S    
P6    Ba2   3.484060 S    
C71   C73   1.497263 S    
O20   C24   1.384978 S    
C5    C81   1.505064 S    
P2    C50   1.864127 S    
C33   F5    1.355524 S    
C32   H60   1.111522 S    
P1    O5    1.627096 S    
Ba2   O46   2.877696 S    
C12   H14   1.103756 S    
C19   H27   1.092931 S    
C14   H18   1.109294 S    
C11   H13   1.090359 S    
C27   H51   1.104558 S    
P1    C49   1.878998 S    
O1    Ba1   2.933361 S    
P10   C65   1.882387 S    
C43   C47   1.412716 A    
P12   C67   1.882908 S    
C73   H73   1.086375 S    
C18   H26   1.102677 S    
O21   C29   1.403890 S    
Ba3   O48   2.983781 S    
C41   C59   1.420817 A    
C11   F11   1.374510 S    
C52   C56   1.454888 A    
P7    C64   1.910011 S    
O26   Ba2   2.936794 S    
Ba1   O46   2.983781 S    
P6    C61   1.912268 S    
C69   C75   1.497857 S    
C34   F6    1.354920 S    
C34   C66   1.402584 A    
P2    O18   1.725204 S    
C76   H82   1.096788 S    
C22   C26   1.496896 S    
C33   C65   1.397633 A    
C68   C72   1.410002 A    
Ba4   O47   2.980753 S    
C74   H76   1.096837 S    
C17   H33   1.105018 S    
C40   C52   1.393746 A    
C17   H25   1.092215 S    
C44   C58   1.419146 A    
C38   H70   1.082631 S    
C41   C45   1.412879 A    
C28   H48   1.104770 S    
C19   H35   1.108160 S    
P10   O30   1.727926 S    
C83   H105  1.107661 S    
O15   P16   1.545444 D    
O32   Ba4   2.840248 S    
C54   C72   1.437768 A    
C70   C76   1.501423 S    
P11   O43   1.761545 S    
C1    H7    1.100174 S    
O22   P13   1.737935 S    
P12   O44   1.758510 S    
O11   Ba3   2.840996 S    
C5    H9    1.104754 S    
O7    Ba4   2.895490 S    
C84   H107  1.102947 S    
C12   H62   1.106092 S    
C16   C20   1.513312 S    
O6    Ba1   2.877707 S    
P6    O26   1.551653 D    
P14   C45   1.861878 S    
C25   H45   1.106614 S    
C66   C70   1.410346 A    
C20   H36   1.104195 S    
C80   H95   1.109856 S    
C13   H17   1.109612 S    
C79   H92   1.107109 S    
P9    O41   1.760817 S    
C2    H8    1.104117 S    
P11   C68   1.890786 S    
O22   C30   1.394229 S    
C73   H74   1.095403 S    
C43   H65   1.072729 S    
C3    C79   1.523950 S    
P2    O6    1.614686 S    
C53   C71   1.436720 A    
C27   H55   1.108036 S    
C4    C32   1.527504 S    
P11   O31   1.716632 S    
Ba1   Ba2   4.683570 S    
C39   C51   1.396633 A    
P12   O32   1.728111 S    
O18   C22   1.385424 S    
C77   H87   1.109039 S    
P8    C63   1.911264 S    
C49   C53   1.460519 A    
C36   C68   1.402513 A    
C75   H79   1.087134 S    
C24   C28   1.496632 S    
C35   C63   1.408306 A    
O3    Ba3   2.933361 S    
C42   C46   1.406840 A    
C34   C62   1.412635 A    
Ba2   O45   2.980753 S    
P5    Ba1   3.475537 S    
C40   H72   1.082677 S    
C33   C61   1.408414 A    
C43   C57   1.420596 A    
C81   H99   1.107784 S    
H3    C31   1.093844 S    
C24   H44   1.109207 S    
P10   O42   1.758004 S    
O10   Ba2   2.833963 S    
C28   H52   1.096923 S    
C19   H31   1.113191 S    
C55   C69   1.436275 A    
O4    Ba4   2.915608 S    
C27   H47   1.108060 S    
C18   H30   1.109131 S    
O16   P15   1.545630 D    
O27   Ba3   2.918863 S    
C74   H77   1.080367 S    
C82   H102  1.103379 S    
C78   H90   1.109361 S    
P16   C47   1.860523 S    
C77   H86   1.106603 S    
P9    C66   1.890701 S    
C17   H29   1.109850 S    
C76   H83   1.080259 S    
P3    Ba3   3.481714 S    
C7    H11   1.105015 S    
P2    Ba2   3.473378 S    
Ba4   O48   2.877696 S    
P7    O27   1.552429 D    
P15   C48   1.855621 S    
C83   H103  1.112582 S    
O31   Ba3   2.833235 S    
C23   H43   1.106987 S    
O41   C5    1.414349 S    
O30   Ba2   2.840248 S    
O10   P13   1.780443 S    
C4    H6    1.103021 S    
P13   C46   1.853725 S    
C75   H80   1.094600 S    
O12   P15   1.779382 S    
O43   C7    1.414693 S    
C10   F10   1.381658 S    
C54   C60   1.442525 A    
C26   H54   1.108525 S    
C84   H108  1.104378 S    
C59   C63   1.451344 A    
P4    C52   1.864912 S    
P3    O7    1.627096 S    
O37   C14   1.401625 S    
C58   C62   1.443123 A    
P11   O35   1.548700 D    
C76   H84   1.093722 S    
C41   H67   1.072659 S    
C21   H41   1.107364 S    
C10   H16   1.103813 S    
C44   C48   1.406485 A    
C25   H49   1.101698 S    
O42   C6    1.413001 S    
P8    Ba4   3.484060 S    
O24   P15   1.737578 S    
C8    C12   1.515172 S    
C81   H98   1.101568 S    
C79   H93   1.109405 S    
C82   H101  1.101768 S    
O24   C32   1.393851 S    
C30   H58   1.110752 S    
C35   C67   1.397271 A    
C37   H69   1.082486 S    
O21   P14   1.752582 S    
C56   C70   1.437757 A    
C2    F4    1.374629 S    
C22   H42   1.108782 S    
C78   H89   1.111539 S    
C77   H85   1.097776 S    
P6    O45   1.632078 S    
P3    C51   1.877406 S    
C3    F1    1.382925 S    
C38   C50   1.393615 A    
C12   F12   1.380827 S    
C24   H40   1.108458 S    
C42   C60   1.418995 A    
C72   C74   1.500899 S    
C26   H50   1.096286 S    
