data_mof_unit_52968.cif
_audit_creation_date              2013-03-05T16:36:14-0500
_audit_creation_method            fapswitch 2.2
_symmetry_space_group_name_H-M    P1
_symmetry_Int_Tables_number       1
_space_group_crystal_system       triclinic
_cell_length_a                    27.289356
_cell_length_b                    9.139814
_cell_length_c                    7.800515
_cell_angle_alpha                 90.783807
_cell_angle_beta                  91.967285
_cell_angle_gamma                 93.324426
_cell_volume                      1940.94327813

loop_
_atom_site_label
_atom_site_type_symbol
_atom_site_description
_atom_site_fract_x
_atom_site_fract_y
_atom_site_fract_z
_atom_type_partial_charge
O1    O     O_R   0.500000 0.288390 0.642760 -0.613097
O2    O     O_R   0.500000 0.711610 0.357240 -0.581314
O3    O     O_R   0.500000 0.711610 0.642760 -0.587147
O4    O     O_R   0.500000 0.288390 0.357240 -0.567472
C1    C     C_R   0.500684 0.220092 0.499246 0.896594
C2    C     C_R   0.500451 0.780100 0.500761 0.841320
O5    O     O_R   0.430260 0.500000 0.642770 -0.604775
O6    O     O_R   0.569740 0.500000 0.357230 -0.585631
O7    O     O_R   0.569740 0.500000 0.642770 -0.603980
O8    O     O_R   0.430260 0.500000 0.357230 -0.559608
C3    C     C_R   0.406496 0.496140 0.497697 0.924934
C4    C     C_R   0.592931 0.493539 0.503338 0.949300
Cu1   Cu    Cu3+1 0.500000 0.500000 0.669080 0.960920
Cu2   Cu    Cu3+1 0.500000 0.500000 0.330920 0.994466
C5    C     C_R   0.172593 0.199639 0.461128 0.566360
C6    C     C_R   0.813251 0.338781 0.660001 0.634887
C7    C     C_R   0.176771 0.383158 0.674193 0.590299
C8    C     C_R   0.811963 0.250875 0.370450 0.569013
O9    O     O_2   0.191423 0.071547 0.423970 -0.513364
O10   O     O_2   0.788722 0.385836 0.795653 -0.552931
O11   O     O_2   0.203456 0.459132 0.797785 -0.559427
O12   O     O_2   0.786683 0.218435 0.221935 -0.569960
N1    N     N_R   0.200090 0.311540 0.545631 -0.416150
N2    N     N_R   0.788372 0.304997 0.507521 -0.396109
C9    C     C_R   0.267198 0.511981 0.524008 0.387963
C10   C     C_R   0.698535 0.248363 0.498008 0.353353
C11   C     C_R   0.286417 0.267619 0.437256 0.324217
C12   C     C_R   0.731553 0.501412 0.482361 0.305935
C13   C     C_R   0.317603 0.556501 0.530884 0.274046
C14   C     C_R   0.652829 0.300264 0.537975 0.247456
C15   C     C_R   0.337205 0.309289 0.453778 0.281603
C16   C     C_R   0.683641 0.551483 0.494950 0.264642
C17   C     C_R   0.251045 0.360736 0.503057 -0.047068
C18   C     C_R   0.738887 0.350106 0.485920 0.055515
C19   C     C_R   0.097158 0.291432 0.555608 -0.048955
C20   C     C_R   0.889630 0.279906 0.533053 -0.059711
C21   C     C_R   0.121675 0.205237 0.440971 -0.056358
C22   C     C_R   0.864391 0.330825 0.674112 -0.046913
C23   C     C_R   0.124937 0.373872 0.681716 -0.052940
C24   C     C_R   0.862892 0.233782 0.382134 -0.045585
C25   C     C_R   0.094854 0.117792 0.318127 -0.159511
C26   C     C_R   0.890803 0.377537 0.823852 -0.158150
C27   C     C_R   0.100408 0.445966 0.809739 -0.153230
C28   C     C_R   0.887857 0.178296 0.244066 -0.159764
C29   C     C_R   0.352966 0.455325 0.493519 -0.356415
C30   C     C_R   0.643818 0.448701 0.510757 -0.334491
H1    H     H_    0.113309 0.048200 0.230460 0.156346
H2    H     H_    0.872128 0.413676 0.935809 0.187332
H3    H     H_    0.120568 0.510848 0.908432 0.166783
H4    H     H_    0.868303 0.143215 0.126002 0.186654
C31   C     C_R   0.966422 0.216751 0.403513 0.035119
C32   C     C_R   0.020544 0.353928 0.686224 0.034513
C33   C     C_R   0.968411 0.339210 0.687738 0.035889
C34   C     C_R   0.018152 0.208336 0.417209 0.032261
C35   C     C_R   0.941644 0.278105 0.541689 0.077038
C36   C     C_R   0.045086 0.285568 0.552405 0.074884
C37   C     C_R   0.938592 0.168246 0.255006 -0.217455
C38   C     C_R   0.049231 0.435244 0.813208 -0.204264
C39   C     C_R   0.941896 0.383313 0.830173 -0.217476
C40   C     C_R   0.044030 0.122822 0.302505 -0.196827
H5    H     H_    0.955450 0.128192 0.141803 0.145090
H6    H     H_    0.033013 0.495943 0.914045 0.138309
H7    H     H_    0.959735 0.420305 0.949813 0.145296
H8    H     H_    0.025639 0.053300 0.204462 0.137973
C41   C     C_1   0.501001 0.065431 0.498888 -0.164531
C42   C     C_1   0.500864 0.934875 0.500980 -0.210064
N3    N     N_1   0.500000 0.500000 0.076820 -0.059349
N4    N     N_1   0.500000 0.500000 0.923180 -0.070933
O13   O     O_3   0.372097 0.209589 0.417599 -0.597845
C43   C     C_3   0.370061 0.091499 0.534358 0.090949
H9    H     H_    0.390928 0.003133 0.477646 0.142262
H10   H     H_    0.332530 0.040629 0.549285 0.210194
C44   C     C_3   0.394695 0.134142 0.709954 -0.410390
H11   H     H_    0.417205 0.044151 0.756357 0.189715
H12   H     H_    0.418790 0.232998 0.697881 0.280929
C45   C     C_3   0.358382 0.168453 0.845731 -0.892052
H13   H     H_    0.336732 0.261753 0.805985 0.249017
H14   H     H_    0.378593 0.198632 0.968324 0.270224
H15   H     H_    0.333696 0.070957 0.866961 0.240758
O14   O     O_3   0.674929 0.699098 0.508776 -0.637584
C46   C     C_3   0.697291 0.764939 0.660561 0.121244
H16   H     H_    0.682951 0.875192 0.674648 0.193272
H17   H     H_    0.737445 0.784782 0.648218 0.211567
C47   C     C_3   0.685244 0.683512 0.826642 -0.389320
H18   H     H_    0.645196 0.684072 0.847999 0.224512
H19   H     H_    0.695722 0.568394 0.819315 0.245007
C48   C     C_3   0.713873 0.755092 0.979096 -0.932227
H20   H     H_    0.753864 0.745309 0.963975 0.278088
H21   H     H_    0.702721 0.697691 0.096938 0.253753
H22   H     H_    0.706499 0.872816 0.990938 0.255764
O15   O     O_3   0.330253 0.703728 0.562414 -0.598329
C49   C     C_3   0.353644 0.730818 0.726494 0.065390
H23   H     H_    0.348285 0.846393 0.759570 0.161647
H24   H     H_    0.393852 0.724356 0.718607 0.157715
C50   C     C_3   0.333415 0.638574 0.875803 -0.373678
H25   H     H_    0.293200 0.649484 0.883094 0.264385
H26   H     H_    0.340329 0.521308 0.855460 0.214532
C51   C     C_3   0.358578 0.688271 0.046315 -0.868783
H27   H     H_    0.399081 0.684775 0.038926 0.272751
H28   H     H_    0.346270 0.613657 0.149359 0.254291
H29   H     H_    0.349149 0.801591 0.079609 0.248085
O16   O     O_3   0.618599 0.203604 0.610374 -0.620031
C52   C     C_3   0.615627 0.226545 0.790887 0.084562
H30   H     H_    0.594769 0.129502 0.841693 0.148711
H31   H     H_    0.592643 0.318323 0.818680 0.196605
C53   C     C_3   0.664880 0.244797 0.896042 -0.352849
H32   H     H_    0.678614 0.135208 0.923406 0.214587
H33   H     H_    0.693821 0.307738 0.828352 0.252725
C54   C     C_3   0.658229 0.328569 0.063655 -0.923792
H34   H     H_    0.645575 0.439580 0.037384 0.260116
H35   H     H_    0.693791 0.341790 0.136917 0.270996
H36   H     H_    0.630565 0.269729 0.141786 0.250852
O17   O     O_3   0.272995 0.136418 0.354624 -0.550001
C55   C     C_3   0.278923 0.147026 0.175035 0.110696
H37   H     H_    0.298473 0.049805 0.134738 0.160653
H38   H     H_    0.301212 0.246377 0.135284 0.129729
C56   C     C_3   0.228615 0.143029 0.080488 -0.370736
H39   H     H_    0.205045 0.050080 0.125541 0.263597
H40   H     H_    0.210532 0.246426 0.107251 0.222908
C57   C     C_3   0.232249 0.121867 0.887643 -0.838160
H41   H     H_    0.253496 0.215906 0.833333 0.278705
H42   H     H_    0.194737 0.114086 0.827485 0.265351
H43   H     H_    0.249845 0.018694 0.857280 0.253167
O18   O     O_3   0.772431 0.598233 0.491862 -0.598624
C58   C     C_3   0.785024 0.642924 0.326134 0.042400
H44   H     H_    0.765520 0.742894 0.295736 0.167492
H45   H     H_    0.775905 0.556686 0.225151 0.168799
C59   C     C_3   0.840241 0.681823 0.326120 -0.313446
H46   H     H_    0.850290 0.765179 0.428453 0.233292
H47   H     H_    0.860451 0.582154 0.353795 0.218940
C60   C     C_3   0.855669 0.742938 0.153765 -0.913030
H48   H     H_    0.846376 0.661151 0.049312 0.269624
H49   H     H_    0.895950 0.769016 0.157733 0.255781
H50   H     H_    0.836860 0.845021 0.125999 0.263286
O19   O     O_3   0.234376 0.620702 0.546003 -0.533197
C61   C     C_3   0.204878 0.635592 0.395059 0.090479
H51   H     H_    0.172327 0.695382 0.430777 0.182526
H52   H     H_    0.190321 0.528498 0.338806 0.107724
C62   C     C_3   0.232716 0.724654 0.260675 -0.341176
H53   H     H_    0.244845 0.834357 0.314726 0.290385
H54   H     H_    0.265630 0.667377 0.224610 0.211761
C63   C     C_3   0.200505 0.741846 0.099783 -0.888560
H55   H     H_    0.188023 0.632521 0.047118 0.285085
H56   H     H_    0.221933 0.800871 0.001319 0.272994
H57   H     H_    0.167904 0.803641 0.129601 0.248707
O20   O     O_3   0.705433 0.099622 0.503741 -0.596095
C64   C     C_3   0.688136 0.030172 0.346988 0.080034
H58   H     H_    0.707856 0.928274 0.333608 0.190563
H59   H     H_    0.697827 0.095865 0.233110 0.164437
C65   C     C_3   0.632412 0.988790 0.344019 -0.302664
H60   H     H_    0.622003 0.937090 0.466454 0.263358
H61   H     H_    0.611491 0.088043 0.327772 0.224862
C66   C     C_3   0.615933 0.884618 0.196163 -0.899366
H62   H     H_    0.626592 0.932208 0.071816 0.243325
H63   H     H_    0.575335 0.866880 0.193684 0.269529
H64   H     H_    0.631883 0.776847 0.213247 0.291181

loop_
_geom_bond_atom_site_label_1
_geom_bond_atom_site_label_2
_geom_bond_distance
_ccdc_geom_bond_type
C38   H6    1.078335 S    
O5    Cu1   1.907176 S    
C48   H20   1.110295 S    
C44   H11   1.111913 S    
C64   H58   1.107792 S    
C47   C48   1.519308 S    
C60   H50   1.111010 S    
C59   H46   1.112171 S    
C55   H37   1.109892 S    
C33   C39   1.413263 A    
C50   C51   1.526948 S    
O19   C61   1.415954 S    
C34   C40   1.413652 A    
C11   C17   1.427198 A    
C5    O9    1.337689 S    
C7    N1    1.383211 A    
C2    C42   1.413977 S    
O1    C1    1.275505 A    
C64   H59   1.109885 S    
C47   H19   1.107445 S    
O20   C64   1.423102 S    
O13   C43   1.421605 S    
C54   H35   1.108791 S    
C62   C63   1.522548 S    
C53   H32   1.110485 S    
C51   H27   1.111062 S    
C7    C23   1.415448 A    
C10   O20   1.384320 S    
O7    Cu1   1.921183 S    
C5    C21   1.396973 A    
C8    C24   1.407547 A    
C27   C38   1.395571 A    
C10   C18   1.406029 A    
C12   O18   1.382413 S    
C50   H25   1.111003 S    
N1    C17   1.486384 S    
C65   C66   1.524350 S    
C58   C59   1.528032 S    
Cu2   N3    1.982110 S    
C45   H15   1.103345 S    
C43   H9    1.110465 S    
C31   C37   1.414842 A    
C66   H63   1.109813 S    
C31   C35   1.418056 A    
O3    Cu1   1.947734 S    
C57   H43   1.109087 S    
C6    O10   1.349928 S    
O3    C2    1.279823 A    
C5    N1    1.379196 A    
C12   C18   1.409269 A    
C6    N2    1.371573 A    
Cu1   Cu2   2.637823 S    
O4    Cu2   1.947735 S    
C44   H12   1.093288 S    
C63   H57   1.110622 S    
O2    C2    1.274507 A    
C61   C62   1.531321 S    
O2    Cu2   1.942148 S    
C46   H17   1.107959 S    
C57   H42   1.109460 S    
O5    C3    1.283858 A    
C33   C35   1.421799 A    
C9    C13   1.410658 A    
C34   C36   1.420172 A    
C11   C15   1.416955 A    
N3    N4    1.198472 T    
C20   C24   1.409893 A    
C64   C65   1.544898 S    
C47   H18   1.111442 S    
C8    N2    1.368258 A    
C61   H52   1.113381 S    
O8    Cu2   1.921185 S    
C54   H36   1.106372 S    
O15   C49   1.422611 S    
C27   H3    1.080547 S    
C23   C27   1.399482 A    
C49   C50   1.545663 S    
C46   H16   1.107390 S    
C13   C29   1.409534 A    
C4    C30   1.469981 S    
C19   C23   1.404410 A    
C16   O14   1.386876 S    
C15   O13   1.388772 S    
C12   C16   1.416170 A    
C28   C37   1.392658 A    
O6    C4    1.288262 A    
C14   O16   1.387851 S    
C43   C44   1.540060 S    
C49   H24   1.106035 S    
C25   H1    1.083862 S    
C52   H31   1.099734 S    
C26   H2    1.083368 S    
C45   H13   1.106996 S    
C66   H64   1.107597 S    
C32   C38   1.416166 A    
C11   O17   1.378150 S    
C1    C41   1.414077 S    
C10   C14   1.403306 A    
C51   H28   1.109476 S    
C48   H21   1.107577 S    
C58   H44   1.108175 S    
C44   C45   1.516940 S    
C65   H61   1.105971 S    
C56   C57   1.521395 S    
O1    Cu1   1.942149 S    
C60   H48   1.110920 S    
C59   C60   1.526091 S    
C13   O15   1.386221 S    
C46   C47   1.538686 S    
C32   C33   1.421702 A    
C58   H45   1.118253 S    
O17   C55   1.419687 S    
C28   H4    1.083538 S    
O6    Cu2   1.907173 S    
C19   C21   1.396729 A    
C19   C36   1.418266 A    
C8    O12   1.348319 S    
C16   C30   1.404537 A    
C14   C30   1.410361 A    
C25   C40   1.391591 A    
C45   H14   1.110720 S    
O14   C46   1.422912 S    
C60   H49   1.110501 S    
C59   H47   1.111790 S    
C26   C39   1.391375 A    
C55   H38   1.116805 S    
C62   H53   1.110410 S    
C50   H26   1.109226 S    
C37   H5    1.078885 S    
C51   H29   1.111092 S    
C39   H7    1.078587 S    
C65   H60   1.109733 S    
C40   H8    1.078841 S    
C31   C34   1.418685 A    
C56   H40   1.111732 S    
C20   C35   1.419775 A    
C54   H34   1.110026 S    
C62   H54   1.108048 S    
C53   H33   1.103530 S    
O4    C1    1.279022 A    
C20   C22   1.406031 A    
C49   H23   1.103108 S    
C52   C53   1.549758 S    
C63   H56   1.108378 S    
C21   C25   1.398496 A    
O16   C52   1.426542 S    
C9    O19   1.388596 S    
O7    C4    1.279373 A    
N2    C18   1.439758 S    
C55   C56   1.534280 S    
C3    C29   1.485723 S    
O8    C3    1.292124 A    
C22   C26   1.399646 A    
C24   C28   1.398834 A    
C41   C42   1.193380 T    
C15   C29   1.405546 A    
C48   H22   1.109242 S    
C9    C17   1.431822 A    
C52   H30   1.110997 S    
C63   H55   1.105850 S    
C57   H41   1.106083 S    
C61   H51   1.111044 S    
C43   H10   1.110468 S    
C66   H62   1.109451 S    
C56   H39   1.104195 S    
C53   C54   1.527629 S    
C32   C36   1.416769 A    
C6    C22   1.402289 A    
O18   C58   1.408847 S    
Cu1   N4    1.982110 S    
C7    O11   1.347863 S    
