data_mof_unit_45517.cif
_audit_creation_date              2012-12-10T17:51:33-0500
_audit_creation_method            fapswitch 2.2
_symmetry_space_group_name_H-M    P1
_symmetry_Int_Tables_number       1
_space_group_crystal_system       triclinic
_cell_length_a                    9.930349
_cell_length_b                    10.670668
_cell_length_c                    16.907269
_cell_angle_alpha                 89.149495
_cell_angle_beta                  83.898386
_cell_angle_gamma                 89.626163
_cell_volume                      1781.18513281

loop_
_atom_site_label
_atom_site_type_symbol
_atom_type_description
_atom_site_fract_x
_atom_site_fract_y
_atom_site_fract_z
_atom_type_partial_charge
C1    C     C_R   0.499949 0.739473 0.496473 0.855843
C2    C     C_R   0.536275 0.509118 0.262135 -0.052181
C3    C     C_R   0.354550 0.871593 0.378437 -0.231541
C4    C     C_R   0.479637 0.500949 0.652340 0.930654
C5    C     C_R   0.287985 0.936580 0.322120 -0.280620
C6    C     C_R   0.295675 0.066254 0.316941 0.182613
C7    C     C_R   0.368748 0.131718 0.368977 0.575334
C8    C     C_R   0.432259 0.067454 0.429459 -0.061611
C9    C     C_R   0.427474 0.935688 0.432804 0.045618
C10   C     C_R   0.500126 0.872083 0.489009 -0.039209
C11   C     C_R   0.579041 0.935160 0.538426 -0.162043
C12   C     C_R   0.517485 0.401696 0.780331 0.136547
C13   C     C_R   0.581442 0.062796 0.536522 -0.170064
C14   C     C_R   0.504916 0.128758 0.485376 -0.080368
C15   C     C_R   0.849766 0.597326 0.631294 -0.121849
C16   C     C_R   0.501400 0.260904 0.494639 0.991490
C17   C     C_R   0.904336 0.597164 0.704223 -0.186759
C18   C     C_R   0.021877 0.527765 0.712739 -0.156250
C19   C     C_R   0.095604 0.476165 0.645617 0.217537
C20   C     C_R   0.056643 0.506265 0.570011 0.104899
C21   C     C_R   0.917976 0.534313 0.566498 0.147805
C22   C     C_R   0.940690 0.477802 0.432723 -0.090693
C23   C     C_R   0.623189 0.432486 0.133336 -0.153259
C24   C     C_R   0.084008 0.485215 0.431791 -0.077933
C25   C     C_R   0.520448 0.500398 0.347593 0.950592
C26   C     C_R   0.461305 0.499682 0.737879 -0.134463
C27   C     C_R   0.379907 0.592475 0.777944 0.095334
C28   C     C_R   0.355573 0.586582 0.860251 -0.163515
C29   C     C_R   0.413343 0.490315 0.902059 0.059306
C30   C     C_R   0.492004 0.397114 0.862312 -0.174355
C31   C     C_R   0.618562 0.424182 0.215714 0.173402
C32   C     C_R   0.466283 0.604777 0.226337 -0.241198
C33   C     C_R   0.473672 0.613972 0.144544 -0.078676
C34   C     C_R   0.546655 0.524149 0.098468 0.157511
C35   C     C_2   0.413587 0.499896 0.987112 0.172789
C36   C     C_2   0.533677 0.518644 0.014464 -0.294761
F1    F     F_    0.383379 0.256228 0.355865 -0.667555
H1    H     H_    0.416831 0.686768 0.117210 0.162622
H2    H     H_    0.146940 0.472527 0.376288 0.192255
H3    H     H_    0.404050 0.671072 0.261502 0.141339
H4    H     H_    0.626281 0.522179 0.973831 0.160950
H5    H     H_    0.538205 0.323917 0.895621 0.176296
H6    H     H_    0.680261 0.363745 0.096812 0.168156
H7    H     H_    0.298561 0.660737 0.891826 0.180294
H8    H     H_    0.636106 0.885346 0.580386 0.161578
H9    H     H_    0.349098 0.770991 0.377557 0.174669
H10   H     H_    0.232761 0.885511 0.281198 0.188769
H11   H     H_    0.640516 0.110370 0.576993 0.192405
H12   H     H_    0.897304 0.458054 0.378291 0.179005
H13   H     H_    0.758961 0.650907 0.625231 0.182147
H14   H     H_    0.849820 0.641581 0.755251 0.173908
H15   H     H_    0.050740 0.507843 0.771618 0.181298
I1    I     I_    0.304602 0.751724 0.719154 -0.334308
I2    I     I_    0.199746 0.162750 0.228100 -0.211499
I3    I     I_    0.725332 0.274102 0.265190 -0.284084
I4    I     I_    0.178105 0.295023 0.665199 -0.256619
I5    I     I_    0.643115 0.258566 0.726322 -0.331338
I6    I     I_    0.225403 0.475736 0.058759 -0.297786
N1    N     N_R   0.857140 0.501200 0.500750 -0.115283
N2    N     N_R   0.142740 0.501280 0.500770 -0.119060
O1    O     O_R   0.385310 0.683220 0.500000 -0.612679
O2    O     O_R   0.614640 0.683250 0.500010 -0.637344
O3    O     O_R   0.371780 0.500010 0.615800 -0.595671
O4    O     O_R   0.601110 0.500030 0.615800 -0.621302
O5    O     O_R   0.385360 0.316750 0.499990 -0.556115
O6    O     O_R   0.614690 0.316780 0.500000 -0.606687
O7    O     O_R   0.398890 0.499970 0.384200 -0.588867
O8    O     O_R   0.628220 0.499990 0.384200 -0.627644
Zn1   Zn    Zn3+2 0.346870 0.499980 0.499990 1.019253
Zn2   Zn    Zn3+2 0.653130 0.500020 0.500010 0.982971

loop_
_geom_bond_atom_site_label_1
_geom_bond_atom_site_label_2
_ccdc_geom_bond_type
C19   I4    S    
C8    C9    A    
C13   H11   S    
C4    C26   S    
C27   I1    S    
C6    C7    A    
C3    C9    A    
O4    Zn2   S    
C20   N2    A    
C11   C13   A    
C9    C10   A    
C4    O4    A    
C3    H9    S    
C19   C20   A    
C25   O7    A    
C24   N2    A    
C23   C34   A    
C12   C30   A    
C32   C33   A    
C17   H14   S    
C27   C28   A    
C32   H3    S    
C17   C18   A    
C26   C27   A    
C3    C5    A    
C18   H15   S    
C7    C8    A    
O6    Zn2   S    
C13   C14   A    
C1    O2    A    
C5    H10   S    
C4    O3    A    
C36   H4    S    
C29   C30   A    
C25   O8    A    
N2    Zn1   S    
C6    I2    S    
C22   H12   S    
O5    Zn1   S    
C12   I5    S    
C22   C24   A    
O8    Zn2   S    
C28   C29   A    
C33   C34   A    
C21   N1    A    
C2    C25   S    
C34   C36   S    
C35   I6    S    
C7    F1    S    
C5    C6    A    
C14   C16   S    
C11   H8    S    
C16   O6    A    
C10   C11   A    
N1    Zn2   S    
C1    O1    A    
O3    Zn1   S    
C15   C21   A    
C24   H2    S    
C23   H6    S    
C20   C21   A    
O2    Zn2   S    
C2    C32   A    
C18   C19   A    
C15   H13   S    
O1    Zn1   S    
C22   N1    A    
C15   C17   A    
C29   C35   S    
C30   H5    S    
C8    C14   A    
C16   O5    A    
C31   I3    S    
C28   H7    S    
C1    C10   S    
C33   H1    S    
C12   C26   A    
C2    C31   A    
O7    Zn1   S    
C35   C36   D    
C23   C31   A    
