data_mof_unit_13782.cif
_audit_creation_date              2012-12-10T18:04:37-0500
_audit_creation_method            fapswitch 2.2
_symmetry_space_group_name_H-M    P1
_symmetry_Int_Tables_number       1
_space_group_crystal_system       triclinic
_cell_length_a                    19.553306
_cell_length_b                    17.579201
_cell_length_c                    12.601275
_cell_angle_alpha                 89.972347
_cell_angle_beta                  99.081119
_cell_angle_gamma                 90.015445
_cell_volume                      4277.16351853

loop_
_atom_site_label
_atom_site_type_symbol
_atom_type_description
_atom_site_fract_x
_atom_site_fract_y
_atom_site_fract_z
_atom_type_partial_charge
C1    C     C_R   0.411695 0.103427 0.444131 0.851856
C2    C     C_R   0.408340 0.900395 0.441772 0.866275
C3    C     C_R   0.911739 0.603475 0.444149 0.868071
C4    C     C_R   0.911715 0.396554 0.444163 0.866563
C5    C     C_R   0.745183 0.215539 0.538674 0.092007
C6    C     C_R   0.745437 0.784735 0.538573 0.091755
C7    C     C_R   0.213231 0.752114 0.516263 0.094298
C8    C     C_R   0.244699 0.283764 0.538651 0.090763
C9    C     C_R   0.781682 0.210614 0.645202 0.176361
C10   C     C_R   0.782032 0.789744 0.645017 0.177645
C11   C     C_R   0.193548 0.811285 0.581982 0.180913
C12   C     C_R   0.281079 0.288390 0.645290 0.175505
C13   C     C_R   0.222492 0.883387 0.577801 -0.255879
C14   C     C_R   0.348025 0.259556 0.668977 -0.255128
C15   C     C_R   0.848610 0.239558 0.668841 -0.253063
C16   C     C_R   0.848974 0.760800 0.668589 -0.255697
C17   C     C_R   0.273640 0.895609 0.514868 -0.193843
C18   C     C_R   0.376948 0.221943 0.590061 -0.188469
C19   C     C_R   0.877351 0.277605 0.590017 -0.188670
C20   C     C_R   0.877612 0.722618 0.589816 -0.188057
C21   C     C_R   0.677385 0.189236 0.518226 -0.258058
C22   C     C_R   0.677611 0.810997 0.518213 -0.257812
C23   C     C_R   0.185500 0.679997 0.524887 -0.251718
C24   C     C_R   0.176992 0.310334 0.518092 -0.260958
C25   C     C_R   0.685169 0.143591 0.700771 -0.202226
C26   C     C_R   0.685523 0.856691 0.700686 -0.200295
C27   C     C_R   0.112479 0.726538 0.648712 -0.200766
C28   C     C_R   0.184604 0.355364 0.700857 -0.203716
C29   C     C_R   0.355898 0.843389 0.404601 -0.142296
C30   C     C_R   0.362552 0.164179 0.409450 -0.139122
C31   C     C_R   0.862671 0.335702 0.409507 -0.140961
C32   C     C_R   0.862734 0.664369 0.409457 -0.139212
C33   C     C_R   0.642875 0.999388 0.133006 -0.314024
C34   C     C_R   0.142874 0.500111 0.133024 -0.304099
C35   C     C_R   0.378783 0.001604 0.762209 0.036429
C36   C     C_R   0.878758 0.499817 0.762083 0.033399
C37   C     C_R   0.352960 0.002256 0.858444 -0.249444
C38   C     C_R   0.852930 0.499684 0.858348 -0.251829
C39   C     C_R   0.590877 0.899574 0.557562 0.864292
C40   C     C_R   0.590816 0.100467 0.557523 0.849827
C41   C     C_R   0.090725 0.399422 0.557497 0.848927
C42   C     C_R   0.089257 0.602218 0.556451 0.850128
C43   C     C_R   0.398985 0.001560 0.954468 -0.197893
C44   C     C_R   0.898960 0.499724 0.954403 -0.205498
C45   C     C_R   0.471372 0.000403 0.953959 0.015797
C46   C     C_R   0.971363 0.499930 0.953932 0.018747
C47   C     C_R   0.494835 0.999819 0.853724 0.240396
C48   C     C_R   0.994842 0.500099 0.853711 0.229876
C49   C     C_R   0.521179 0.000088 0.048182 -0.011073
C50   C     C_R   0.021167 0.499963 0.048175 -0.012560
C51   C     C_R   0.593075 0.999586 0.040497 0.205854
C52   C     C_R   0.093069 0.500075 0.040510 0.197340
C53   C     C_R   0.614498 0.999344 0.940662 -0.304232
C54   C     C_R   0.114505 0.500228 0.940688 -0.290957
C55   C     C_R   0.565818 0.999463 0.848546 -0.222518
C56   C     C_R   0.065852 0.500335 0.848539 -0.217222
C57   C     C_R   0.502684 0.000234 0.150625 -0.056047
C58   C     C_R   0.002674 0.499921 0.150621 -0.054023
C59   C     C_R   0.620993 0.999616 0.232030 0.008600
C60   C     C_R   0.120995 0.500087 0.232042 0.012328
C61   C     C_R   0.750857 0.175756 0.726034 -0.202377
C62   C     C_R   0.751271 0.824640 0.725844 -0.201860
C63   C     C_R   0.144172 0.797594 0.649382 -0.199693
C64   C     C_R   0.250171 0.322964 0.726188 -0.203554
C65   C     C_R   0.649486 0.148861 0.595562 -0.047514
C66   C     C_R   0.649703 0.851315 0.595577 -0.048394
C67   C     C_R   0.132230 0.668568 0.583680 -0.047496
C68   C     C_R   0.149129 0.350641 0.595478 -0.049006
C69   C     C_R   0.369277 0.790152 0.327483 -0.233284
C70   C     C_R   0.332485 0.168033 0.300807 -0.231628
C71   C     C_R   0.832562 0.331902 0.300871 -0.229182
C72   C     C_R   0.832545 0.668128 0.300854 -0.228259
C73   C     C_R   0.326813 0.726487 0.305127 0.169880
C74   C     C_R   0.276565 0.216418 0.268158 0.166600
C75   C     C_R   0.776771 0.283333 0.268216 0.166652
C76   C     C_R   0.776775 0.716718 0.268185 0.166221
C77   C     C_R   0.273902 0.713855 0.365400 -0.202274
C78   C     C_R   0.247639 0.256302 0.345798 -0.205996
C79   C     C_R   0.747997 0.243211 0.345856 -0.204362
C80   C     C_R   0.748097 0.756913 0.345794 -0.205113
C81   C     C_R   0.260957 0.766277 0.445419 0.046734
C82   C     C_R   0.276371 0.251292 0.456204 0.043342
C83   C     C_R   0.776773 0.248176 0.456235 0.045347
C84   C     C_R   0.776951 0.752015 0.456145 0.044663
C85   C     C_R   0.296950 0.835804 0.454810 0.091204
C86   C     C_R   0.339351 0.212406 0.485463 0.078838
C87   C     C_R   0.839668 0.287229 0.485482 0.079494
C88   C     C_R   0.839835 0.712927 0.485373 0.082218
H1    H     H_    0.663934 0.111864 0.761613 0.151284
H2    H     H_    0.664334 0.888389 0.761539 0.151108
H3    H     H_    0.070487 0.718159 0.694231 0.152686
H4    H     H_    0.163338 0.386906 0.761791 0.152105
H5    H     H_    0.669066 0.999090 0.933641 0.147216
H6    H     H_    0.169079 0.500297 0.933718 0.154048
H7    H     H_    0.697801 0.999039 0.128690 0.141237
H8    H     H_    0.197806 0.500216 0.128724 0.145178
H9    H     H_    0.449932 0.000409 0.165180 0.124971
H10   H     H_    0.949917 0.499872 0.165168 0.120618
H11   H     H_    0.343536 0.002789 0.687061 0.134181
H12   H     H_    0.843516 0.499751 0.686733 0.148087
H13   H     H_    0.376296 0.002292 0.026971 0.136055
H14   H     H_    0.876258 0.499569 0.026909 0.132702
H15   H     H_    0.297623 0.003481 0.858651 0.148275
H16   H     H_    0.797589 0.499523 0.858589 0.153408
H17   H     H_    0.585194 0.999530 0.774153 0.208086
H18   H     H_    0.085315 0.500547 0.774182 0.214671
H19   H     H_    0.206497 0.929999 0.624542 0.141820
H20   H     H_    0.377572 0.264805 0.748981 0.150356
H21   H     H_    0.878233 0.234162 0.748776 0.149417
H22   H     H_    0.878672 0.766260 0.748455 0.147168
H23   H     H_    0.778484 0.170965 0.807368 0.134451
H24   H     H_    0.778975 0.829504 0.807115 0.134319
H25   H     H_    0.128189 0.842528 0.698973 0.137544
H26   H     H_    0.277686 0.327436 0.807626 0.135491
H27   H     H_    0.645540 0.197209 0.440912 0.151355
H28   H     H_    0.645721 0.802970 0.440956 0.150419
H29   H     H_    0.202598 0.631767 0.483022 0.140964
H30   H     H_    0.145217 0.302712 0.440663 0.151624
H31   H     H_    0.413860 0.796915 0.287017 0.157614
H32   H     H_    0.351336 0.132043 0.241878 0.151595
H33   H     H_    0.851284 0.368065 0.241954 0.150856
H34   H     H_    0.851185 0.631911 0.241977 0.150958
H35   H     H_    0.704420 0.206971 0.317221 0.142848
H36   H     H_    0.704530 0.793162 0.317157 0.142422
H37   H     H_    0.242544 0.663759 0.345734 0.140178
H38   H     H_    0.203975 0.292388 0.317103 0.142512
H39   H     H_    0.294083 0.952633 0.512299 0.156589
H40   H     H_    0.429429 0.201333 0.611539 0.172554
H41   H     H_    0.929759 0.298457 0.611481 0.170637
H42   H     H_    0.930000 0.701702 0.611226 0.164899
H43   H     H_    0.658390 0.999431 0.305127 0.139847
H44   H     H_    0.158395 0.500170 0.305140 0.131114
N1    N     N_R   0.552340 0.000000 0.237260 -0.103714
N2    N     N_R   0.052340 0.500000 0.237260 -0.101848
N3    N     N_R   0.448170 0.000000 0.762060 -0.132255
N4    N     N_R   0.948170 0.500000 0.762060 -0.135737
O1    O     O_R   0.448200 0.076800 0.373930 -0.613028
O2    O     O_R   0.448200 0.923200 0.373930 -0.614658
O3    O     O_R   0.948200 0.576800 0.373930 -0.611305
O4    O     O_R   0.948200 0.423200 0.373930 -0.614246
O5    O     O_R   0.414750 0.076790 0.542400 -0.623768
O6    O     O_R   0.414750 0.923210 0.542400 -0.606291
O7    O     O_R   0.914750 0.576790 0.542400 -0.614904
O8    O     O_R   0.914750 0.423210 0.542400 -0.613114
O9    O     O_R   0.585240 0.923200 0.457600 -0.613255
O10   O     O_R   0.585240 0.076800 0.457600 -0.610793
O11   O     O_R   0.085240 0.423200 0.457600 -0.613068
O12   O     O_R   0.085240 0.576800 0.457600 -0.607937
O13   O     O_R   0.551780 0.923190 0.626070 -0.628541
O14   O     O_R   0.551780 0.076810 0.626070 -0.641168
O15   O     O_R   0.051780 0.423190 0.626070 -0.639702
O16   O     O_R   0.051780 0.576810 0.626070 -0.642780
Zn1   Zn    Zn3+2 0.522330 0.000000 0.387520 0.934829
Zn2   Zn    Zn3+2 0.022330 0.500000 0.387520 0.937236
Zn3   Zn    Zn3+2 0.477660 0.000000 0.612480 0.926604
Zn4   Zn    Zn3+2 0.977660 0.500000 0.612480 0.919309
N5    N     N_3   0.338132 0.672561 0.224187 -0.459758
H45   H     H_    0.378464 0.690730 0.184797 0.182087
H46   H     H_    0.354389 0.621658 0.263143 0.175921
N6    N     N_3   0.246026 0.222658 0.157178 -0.458074
H47   H     H_    0.272251 0.187903 0.109573 0.175917
H48   H     H_    0.253154 0.278655 0.133129 0.178145
N7    N     N_3   0.746201 0.277146 0.157250 -0.456760
H49   H     H_    0.772290 0.312105 0.109654 0.176455
H50   H     H_    0.753490 0.221223 0.133119 0.178133
N8    N     N_3   0.746125 0.722851 0.157245 -0.456522
H51   H     H_    0.772116 0.687806 0.109683 0.176825
H52   H     H_    0.753475 0.778741 0.132943 0.178504

loop_
_geom_bond_atom_site_label_1
_geom_bond_atom_site_label_2
_ccdc_geom_bond_type
C19   H41   S    
C83   C87   A    
O8    Zn4   S    
N5    H45   S    
C14   C18   A    
N7    H49   S    
C58   H10   S    
C13   H19   S    
C42   O12   A    
C76   N8    S    
C60   H44   S    
C16   H22   S    
N8    H52   S    
N2    Zn2   S    
C58   N2    A    
C15   C19   A    
C59   H43   S    
C5    C9    A    
C18   C86   A    
C55   H17   S    
C2    C29   S    
C9    C61   A    
C1    O5    A    
N7    H50   S    
C34   H8    S    
C19   C87   A    
C40   C65   S    
C12   C64   A    
C1    O1    A    
C6    C22   A    
C73   N5    S    
C49   C57   A    
C75   N7    S    
C45   C47   A    
C23   C67   A    
O11   Zn2   S    
C15   H21   S    
C22   C66   A    
C38   H16   S    
C18   H40   S    
C3    O7    A    
O16   Zn4   S    
C70   H32   S    
C49   C51   A    
C70   C74   A    
C50   C52   A    
C27   H3    S    
C45   C49   A    
O6    Zn3   S    
C30   C86   A    
C42   O16   A    
C29   C85   A    
C72   C76   A    
C21   C65   A    
C52   C54   A    
C22   H28   S    
C26   C62   A    
C3    O3    A    
N5    H46   S    
C34   C60   A    
C57   N1    A    
C10   C62   A    
O12   Zn2   S    
C35   H11   S    
C33   H7    S    
C30   C70   A    
C44   C46   A    
C41   C68   S    
C29   C69   A    
C53   C55   A    
C46   C48   A    
C71   C75   A    
C31   C87   A    
O1    Zn1   S    
C80   C84   A    
C26   C66   A    
C76   C80   A    
C6    C84   A    
C36   H12   S    
N3    Zn3   S    
C35   N3    A    
C37   H15   S    
C78   H38   S    
C44   H14   S    
C17   H39   S    
O3    Zn2   S    
C82   C86   A    
C79   H35   S    
C59   N1    A    
C51   C53   A    
C5    C21   A    
C2    O2    A    
C72   H34   S    
C37   C43   A    
C7    C11   A    
C43   H13   S    
C38   C44   A    
C4    O4    A    
C78   C82   A    
C41   O11   A    
C77   C81   A    
C26   H2    S    
C16   C20   A    
C57   H9    S    
C39   O9    A    
C50   C58   A    
C40   O14   A    
C28   H4    S    
C25   C61   A    
O15   Zn4   S    
C69   C73   A    
C43   C45   A    
C56   H18   S    
C27   C63   A    
C28   C64   A    
O2    Zn1   S    
C7    C81   A    
C12   C14   A    
O14   Zn3   S    
N8    H51   S    
C2    O6    A    
C39   C66   S    
C17   C85   A    
C23   H29   S    
C61   H23   S    
C60   N2    A    
C77   H37   S    
C35   C37   A    
C47   C55   A    
C80   H36   S    
C48   C56   A    
C46   C50   A    
N1    Zn1   S    
C47   N3    A    
C25   H1    S    
C48   N4    A    
O5    Zn3   S    
C84   C88   A    
C20   H42   S    
C54   C56   A    
C28   C68   A    
C4    O8    A    
C5    C83   A    
C41   O15   A    
C74   N6    S    
C33   C51   A    
C39   O13   A    
C34   C52   A    
C21   H27   S    
C40   O10   A    
C36   N4    A    
N6    H47   S    
C36   C38   A    
O13   Zn3   S    
O9    Zn1   S    
C10   C16   A    
C79   C83   A    
C11   C13   A    
O7    Zn4   S    
C42   C67   S    
O10   Zn1   S    
C7    C23   A    
C20   C88   A    
C14   H20   S    
C1    C30   S    
C8    C24   A    
C69   H31   S    
N4    Zn4   S    
C9    C15   A    
C3    C32   S    
C54   H6    S    
C4    C31   S    
C27   C67   A    
C6    C10   A    
C24   C68   A    
C13   C17   A    
C63   H25   S    
C71   H33   S    
C8    C82   A    
C62   H24   S    
C64   H26   S    
C33   C59   A    
C74   C78   A    
O4    Zn2   S    
C25   C65   A    
C73   C77   A    
C24   H30   S    
C11   C63   A    
C75   C79   A    
C53   H5    S    
C81   C85   A    
C8    C12   A    
N6    H48   S    
C31   C71   A    
C32   C72   A    
C32   C88   A    
