data_mof_unit_54793.cif
_audit_creation_date              2012-12-10T17:54:27-0500
_audit_creation_method            fapswitch 2.2
_symmetry_space_group_name_H-M    P1
_symmetry_Int_Tables_number       1
_space_group_crystal_system       triclinic
_cell_length_a                    27.70697
_cell_length_b                    10.618874
_cell_length_c                    9.912856
_cell_angle_alpha                 89.908966
_cell_angle_beta                  89.863577
_cell_angle_gamma                 91.646122
_cell_volume                      2915.31312364

loop_
_atom_site_label
_atom_site_type_symbol
_atom_type_description
_atom_site_fract_x
_atom_site_fract_y
_atom_site_fract_z
_atom_type_partial_charge
C1    C     C_R   0.501269 0.260739 0.500112 0.855951
C2    C     C_R   0.973196 0.376151 0.479426 -0.011322
C3    C     C_R   0.975909 0.609033 0.485965 0.052547
C4    C     C_R   0.406077 0.499214 0.500128 0.857489
C5    C     C_R   0.949283 0.492737 0.484407 0.061638
C6    C     C_R   0.945110 0.264316 0.452482 -0.015928
C7    C     C_R   0.894874 0.266902 0.455111 -0.174383
C8    C     C_R   0.871273 0.379641 0.475999 -0.042345
C9    C     C_R   0.898290 0.493309 0.487214 -0.053319
C10   C     C_R   0.874207 0.607729 0.500901 -0.019010
C11   C     C_R   0.823758 0.605820 0.505816 0.504882
C12   C     C_R   0.277933 0.500575 0.378118 -0.102850
C13   C     C_R   0.820830 0.382215 0.480553 0.514616
C14   C     C_R   0.722515 0.509570 0.619383 -0.105727
C15   C     C_R   0.672377 0.511213 0.620534 -0.237140
C16   C     C_R   0.501403 0.739429 0.499855 0.878054
C17   C     C_R   0.671597 0.484106 0.377076 -0.206405
C18   C     C_R   0.721671 0.482042 0.376387 -0.105404
C19   C     C_R   0.747055 0.494860 0.497370 0.325002
C20   C     C_R   0.023905 0.377634 0.499764 0.042015
C21   C     C_R   0.050571 0.493124 0.488413 0.078865
C22   C     C_R   0.026734 0.608570 0.474296 0.045159
C23   C     C_R   0.252772 0.492607 0.500283 0.321047
C24   C     C_R   0.048665 0.269119 0.538695 -0.199693
C25   C     C_R   0.104768 0.718210 0.448847 -0.130437
C26   C     C_R   0.950779 0.722050 0.501168 -0.208087
C27   C     C_R   0.900805 0.721125 0.509139 -0.130087
C28   C     C_R   0.593912 0.500045 0.499844 0.840907
C29   C     C_R   0.054697 0.719834 0.450554 -0.216929
C30   C     C_R   0.582418 0.137190 0.622870 -0.174562
C31   C     C_R   0.620418 0.074183 0.682250 -0.112090
C32   C     C_R   0.620468 0.943135 0.681986 -0.119507
C33   C     C_R   0.582531 0.874645 0.622274 -0.190444
C34   C     C_R   0.101551 0.493342 0.493462 -0.054902
C35   C     C_R   0.543418 0.937129 0.562908 0.093965
C36   C     C_R   0.543350 0.069115 0.563224 0.096625
C37   C     C_R   0.504557 0.128688 0.499914 -0.087570
C38   C     C_R   0.467939 0.061982 0.433144 -0.209640
C39   C     C_R   0.468013 0.933375 0.432847 -0.190884
C40   C     C_R   0.176014 0.383041 0.523637 0.506193
C41   C     C_R   0.504700 0.871966 0.499320 -0.101288
C42   C     C_R   0.436560 0.335230 0.140689 -0.160589
C43   C     C_R   0.405254 0.254243 0.070799 -0.193535
C44   C     C_R   0.405241 0.254289 0.931164 -0.185305
C45   C     C_R   0.125540 0.380984 0.520562 -0.021149
C46   C     C_R   0.436560 0.335261 0.860596 -0.159055
C47   C     C_R   0.468730 0.418824 0.928018 0.168339
C48   C     C_R   0.468735 0.418849 0.072616 0.171477
C49   C     C_R   0.529949 0.577551 0.071152 -0.112225
C50   C     C_R   0.529937 0.577522 0.928028 -0.111621
C51   C     C_R   0.178952 0.603575 0.475398 0.506802
C52   C     C_R   0.277607 0.485833 0.622477 -0.099420
C53   C     C_R   0.327774 0.487944 0.622703 -0.219069
C54   C     C_R   0.328063 0.502361 0.377904 -0.220887
C55   C     C_1   0.965554 0.149383 0.402831 0.151346
C56   C     C_R   0.098691 0.270254 0.546775 -0.137099
C57   C     C_R   0.128546 0.606069 0.472497 -0.023314
C58   C     C_R   0.353335 0.496666 0.500319 -0.041049
C59   C     C_R   0.646603 0.498628 0.499226 -0.039248
H1    H     H_    0.346923 0.508686 0.282186 0.167954
H2    H     H_    0.584426 0.238958 0.622511 0.154707
H3    H     H_    0.650140 0.127255 0.727402 0.151661
H4    H     H_    0.258545 0.505597 0.283616 0.139799
H5    H     H_    0.650224 0.894377 0.726946 0.150067
H6    H     H_    0.438853 0.881328 0.383259 0.158691
H7    H     H_    0.554425 0.640929 0.124608 0.149817
H8    H     H_    0.434455 0.329377 0.247649 0.199670
H9    H     H_    0.380844 0.191099 0.876985 0.161698
H10   H     H_    0.434484 0.329512 0.753635 0.204416
H11   H     H_    0.554399 0.640902 0.873941 0.143911
H12   H     H_    0.257974 0.479762 0.716967 0.140325
H13   H     H_    0.116186 0.184077 0.574603 0.191829
H14   H     H_    0.653901 0.522793 0.715929 0.159767
H15   H     H_    0.742353 0.519626 0.712922 0.137352
H16   H     H_    0.874129 0.180403 0.436825 0.196777
H17   H     H_    0.346434 0.482808 0.718360 0.166444
H18   H     H_    0.584624 0.773131 0.621363 0.143181
H19   H     H_    0.380883 0.190981 0.125521 0.156894
H20   H     H_    0.029863 0.183462 0.569536 0.158126
H21   H     H_    0.124768 0.805700 0.430153 0.194771
H22   H     H_    0.968957 0.812609 0.511986 0.155199
H23   H     H_    0.652551 0.473937 0.282258 0.163443
H24   H     H_    0.883096 0.810059 0.521420 0.192939
H25   H     H_    0.740854 0.470963 0.282027 0.137012
H26   H     H_    0.038759 0.809173 0.429281 0.158879
H27   H     H_    0.438740 0.109755 0.383679 0.142516
N1    N     N_R   0.201398 0.493058 0.500086 -0.358825
N2    N     N_R   0.798406 0.494131 0.495780 -0.358880
N3    N     N_R   0.499540 0.498800 0.142780 -0.122573
N4    N     N_R   0.499520 0.498720 0.857170 -0.121680
N5    N     N_1   0.981685 0.057320 0.362585 -0.219868
O1    O     O_R   0.500000 0.316780 0.614690 -0.639626
O2    O     O_R   0.571250 0.499990 0.614680 -0.634902
O3    O     O_R   0.571240 0.499970 0.385350 -0.614974
O4    O     O_2   0.199639 0.276088 0.548609 -0.553280
O5    O     O_2   0.794297 0.274039 0.470235 -0.552171
O6    O     O_2   0.205435 0.710567 0.454538 -0.550153
O7    O     O_2   0.800098 0.714491 0.519285 -0.553117
O8    O     O_R   0.500000 0.316750 0.385360 -0.628020
O9    O     O_R   0.428760 0.500030 0.614650 -0.635168
O10   O     O_R   0.428750 0.500010 0.385320 -0.640846
O11   O     O_R   0.500000 0.683250 0.614640 -0.612947
O12   O     O_R   0.500000 0.683220 0.385310 -0.609834
Zn1   Zn    Zn3+2 0.500000 0.500020 0.653130 0.935735
Zn2   Zn    Zn3+2 0.500000 0.499980 0.346870 0.943877

loop_
_geom_bond_atom_site_label_1
_geom_bond_atom_site_label_2
_ccdc_geom_bond_type
C10   C27   A    
C51   O6    S    
O3    Zn2   S    
C8    C13   A    
C22   C29   A    
C25   H21   S    
C35   C36   A    
C6    C55   S    
C1    O8    A    
C7    C8    A    
C39   C41   A    
C54   H1    S    
C43   H19   S    
C12   C23   A    
C26   C27   A    
C38   H27   S    
C11   O7    S    
C14   H15   S    
C40   N1    A    
C36   C37   A    
C18   C19   A    
C30   C31   A    
C31   C32   A    
O9    Zn1   S    
C28   O3    A    
C17   H23   S    
C46   H10   S    
C55   N5    T    
C16   O12   A    
C50   N4    A    
C20   C24   A    
C45   C56   A    
C8    C9    A    
C56   H13   S    
C34   C57   A    
C18   H25   S    
C51   C57   A    
C9    C10   A    
C29   H26   S    
C1    C37   S    
C23   N1    S    
C21   C22   A    
C25   C29   A    
C39   H6    S    
C31   H3    S    
C2    C6    A    
C25   C57   A    
O2    Zn1   S    
C44   C46   A    
O10   Zn2   S    
C40   C45   A    
O8    Zn2   S    
C49   H7    S    
C13   O5    S    
C2    C20   A    
C32   H5    S    
C19   N2    S    
C51   N1    A    
C12   H4    S    
C7    H16   S    
C21   C34   A    
C28   O2    A    
C43   C44   A    
C5    C9    A    
C37   C38   A    
C24   H20   S    
C47   C48   A    
C11   N2    A    
C4    O10   A    
C17   C18   A    
O12   Zn2   S    
C34   C45   A    
C42   C48   A    
O11   Zn1   S    
N4    Zn1   S    
C17   C59   A    
C16   O11   A    
C15   H14   S    
C1    O1    A    
C48   N3    A    
C4    O9    A    
C42   H8    S    
C47   N4    A    
C44   H9    S    
C2    C5    A    
C24   C56   A    
C42   C43   A    
C40   O4    S    
C4    C58   S    
C52   C53   A    
C54   C58   A    
C28   C59   S    
C46   C47   A    
C15   C59   A    
C14   C19   A    
C3    C26   A    
C49   N3    A    
C3    C5    A    
C53   C58   A    
C6    C7    A    
C26   H22   S    
C30   C36   A    
C32   C33   A    
C27   H24   S    
C50   H11   S    
C52   H12   S    
C33   H18   S    
C23   C52   A    
C38   C39   A    
C13   N2    A    
C33   C35   A    
C35   C41   A    
C10   C11   A    
O1    Zn1   S    
C53   H17   S    
C20   C21   A    
C49   C50   A    
C30   H2    S    
N3    Zn2   S    
C14   C15   A    
C3    C22   A    
C16   C41   S    
C12   C54   A    
