data_mof_unit_32875.cif
_audit_creation_date              2012-12-10T16:57:06-0500
_audit_creation_method            fapswitch 2.2
_symmetry_space_group_name_H-M    P1
_symmetry_Int_Tables_number       1
_space_group_crystal_system       triclinic
_cell_length_a                    7.775086
_cell_length_b                    8.568711
_cell_length_c                    16.566416
_cell_angle_alpha                 92.113959
_cell_angle_beta                  79.423802
_cell_angle_gamma                 93.949716
_cell_volume                      1082.03785269

loop_
_atom_site_label
_atom_site_type_symbol
_atom_type_description
_atom_site_fract_x
_atom_site_fract_y
_atom_site_fract_z
_atom_type_partial_charge
C1    C     C_R   0.546389 0.794894 0.497835 0.966910
C2    C     C_R   0.453623 0.205099 0.502079 0.978124
C3    C     C_2   0.570790 0.958441 0.496530 -0.350400
C4    C     C_2   0.429218 0.041524 0.503293 -0.351541
C5    C     C_R   0.477016 0.512747 0.654583 0.905600
C6    C     C_R   0.525152 0.498656 0.345143 0.899642
C7    C     C_R   0.467578 0.553122 0.741452 -0.128847
C8    C     C_R   0.554334 0.538273 0.259202 -0.115903
C9    C     C_R   0.585016 0.485775 0.782024 -0.200221
C10   C     C_R   0.480992 0.673280 0.239847 -0.217676
C11   C     C_R   0.596112 0.531697 0.861574 -0.134893
C12   C     C_R   0.525981 0.732359 0.161927 -0.145694
C13   C     C_R   0.489698 0.646051 0.902460 0.086624
C14   C     C_R   0.643384 0.656109 0.101689 0.088130
C15   C     C_R   0.366485 0.712448 0.864007 0.171277
C16   C     C_R   0.725238 0.523970 0.120973 0.160294
C17   C     C_R   0.357005 0.668548 0.782098 0.119396
C18   C     C_R   0.678072 0.462776 0.200206 0.123813
C19   C     C_2   0.496745 0.682975 0.988460 -0.162108
C20   C     C_2   0.648631 0.692424 0.015933 -0.163392
H1    H     H_    0.669909 0.397790 0.751711 0.181407
H2    H     H_    0.391109 0.735273 0.285762 0.174556
H3    H     H_    0.772263 0.692497 0.972969 0.200764
H4    H     H_    0.372760 0.678860 0.031403 0.191641
H5    H     H_    0.463605 0.834412 0.147365 0.180293
H6    H     H_    0.686186 0.474944 0.891788 0.184384
H7    H     H_    0.023153 0.379263 0.439065 0.203718
H8    H     H_    0.976817 0.620743 0.560918 0.209534
N1    N     N_2   0.953500 0.457650 0.478520 -0.166132
N2    N     N_2   0.046500 0.542350 0.521480 -0.163109
O1    O     O_R   0.388470 0.738640 0.505270 -0.606387
O2    O     O_R   0.611530 0.261360 0.494730 -0.606657
O3    O     O_R   0.679650 0.711510 0.491500 -0.627627
O4    O     O_R   0.320350 0.288490 0.508500 -0.623541
O5    O     O_R   0.337210 0.515200 0.623500 -0.582776
O6    O     O_R   0.662790 0.484800 0.376500 -0.588561
O7    O     O_R   0.628380 0.488060 0.609730 -0.624169
O8    O     O_R   0.371620 0.511940 0.390270 -0.624596
Zn1   Zn    Zn3+2 0.305580 0.518120 0.509190 0.978723
Zn2   Zn    Zn3+2 0.694420 0.481880 0.490810 0.977292
I1    I     I_    0.781272 0.250444 0.229414 -0.295733
I2    I     I_    0.187916 0.790191 0.720433 -0.307861
I3    I     I_    0.202201 0.883526 0.930119 -0.270954
I4    I     I_    0.911828 0.413273 0.029177 -0.296169
H9    H     H_    0.704313 0.009917 0.490027 0.184547
H10   H     H_    0.295690 0.990036 0.509810 0.188280

loop_
_geom_bond_atom_site_label_1
_geom_bond_atom_site_label_2
_ccdc_geom_bond_type
C2    C4    S    
C6    O8    A    
C15   C17   A    
N1    N2    D    
C5    O7    A    
H7    N1    S    
C11   C13   A    
C16   I4    S    
O5    Zn1   S    
C19   C20   D    
C20   H3    S    
O6    Zn2   S    
C12   H5    S    
C2    O4    A    
H8    N2    S    
C19   H4    S    
C12   C14   A    
C1    O3    A    
C4    H10   S    
C10   H2    S    
C9    C11   A    
C9    H1    S    
C10   C12   A    
C5    O5    A    
N1    Zn2   S    
C16   C18   A    
C6    O6    A    
N2    Zn1   S    
O7    Zn2   S    
C13   C15   A    
O8    Zn1   S    
C14   C16   A    
O3    Zn2   S    
C13   C19   S    
C15   I3    S    
C3    C4    D    
C7    C9    A    
C1    O1    A    
O2    Zn2   S    
C14   C20   S    
C2    O2    A    
C18   I1    S    
C5    C7    S    
C17   I2    S    
C6    C8    S    
C11   H6    S    
C1    C3    S    
C3    H9    S    
C8    C10   A    
C8    C18   A    
O4    Zn1   S    
O1    Zn1   S    
C7    C17   A    
