data_mof_unit_11280.cif
_audit_creation_date              2012-12-11T15:41:21-0500
_audit_creation_method            fapswitch 2.2
_symmetry_space_group_name_H-M    P1
_symmetry_Int_Tables_number       1
_space_group_crystal_system       triclinic
_cell_length_a                    14.839437
_cell_length_b                    15.07263
_cell_length_c                    14.865148
_cell_angle_alpha                 109.163245
_cell_angle_beta                  109.372088
_cell_angle_gamma                 110.005642
_cell_volume                      2555.35030365

loop_
_atom_site_label
_atom_site_type_symbol
_atom_type_description
_atom_site_fract_x
_atom_site_fract_y
_atom_site_fract_z
_atom_type_partial_charge
C1    C     C_R   0.192970 0.990769 0.901391 -0.140448
C2    C     C_R   0.746685 0.933504 0.022683 -0.123169
C3    C     C_R   0.868296 0.303375 0.302796 0.047645
C4    C     C_R   0.226196 0.675798 0.674477 0.039413
C5    C     C_R   0.499357 0.051252 0.324986 0.036549
C6    C     C_R   0.499592 0.063810 0.696610 0.048101
C7    C     C_R   0.496444 0.322083 0.037509 0.046845
C8    C     C_R   0.497108 0.700127 0.065605 0.059938
C9    C     C_R   0.290415 0.191526 0.676671 -0.119983
C10   C     C_R   0.689450 0.881654 0.418817 -0.099911
C11   C     C_R   0.366037 0.279934 0.783064 -0.116671
C12   C     C_R   0.613259 0.783441 0.319976 -0.139147
C13   C     C_R   0.328327 0.317228 0.854334 0.111185
C14   C     C_R   0.648427 0.715124 0.271452 0.115814
C15   C     C_R   0.214232 0.265959 0.817407 -0.185918
C16   C     C_R   0.760968 0.746281 0.324925 -0.165242
C17   C     C_R   0.139160 0.176539 0.711467 -0.117973
C18   C     C_R   0.836809 0.844415 0.424125 -0.113490
C19   C     C_R   0.177206 0.139293 0.641067 -0.105004
C20   C     C_R   0.801106 0.912099 0.470819 -0.089503
C21   C     C_R   0.407126 0.507441 0.979727 -0.234175
C22   C     C_R   0.566832 0.515612 0.152288 -0.241749
C23   C     C_R   0.804774 0.209874 0.300625 -0.139510
C24   C     C_R   0.251595 0.777936 0.685310 -0.123243
C25   C     C_R   0.489234 0.606407 0.074917 0.059518
C26   C     C_R   0.489163 0.417919 0.052700 0.069490
C27   C     C_R   0.567671 0.611855 0.165009 0.023019
C28   C     C_R   0.407363 0.413579 0.965864 0.015757
C29   C     C_R   0.036006 0.478787 0.377914 -0.171232
C30   C     C_R   0.130029 0.474362 0.571665 -0.162931
C31   C     C_R   0.127850 0.572241 0.471130 -0.166390
C32   C     C_R   0.037951 0.380901 0.478552 -0.168343
C33   C     C_R   0.167066 0.573173 0.571314 0.141316
C34   C     C_R   0.984010 0.385952 0.384650 0.139803
C35   C     C_R   0.598430 0.158615 0.621421 -0.166886
C36   C     C_R   0.397927 0.052286 0.426730 -0.160294
C37   C     C_R   0.598318 0.158090 0.528104 -0.173758
C38   C     C_R   0.397975 0.050794 0.518984 -0.198036
C39   C     C_R   0.498427 0.094449 0.427710 0.145408
C40   C     C_R   0.498613 0.095882 0.614030 0.139717
C41   C     C_R   0.947604 0.825696 0.924920 0.077464
C42   C     C_R   0.864564 0.931597 0.828313 0.076661
C43   C     C_R   0.858612 0.834452 0.928859 -0.240034
C44   C     C_R   0.957426 0.928282 0.829597 -0.241561
C45   C     C_R   0.407082 0.973748 0.221832 -0.128189
C46   C     C_R   0.591642 0.094333 0.790463 -0.128875
C47   C     C_R   0.826858 0.900415 0.894631 0.057118
C48   C     C_R   0.008378 0.888153 0.890428 0.054134
C49   C     C_R   0.591194 0.314827 0.057493 -0.139064
C50   C     C_R   0.406866 0.703223 0.006095 -0.157149
C51   C     C_R   0.592232 0.066036 0.314571 -0.128490
C52   C     C_R   0.407978 0.002624 0.699252 -0.137804
C53   C     C_R   0.405920 0.218736 0.972590 -0.107994
C54   C     C_R   0.590602 0.790963 0.094850 -0.131627
C55   C     C_R   0.803632 0.300845 0.209313 -0.133632
C56   C     C_R   0.251953 0.686593 0.777653 -0.120216
C57   C     C_R   0.194661 0.902397 0.994510 -0.143606
C58   C     C_R   0.749605 0.028330 0.934311 -0.127731
C59   C     C_R   0.127211 0.926064 0.928496 0.073553
C60   C     C_R   0.772415 0.948907 0.944571 0.064948
H1    H     H_    0.165428 0.013264 0.839983 0.095944
H2    H     H_    0.755131 0.879257 0.052928 0.095168
H3    H     H_    0.319550 0.164261 0.621572 0.118845
H4    H     H_    0.661851 0.934109 0.455139 0.121750
H5    H     H_    0.453557 0.319752 0.809690 0.113699
H6    H     H_    0.526881 0.760789 0.281236 0.116012
H7    H     H_    0.183856 0.294683 0.871104 0.117787
H8    H     H_    0.790336 0.695539 0.289126 0.108382
H9    H     H_    0.051543 0.136645 0.683857 0.102768
H10   H     H_    0.923406 0.868238 0.464598 0.102588
H11   H     H_    0.348160 0.503925 0.909736 0.131379
H12   H     H_    0.626700 0.516445 0.219152 0.133139
H13   H     H_    0.000743 0.483776 0.304706 0.107211
H14   H     H_    0.163686 0.470459 0.645901 0.110969
H15   H     H_    0.159601 0.645525 0.466179 0.108324
H16   H     H_    0.004077 0.308672 0.484691 0.109456
H17   H     H_    0.677424 0.199425 0.695279 0.110337
H18   H     H_    0.318881 0.008946 0.352319 0.109458
H19   H     H_    0.677184 0.197918 0.533067 0.110370
H20   H     H_    0.318909 0.005340 0.511133 0.104935
H21   H     H_    0.833281 0.177861 0.352182 0.087373
H22   H     H_    0.241229 0.799748 0.621909 0.092576
H23   H     H_    0.819116 0.794721 0.964988 0.127399
H24   H     H_    0.992493 0.962885 0.787847 0.123662
H25   H     H_    0.321064 0.941054 0.199009 0.095026
H26   H     H_    0.676321 0.154772 0.823139 0.085677
H27   H     H_    0.676107 0.380688 0.103142 0.100340
H28   H     H_    0.321591 0.651528 0.981291 0.096732
H29   H     H_    0.678086 0.118704 0.378032 0.094231
H30   H     H_    0.323175 0.979039 0.648639 0.087487
H31   H     H_    0.319869 0.194674 0.943353 0.113427
H32   H     H_    0.675636 0.818531 0.150054 0.104834
H33   H     H_    0.830394 0.352334 0.176435 0.084471
H34   H     H_    0.242122 0.624166 0.800063 0.091738
H35   H     H_    0.171152 0.844920 0.021614 0.110085
H36   H     H_    0.762757 0.065335 0.885873 0.113280
H37   H     H_    0.118954 0.070564 0.558718 0.097944
H38   H     H_    0.859869 0.988058 0.547370 0.098677
N1    N     N_R   0.293810 0.002730 0.945950 -0.040916
N2    N     N_R   0.706190 0.997270 0.054050 -0.042232
N3    N     N_R   0.706160 0.152130 0.208910 -0.037574
N4    N     N_R   0.293840 0.847870 0.791090 -0.040260
N5    N     N_R   0.443140 0.945920 0.152090 -0.040313
N6    N     N_R   0.556860 0.054080 0.847910 -0.039234
N7    N     N_R   0.556830 0.208940 0.002760 -0.041389
N8    N     N_R   0.443170 0.791060 0.997240 -0.037048
N9    N     N_R   0.556790 0.002750 0.208910 -0.038568
N10   N     N_R   0.443210 0.997250 0.791090 -0.037421
N11   N     N_R   0.443180 0.152110 0.945950 -0.042331
N12   N     N_R   0.556820 0.847890 0.054050 -0.040113
N13   N     N_R   0.706170 0.208950 0.152090 -0.037299
N14   N     N_R   0.293830 0.791050 0.847910 -0.039887
N15   N     N_R   0.293800 0.945910 0.002760 -0.041177
N16   N     N_R   0.706200 0.054090 0.997240 -0.044341
Ni1   Ni    Ni4+2 0.369690 0.999990 0.869700 0.216199
Ni2   Ni    Ni4+2 0.630310 0.000010 0.130300 0.215305
Ni3   Ni    Ni4+2 0.369670 0.869670 0.000000 0.213344
Ni4   Ni    Ni4+2 0.630330 0.130330 0.000000 0.209532
C61   C     C_1   0.971626 0.751915 0.956197 -0.001497
N17   N     N_1   0.989319 0.691804 0.980817 -0.102510
C62   C     C_1   0.811373 0.966498 0.758222 0.005722
N18   N     N_1   0.768863 0.994051 0.701387 -0.103891

loop_
_geom_bond_atom_site_label_1
_geom_bond_atom_site_label_2
_ccdc_geom_bond_type
C18   H10   S    
C38   C40   A    
C17   H9    S    
C8    C50   A    
C43   H23   S    
C49   H27   S    
N4    N14   A    
N2    Ni2   S    
C55   H33   S    
C1    N1    A    
C19   H37   S    
C56   H34   S    
C37   H19   S    
C7    C26   S    
C21   C25   A    
C21   H11   S    
N13   Ni4   S    
N10   Ni1   S    
C35   C37   A    
C1    C59   A    
N1    Ni1   S    
N14   Ni3   S    
C4    C24   A    
C2    C60   A    
C57   C59   A    
C29   H13   S    
C58   C60   A    
C54   N12   A    
C24   H22   S    
C58   H36   S    
N4    Ni1   S    
C45   N5    A    
C47   C60   S    
C52   H30   S    
C9    C19   A    
C10   C20   A    
C38   H20   S    
C32   H16   S    
C53   H31   S    
C31   C33   A    
C13   C28   S    
C16   H8    S    
C14   C27   S    
C6    C46   A    
C18   C20   A    
C50   H28   S    
C2    N2    A    
C4    C56   A    
C8    C25   S    
C41   C43   A    
N5    Ni3   S    
C42   C44   A    
C22   H12   S    
N6    Ni4   S    
N2    N16   A    
C7    C49   A    
C8    C54   A    
C46   N6    A    
C57   N15   A    
C3    C34   S    
C3    C23   A    
C5    C45   A    
C29   C34   A    
C35   H17   S    
C32   C34   A    
C45   H25   S    
C54   H32   S    
C24   N4    A    
C31   H15   S    
C29   C31   A    
C15   H7    S    
C41   C61   S    
C9    C11   A    
C62   N18   T    
N16   Ni4   S    
C10   C12   A    
N15   Ni3   S    
C16   C18   A    
C21   C28   A    
C12   C14   A    
C22   C27   A    
C13   C15   A    
N8    Ni3   S    
C22   C26   A    
C14   C16   A    
N7    Ni4   S    
N3    N13   A    
C7    C53   A    
N12   Ni2   S    
N6    N10   A    
C48   C59   S    
C58   N16   A    
N8    N12   A    
C53   N11   A    
C15   C17   A    
N7    N11   A    
C4    C33   S    
C23   H21   S    
C30   C33   A    
C55   N13   A    
C9    H3    S    
C26   C28   A    
C36   C39   A    
C10   H4    S    
C44   H24   S    
C1    H1    S    
N1    N15   A    
C49   N7    A    
C61   N17   T    
C25   C27   A    
C3    C55   A    
C5    C39   S    
C35   C40   A    
C37   C39   A    
C44   C48   A    
C36   H18   S    
C51   H29   S    
C30   C32   A    
C11   C13   A    
C23   N3    A    
C12   H6    S    
C30   H14   S    
C36   C38   A    
C17   C19   A    
C41   C48   A    
C6    C40   S    
C42   C47   A    
N9    Ni2   S    
N11   Ni1   S    
C2    H2    S    
C20   H38   S    
C52   N10   A    
C51   N9    A    
C57   H35   S    
C50   N8    A    
N3    Ni2   S    
C5    C51   A    
N5    N9    A    
C6    C52   A    
C43   C47   A    
C56   N14   A    
C11   H5    S    
C42   C62   S    
C46   H26   S    
