data_mof_unit_38716.cif
_audit_creation_date              2013-03-05T16:00:40-0500
_audit_creation_method            fapswitch 2.2
_symmetry_space_group_name_H-M    P1
_symmetry_Int_Tables_number       1
_space_group_crystal_system       triclinic
_cell_length_a                    6.925991
_cell_length_b                    31.431916
_cell_length_c                    34.952539
_cell_angle_alpha                 90.006706
_cell_angle_beta                  90.036111
_cell_angle_gamma                 89.970974
_cell_volume                      7609.06619176

loop_
_atom_site_label
_atom_site_type_symbol
_atom_site_description
_atom_site_fract_x
_atom_site_fract_y
_atom_site_fract_z
_atom_type_partial_charge
O1    O     O_R   0.417270 0.211480 0.210950 -0.587081
O2    O     O_R   0.582730 0.788520 0.789050 -0.590812
O3    O     O_R   0.582730 0.788520 0.710950 -0.574390
O4    O     O_R   0.417270 0.211480 0.289050 -0.593387
O5    O     O_R   0.917270 0.288520 0.289050 -0.587016
O6    O     O_R   0.082730 0.711480 0.710950 -0.591767
O7    O     O_R   0.082730 0.711480 0.789050 -0.587663
O8    O     O_R   0.917270 0.288520 0.210950 -0.593569
O9    O     O_R   0.746940 0.206370 0.288750 -0.575088
O10   O     O_R   0.253060 0.793630 0.711250 -0.570923
O11   O     O_R   0.253060 0.793630 0.788750 -0.584330
O12   O     O_R   0.746940 0.206370 0.211250 -0.584897
O13   O     O_R   0.246940 0.293630 0.211250 -0.574511
O14   O     O_R   0.753060 0.706370 0.788750 -0.585978
O15   O     O_R   0.753060 0.706370 0.711250 -0.575857
O16   O     O_R   0.246940 0.293630 0.288750 -0.585037
C1    C     C_R   0.577796 0.195119 0.301220 1.004810
C2    C     C_R   0.421727 0.804446 0.698317 0.988784
C3    C     C_R   0.422330 0.804920 0.801189 0.989592
C4    C     C_R   0.577835 0.195075 0.198755 1.006573
C5    C     C_R   0.077619 0.304912 0.198806 1.004280
C6    C     C_R   0.922222 0.695075 0.801244 1.003375
C7    C     C_R   0.922311 0.695079 0.698814 1.010788
C8    C     C_R   0.077849 0.304922 0.301249 1.006474
O17   O     O_3   0.583760 0.276950 0.250000 -0.240301
O18   O     O_3   0.416240 0.723050 0.750000 -0.242363
O19   O     O_3   0.083760 0.223050 0.250000 -0.240413
O20   O     O_3   0.916240 0.776950 0.750000 -0.228414
V1    V     V_3+5 0.858600 0.245000 0.250000 1.279130
V2    V     V_3+5 0.141400 0.755000 0.750000 1.287265
V3    V     V_3+5 0.358600 0.255000 0.250000 1.279207
V4    V     V_3+5 0.641400 0.745000 0.750000 1.286974
C9    C     C_R   0.966271 0.587375 0.538669 0.468245
C10   C     C_R   0.025017 0.412330 0.461703 0.467370
C11   C     C_R   0.033067 0.412580 0.038630 0.468087
C12   C     C_R   0.975124 0.587642 0.961684 0.467434
C13   C     C_R   0.466678 0.912590 0.961366 0.468315
C14   C     C_R   0.524693 0.087646 0.038318 0.467402
C15   C     C_R   0.541231 0.087679 0.461678 0.468066
C16   C     C_R   0.481708 0.912637 0.538503 0.468339
N1    N     N_R   0.961817 0.572897 0.575743 -0.180381
N2    N     N_R   0.027276 0.426767 0.424608 -0.180591
N3    N     N_R   0.037463 0.427053 0.075711 -0.180328
N4    N     N_R   0.972924 0.573208 0.924584 -0.180575
N5    N     N_R   0.461975 0.927065 0.924290 -0.180349
N6    N     N_R   0.527201 0.073212 0.075414 -0.180595
N7    N     N_R   0.542181 0.073259 0.424567 -0.180244
N8    N     N_R   0.483008 0.926980 0.575640 -0.180322
C17   C     C_R   0.968262 0.530056 0.583476 0.487716
C18   C     C_R   0.015736 0.469544 0.416820 0.491185
C19   C     C_R   0.031052 0.469895 0.083453 0.487821
C20   C     C_R   0.984360 0.530429 0.916790 0.491126
C21   C     C_R   0.468128 0.969905 0.916553 0.487691
C22   C     C_R   0.515944 0.030437 0.083206 0.491152
C23   C     C_R   0.533983 0.030440 0.416796 0.487853
C24   C     C_R   0.497514 0.969700 0.583481 0.488205
C25   C     C_R   0.982067 0.500135 0.553546 -0.067356
C26   C     C_R   0.003145 0.499491 0.446758 -0.069210
C27   C     C_R   0.017417 0.499821 0.053524 -0.067408
C28   C     C_R   0.996760 0.500478 0.946727 -0.069207
C29   C     C_R   0.481882 0.999830 0.946481 -0.067349
C30   C     C_R   0.503403 0.000485 0.053269 -0.069174
C31   C     C_R   0.521585 0.000501 0.446717 -0.067348
C32   C     C_R   0.509290 0.999685 0.553561 -0.068656
C33   C     C_R   0.986372 0.514598 0.515439 -0.007606
C34   C     C_R   0.999828 0.485045 0.484876 -0.007534
C35   C     C_R   0.013218 0.485362 0.015411 -0.007608
C36   C     C_R   0.999979 0.514920 0.984850 -0.007509
C37   C     C_R   0.486436 0.985370 0.984590 -0.007648
C38   C     C_R   0.499839 0.014927 0.015150 -0.007539
C39   C     C_R   0.520947 0.014901 0.484857 -0.007771
C40   C     C_R   0.508909 0.985319 0.515408 -0.007495
C41   C     C_R   0.977453 0.558545 0.507825 -0.053379
C42   C     C_R   0.010070 0.441118 0.492507 -0.052379
C43   C     C_R   0.022038 0.441415 0.007790 -0.053259
C44   C     C_R   0.989859 0.558849 0.992487 -0.052416
C45   C     C_R   0.477817 0.941424 0.992207 -0.053336
C46   C     C_R   0.509783 0.058855 0.007516 -0.052408
C47   C     C_R   0.531949 0.058812 0.492513 -0.053099
C48   C     C_R   0.496071 0.941442 0.507725 -0.052919
C49   C     C_R   0.991539 0.456175 0.560814 -0.100626
C50   C     C_R   0.993282 0.543449 0.439490 -0.100482
C51   C     C_R   0.008052 0.543782 0.060799 -0.100665
C52   C     C_R   0.006506 0.456519 0.939452 -0.100484
C53   C     C_R   0.491055 0.043790 0.939210 -0.100424
C54   C     C_R   0.493838 0.956528 0.060541 -0.100474
C55   C     C_R   0.509889 0.956581 0.439402 -0.100585
C56   C     C_R   0.521522 0.043605 0.560871 -0.100728
C57   C     C_R   0.005825 0.427052 0.530691 -0.107982
C58   C     C_R   0.981049 0.572600 0.469633 -0.108210
C59   C     C_R   0.993992 0.572910 0.030678 -0.108001
C60   C     C_R   0.018539 0.427364 0.969592 -0.108295
C61   C     C_R   0.505291 0.072916 0.969331 -0.108006
C62   C     C_R   0.481657 0.927373 0.030400 -0.108316
C63   C     C_R   0.496740 0.927439 0.469511 -0.107907
C64   C     C_R   0.532192 0.072794 0.530739 -0.108295
O21   O     O_2   0.962251 0.629559 0.531598 -0.544014
O22   O     O_2   0.039151 0.370268 0.468861 -0.544876
O23   O     O_2   0.037027 0.370397 0.031548 -0.544456
O24   O     O_2   0.961118 0.629707 0.968846 -0.544816
O25   O     O_2   0.462940 0.870407 0.968439 -0.544310
O26   O     O_2   0.538548 0.129709 0.031158 -0.544863
O27   O     O_2   0.546876 0.129843 0.468805 -0.544644
O28   O     O_2   0.464161 0.870653 0.531271 -0.543926
O29   O     O_2   0.959692 0.516333 0.620007 -0.508999
O30   O     O_2   0.014406 0.483131 0.380209 -0.505944
O31   O     O_2   0.039524 0.483614 0.119991 -0.509049
O32   O     O_2   0.985754 0.516842 0.880177 -0.505944
O33   O     O_2   0.459313 0.983623 0.880020 -0.508964
O34   O     O_2   0.514853 0.016853 0.119818 -0.505939
O35   O     O_2   0.539497 0.016749 0.380228 -0.509064
O36   O     O_2   0.502243 0.983192 0.620112 -0.506003
H1    H     H_    0.988551 0.444097 0.589825 0.183349
H2    H     H_    0.995508 0.555515 0.410473 0.183276
H3    H     H_    0.010965 0.555857 0.089815 0.183317
H4    H     H_    0.004349 0.444454 0.910430 0.183279
H5    H     H_    0.487870 0.055864 0.910197 0.183477
H6    H     H_    0.496259 0.944465 0.089560 0.183269
H7    H     H_    0.510062 0.944554 0.410364 0.183429
H8    H     H_    0.522160 0.055615 0.589914 0.183491
H9    H     H_    0.013319 0.393468 0.537454 0.180357
H10   H     H_    0.974288 0.606193 0.462877 0.180264
H11   H     H_    0.986581 0.606495 0.037447 0.180326
H12   H     H_    0.025226 0.393770 0.962829 0.180228
H13   H     H_    0.512554 0.106500 0.962565 0.180386
H14   H     H_    0.475129 0.893780 0.037159 0.180213
H15   H     H_    0.487230 0.893888 0.462711 0.180454
H16   H     H_    0.540705 0.106360 0.537528 0.180291
C65   C     C_R   0.197418 0.398125 0.367827 -0.164826
C66   C     C_R   0.099565 0.604679 0.634539 -0.166477
C67   C     C_R   0.802774 0.601863 0.867774 -0.165019
C68   C     C_R   0.899882 0.395246 0.134480 -0.167485
C69   C     C_R   0.697495 0.101865 0.132196 -0.164776
C70   C     C_R   0.599600 0.895285 0.865505 -0.166551
C71   C     C_R   0.312158 0.898967 0.632551 -0.160610
C72   C     C_R   0.402048 0.105035 0.365957 -0.167275
H17   H     H_    0.307135 0.422296 0.371686 0.173029
H18   H     H_    0.220215 0.582904 0.632139 0.173549
H19   H     H_    0.693026 0.577700 0.871608 0.173065
H20   H     H_    0.779132 0.416998 0.132075 0.173470
H21   H     H_    0.807320 0.077698 0.128342 0.173025
H22   H     H_    0.720161 0.917060 0.867914 0.173919
H23   H     H_    0.204475 0.923696 0.629163 0.163121
H24   H     H_    0.281477 0.083293 0.368546 0.173996
C73   C     C_R   0.210070 0.369801 0.336683 0.318908
C74   C     C_R   0.090099 0.633040 0.665676 0.316439
C75   C     C_R   0.790098 0.630189 0.836635 0.318836
C76   C     C_R   0.909563 0.366891 0.165615 0.316953
C77   C     C_R   0.710172 0.130193 0.163336 0.318943
C78   C     C_R   0.590087 0.866935 0.834360 0.317713
C79   C     C_R   0.293084 0.869326 0.662432 0.329403
C80   C     C_R   0.410631 0.133269 0.334722 0.316488
C81   C     C_R   0.066674 0.337878 0.331885 -0.285875
C82   C     C_R   0.932619 0.661888 0.668470 -0.281868
C83   C     C_R   0.933520 0.662106 0.831868 -0.284316
C84   C     C_R   0.067135 0.338076 0.168440 -0.279640
C85   C     C_R   0.566636 0.162113 0.168125 -0.286163
C86   C     C_R   0.432699 0.838093 0.831550 -0.283534
C87   C     C_R   0.432250 0.836534 0.666936 -0.292461
C88   C     C_R   0.567998 0.162073 0.331683 -0.280156
C89   C     C_R   0.910556 0.336778 0.357675 -0.129435
C90   C     C_R   0.784968 0.659848 0.640841 -0.129289
C91   C     C_R   0.089706 0.663191 0.857682 -0.129372
C92   C     C_R   0.214653 0.340117 0.140822 -0.130700
C93   C     C_R   0.410362 0.163204 0.142332 -0.129388
C94   C     C_R   0.285206 0.840122 0.859178 -0.131630
C95   C     C_R   0.587888 0.834835 0.641074 -0.116360
C96   C     C_R   0.716377 0.160116 0.359165 -0.130890
H25   H     H_    0.798387 0.312990 0.354748 0.140327
H26   H     H_    0.662885 0.681347 0.642300 0.144630
H27   H     H_    0.201896 0.686972 0.854777 0.140701
H28   H     H_    0.336784 0.318631 0.142294 0.145030
H29   H     H_    0.298087 0.186989 0.145254 0.140390
H30   H     H_    0.163206 0.818626 0.857710 0.145692
H31   H     H_    0.696180 0.810111 0.643532 0.154705
H32   H     H_    0.838401 0.181587 0.357524 0.144929
C97   C     C_R   0.897623 0.365836 0.387861 -0.011103
C98   C     C_R   0.794065 0.630692 0.610642 -0.029277
C99   C     C_R   0.102653 0.634130 0.887866 -0.011620
C100  C     C_R   0.205381 0.369266 0.110622 -0.029609
C101  C     C_R   0.397412 0.134141 0.112150 -0.011107
C102  C     C_R   0.294342 0.869268 0.889384 -0.029216
C103  C     C_R   0.605360 0.864553 0.611484 -0.033635
C104  C     C_R   0.708318 0.131038 0.389418 -0.028300
H33   H     H_    0.775112 0.364399 0.407050 0.129724
H34   H     H_    0.677918 0.629671 0.589910 0.131041
H35   H     H_    0.225197 0.635559 0.907078 0.129836
H36   H     H_    0.321463 0.370296 0.089904 0.131051
H37   H     H_    0.274787 0.135571 0.092957 0.129725
H38   H     H_    0.178301 0.870285 0.910112 0.131119
H39   H     H_    0.726905 0.862473 0.592101 0.134121
H40   H     H_    0.825238 0.130031 0.409980 0.131368
C105  C     C_R   0.041386 0.396583 0.393395 0.153253
C106  C     C_R   0.952076 0.603083 0.607024 0.155290
C107  C     C_R   0.958848 0.603393 0.893371 0.153358
C108  C     C_R   0.047300 0.396862 0.106986 0.155623
C109  C     C_R   0.541312 0.103399 0.106624 0.153229
C110  C     C_R   0.452242 0.896877 0.893012 0.154896
C111  C     C_R   0.467183 0.896756 0.606787 0.154970
C112  C     C_R   0.550476 0.103465 0.393288 0.154696
N9    N     N_R   0.363024 0.375477 0.309392 0.249308
O37   O     O_R   0.324283 0.376166 0.272955 -0.303204
O38   O     O_R   0.533099 0.387609 0.320851 -0.364807
N10   N     N_R   0.235661 0.630493 0.694944 0.249169
O39   O     O_R   0.186209 0.630629 0.730862 -0.317276
O40   O     O_R   0.412390 0.620624 0.685960 -0.363526
N11   N     N_R   0.637071 0.624526 0.809318 0.249372
O41   O     O_R   0.466994 0.612412 0.820748 -0.364617
O42   O     O_R   0.675724 0.623834 0.772888 -0.303663
N12   N     N_R   0.764085 0.369401 0.194856 0.249469
O43   O     O_R   0.586803 0.378799 0.185792 -0.364171
O44   O     O_R   0.813725 0.369565 0.230781 -0.316173
N13   N     N_R   0.863311 0.124526 0.190633 0.249301
O45   O     O_R   0.824781 0.123841 0.227068 -0.303374
O46   O     O_R   0.033385 0.112398 0.179179 -0.364912
N14   N     N_R   0.735474 0.869493 0.805095 0.248664
O47   O     O_R   0.685818 0.869366 0.769176 -0.324368
O48   O     O_R   0.912204 0.879367 0.814084 -0.371234
N15   N     N_R   0.135621 0.874114 0.688568 0.244105
O49   O     O_R   0.986182 0.849312 0.685592 -0.377482
O50   O     O_R   0.121581 0.908751 0.708739 -0.292924
N16   N     N_R   0.264453 0.130593 0.305584 0.249407
O51   O     O_R   0.088085 0.120655 0.314738 -0.364380
O52   O     O_R   0.313143 0.130610 0.269625 -0.315865

loop_
_geom_bond_atom_site_label_1
_geom_bond_atom_site_label_2
_geom_bond_distance
_ccdc_geom_bond_type
O17   V3    1.705578 S    
C73   N9    1.437187 S    
C16   O28   1.349144 S    
C56   C64   1.398882 A    
O18   V4    1.705580 S    
C80   N16   1.438080 S    
O12   V1    1.976379 S    
O19   V1    1.704940 S    
N9    O38   1.301237 A    
N9    O37   1.301508 A    
C37   C45   1.408066 A    
C49   C57   1.398591 A    
C102  C110  1.402111 A    
C32   C40   1.407880 A    
C101  C109  1.401246 A    
C80   C88   1.421294 A    
C17   C25   1.409906 A    
O15   V4    1.976565 S    
C99   C107  1.401300 A    
N13   O45   1.301508 A    
O16   V3    1.976564 S    
C98   C106  1.402131 A    
C64   H16   1.082996 S    
C97   C105  1.401252 A    
C20   C28   1.410174 A    
O8    V1    1.975084 S    
C42   C57   1.406328 A    
O2    V4    1.974575 S    
C54   C62   1.398751 A    
C41   C58   1.406396 A    
C26   C50   1.406478 A    
N12   O43   1.301689 A    
C71   C111  1.403468 A    
C72   H24   1.083151 S    
C66   C74   1.408260 A    
C38   C46   1.408040 A    
C46   C61   1.406323 A    
C93   H29   1.083296 S    
C34   C42   1.408036 A    
C45   C62   1.406391 A    
O1    V3    1.974580 S    
C40   C48   1.407846 A    
C97   H33   1.082875 S    
C22   O34   1.349109 S    
O3    C2    1.299195 A    
C16   N8    1.374086 A    
C90   H26   1.083348 S    
C10   C42   1.410144 A    
C1    C88   1.489162 S    
C74   N10   1.438043 S    
C2    C87   1.491981 S    
C100  H36   1.082839 S    
C27   C35   1.407778 A    
C101  H37   1.082876 S    
C70   H22   1.083163 S    
C26   C34   1.407823 A    
C95   C103  1.399035 A    
C68   H20   1.083175 S    
O11   V2    1.976377 S    
C10   N2    1.373824 A    
C96   C104  1.398896 A    
C23   C31   1.409640 A    
C104  H40   1.082840 S    
C67   C75   1.408922 A    
C78   N14   1.438067 S    
C94   C102  1.399180 A    
C56   H8    1.082999 S    
C11   N3    1.373876 A    
C65   C73   1.408930 A    
C100  C108  1.402191 A    
O9    V1    1.977242 S    
C89   H25   1.083298 S    
N4    C20   1.374140 A    
O15   C7    1.299697 A    
N7    C23   1.374179 A    
N5    C21   1.374155 A    
O16   C8    1.299435 A    
O7    V2    1.975084 S    
C59   H11   1.083003 S    
C12   C44   1.410206 A    
C99   H35   1.082875 S    
C58   H10   1.083000 S    
C30   C38   1.407824 A    
O12   C4    1.299341 A    
N16   O51   1.301136 A    
C21   C29   1.409876 A    
C19   O31   1.349135 S    
C11   O23   1.349049 S    
N1    C17   1.374163 A    
C72   C80   1.408336 A    
C82   C90   1.407579 A    
C102  H38   1.082838 S    
C19   C27   1.409967 A    
O5    V1    1.974506 S    
C6    C83   1.491898 S    
C62   H14   1.083002 S    
O17   V1    2.151753 S    
C94   H30   1.083344 S    
C72   C112  1.403739 A    
N8    C111  1.449202 S    
O19   V3    2.152655 S    
C35   C36   1.418668 A    
C68   C76   1.408230 A    
C51   H3    1.083003 S    
O20   V4    2.152653 S    
C69   C77   1.408889 A    
N14   O47   1.301514 A    
C50   H2    1.083000 S    
C77   N13   1.437193 S    
C54   H6    1.083003 S    
C33   C41   1.408060 A    
C85   C93   1.408598 A    
N15   O49   1.300180 A    
C67   H19   1.083172 S    
N6    C109  1.449002 S    
C17   O29   1.349141 S    
C93   C101  1.398282 A    
C14   C46   1.410116 A    
C83   C91   1.408617 A    
N5    C110  1.449094 S    
C15   N7    1.374031 A    
C13   C45   1.410361 A    
C103  C111  1.402235 A    
C39   C47   1.407952 A    
N11   O41   1.301240 A    
C55   C63   1.398335 A    
N3    C108  1.449211 S    
C79   C87   1.419526 A    
N2    C105  1.449045 S    
C53   H5    1.083004 S    
C55   H7    1.083009 S    
N1    C106  1.449135 S    
C76   N12   1.437779 S    
N15   O50   1.300639 A    
C30   C54   1.406472 A    
O10   V2    1.977239 S    
C52   C60   1.398779 A    
C53   C61   1.398576 A    
C74   C82   1.421436 A    
O11   C3    1.299669 A    
N6    C22   1.374117 A    
C16   C48   1.409732 A    
O8    C5    1.296244 A    
C18   C26   1.410138 A    
O13   C5    1.299680 A    
O3    V4    1.974445 S    
C12   O24   1.349085 S    
O9    C1    1.299427 A    
C48   C63   1.406301 A    
C75   N11   1.437190 S    
C28   C36   1.407825 A    
C31   C39   1.407775 A    
C29   C53   1.406425 A    
C43   C60   1.406406 A    
N2    C18   1.374128 A    
C96   H32   1.083350 S    
O4    C1    1.296298 A    
O1    C4    1.297789 A    
C9    C41   1.410387 A    
O6    V2    1.974511 S    
N10   O40   1.301201 A    
O18   V2    2.151754 S    
N12   O44   1.301705 A    
C4    C85   1.491743 S    
C91   C99   1.398401 A    
C79   N15   1.430935 S    
N7    C112  1.449265 S    
C12   N4    1.373840 A    
C23   O35   1.349170 S    
C35   C43   1.408061 A    
C13   N5    1.373845 A    
C51   C59   1.398625 A    
C66   H18   1.083160 S    
C18   O30   1.349104 S    
C91   H27   1.083293 S    
C8    C81   1.491800 S    
C86   C94   1.407588 A    
C95   H31   1.083132 S    
C29   C37   1.407775 A    
N8    C24   1.374120 A    
N16   O52   1.301524 A    
N4    C107  1.449115 S    
C69   C109  1.403586 A    
C70   C110  1.403445 A    
C31   C55   1.406310 A    
O2    C3    1.296103 A    
C3    C86   1.489359 S    
O13   V3    1.976090 S    
C67   C107  1.403592 A    
C11   C43   1.410422 A    
C25   C49   1.406427 A    
C27   C51   1.406442 A    
C66   C106  1.403452 A    
C92   C100  1.399255 A    
C65   C105  1.403606 A    
C15   O27   1.349043 S    
C104  C112  1.402030 A    
C103  H39   1.082850 S    
C75   C83   1.422028 A    
C36   C44   1.408039 A    
O7    C6    1.297924 A    
C22   C30   1.410111 A    
C78   C86   1.421472 A    
C69   H21   1.083170 S    
C50   C58   1.398765 A    
C9    N1    1.373857 A    
O14   C6    1.299385 A    
C60   H12   1.083000 S    
C84   C92   1.407551 A    
N13   O46   1.301238 A    
C73   C81   1.422005 A    
C39   C40   1.418525 A    
C14   O26   1.349095 S    
C24   O36   1.349071 S    
C14   N6    1.373813 A    
C13   O25   1.349054 S    
C28   C52   1.406484 A    
N3    C19   1.374181 A    
C24   C32   1.410339 A    
O5    C8    1.297851 A    
C57   H9    1.083002 S    
O10   C2    1.298344 A    
C71   C79   1.405986 A    
O6    C7    1.296187 A    
O20   V2    1.704940 S    
C71   H23   1.083388 S    
C10   O22   1.349088 S    
C5    C84   1.489429 S    
C87   C95   1.408233 A    
C9    O21   1.349054 S    
C88   C96   1.407592 A    
C37   C38   1.418594 A    
C89   C97   1.398295 A    
C61   H13   1.083002 S    
C90   C98   1.399202 A    
O4    V3    1.974445 S    
C92   H28   1.083338 S    
C44   C59   1.406343 A    
C98   H34   1.082836 S    
C63   H15   1.083007 S    
C47   C64   1.406477 A    
C65   H17   1.083171 S    
N10   O39   1.301516 A    
C20   O32   1.349105 S    
C52   H4    1.082998 S    
C33   C34   1.418622 A    
C7    C82   1.489318 S    
C81   C89   1.408610 A    
N11   O42   1.301507 A    
C21   O33   1.349144 S    
C76   C84   1.421274 A    
C77   C85   1.422001 A    
C49   H1    1.083003 S    
O14   V4    1.976092 S    
C32   C56   1.406488 A    
C68   C108  1.403530 A    
N14   O48   1.301216 A    
C15   C47   1.410430 A    
C25   C33   1.407779 A    
C70   C78   1.408253 A    
