data_mof_unit_67152.cif
_audit_creation_date              2013-03-05T15:58:57-0500
_audit_creation_method            fapswitch 2.2
_symmetry_space_group_name_H-M    P1
_symmetry_Int_Tables_number       1
_space_group_crystal_system       triclinic
_cell_length_a                    8.308355
_cell_length_b                    12.723961
_cell_length_c                    14.882611
_cell_angle_alpha                 96.394747
_cell_angle_beta                  97.674086
_cell_angle_gamma                 98.715797
_cell_volume                      1527.24746118

loop_
_atom_site_label
_atom_site_type_symbol
_atom_site_description
_atom_site_fract_x
_atom_site_fract_y
_atom_site_fract_z
_atom_type_partial_charge
P1    P     P_3+3 0.998730 0.403530 0.291970 0.501634
O1    O     O_2   0.827880 0.435260 0.277750 -0.321163
O2    O     O_3   0.100280 0.438960 0.391170 -0.420458
O3    O     O_3   0.625580 0.634130 0.333250 -0.333443
O4    O     O_2   0.681086 0.536027 0.176425 -0.284766
O5    O     O_3   0.947179 0.263828 0.275887 -0.527671
O6    O     O_3   0.666840 0.734841 0.170636 -0.515004
C1    C     C_3   0.569485 0.874348 0.090118 -0.140840
H1    H     H_    0.493042 0.938411 0.094695 0.133937
P2    P     P_3+3 0.687380 0.751030 0.571310 0.455414
P3    P     P_3+3 0.107946 0.830496 0.385923 0.522893
O7    O     O_2   0.857130 0.766340 0.543890 -0.360570
O8    O     O_3   0.056550 0.691050 0.379010 -0.337685
O9    O     O_2   0.002071 0.881860 0.450214 -0.339236
O10   O     O_3   0.728891 0.782237 0.690649 -0.584053
O11   O     O_3   0.038588 0.869290 0.280039 -0.519862
C2    C     C_3   0.125427 0.829022 0.212522 0.862417
H2    H     H_    0.241341 0.804592 0.242287 -0.047491
C3    C     C_3   0.171393 0.917465 0.154871 -0.915308
H3    H     H_    0.062510 0.950413 0.128121 0.317797
H4    H     H_    0.258410 0.983669 0.197778 0.259080
C4    C     C_3   0.276989 0.780386 0.654341 0.381188
H5    H     H_    0.402031 0.764890 0.647433 0.094200
H6    H     H_    0.190339 0.747535 0.590422 0.124590
C5    C     C_3   0.280043 0.900646 0.670405 -0.915183
H7    H     H_    0.345283 0.933854 0.739852 0.264959
H8    H     H_    0.343950 0.941178 0.619996 0.211056
H9    H     H_    0.152231 0.917210 0.663914 0.273581
Ba1   Ba    Ba6+2 0.843750 0.550210 0.455600 1.635090
C6    C     C_3   0.932866 0.227449 0.360284 0.302635
H10   H     H_    0.836810 0.262854 0.391793 0.097628
H11   H     H_    0.050769 0.248013 0.407467 0.145957
C7    C     C_3   0.885597 0.106521 0.344012 -0.679024
H12   H     H_    0.764455 0.086311 0.300374 0.324228
H13   H     H_    0.878722 0.073209 0.408885 0.215202
H14   H     H_    0.976916 0.069241 0.309436 0.258906
C8    C     C_3   0.774003 0.694021 0.729895 0.329088
H15   H     H_    0.887300 0.673856 0.705897 0.106792
H16   H     H_    0.673574 0.623437 0.712940 0.138537
C9    C     C_3   0.807175 0.723797 0.833333 -0.820898
H17   H     H_    0.911388 0.791855 0.852797 0.280439
H18   H     H_    0.838781 0.654788 0.867132 0.216502
H19   H     H_    0.695446 0.747185 0.857889 0.267400
P4    P     P_3+3 0.190990 0.596560 0.708040 0.458995
O12   O     O_2   0.361830 0.564780 0.722310 -0.373093
O13   O     O_3   0.089430 0.561130 0.608830 -0.414328
O14   O     O_3   0.564130 0.365960 0.666760 -0.376005
O15   O     O_3   0.228361 0.736656 0.730500 -0.574643
P5    P     P_3+3 0.085701 0.169712 0.622449 0.474126
O16   O     O_3   0.601940 0.368240 0.453770 -0.396370
O17   O     O_3   0.133170 0.309040 0.621000 -0.338121
O18   O     O_2   0.180726 0.117952 0.552096 -0.393556
O19   O     O_3   0.179807 0.137230 0.726182 -0.514424
Ba2   Ba    Ba6+2 0.346090 0.449880 0.544410 1.583735
P6    P     P_3+3 0.580686 0.618789 0.213104 0.578963
C10   C     C_3   0.559919 0.810742 0.172221 0.869079
H20   H     H_    0.429751 0.771678 0.163851 -0.341218
H21   H     H_    0.517371 0.819954 0.025813 0.076800
O20   O     O_3   0.587780 0.631850 0.546230 -0.409592
C11   C     C_3   0.424255 0.256051 0.256459 0.832185
H22   H     H_    0.419496 0.335605 0.294669 -0.017738
C12   C     C_3   0.252320 0.205776 0.208008 -0.902052
H23   H     H_    0.181296 0.167872 0.256808 0.248367
H24   H     H_    0.188839 0.266895 0.178115 0.213798
H25   H     H_    0.258938 0.143903 0.150589 0.273085
P7    P     P_3+3 0.509296 0.232485 0.429926 0.430176
O21   O     O_2   0.332590 0.233690 0.456160 -0.397600
O22   O     O_3   0.483315 0.183753 0.312773 -0.579487
H26   H     H_    0.226844 0.886118 0.095992 0.225323
C13   C     C_3   0.076103 0.142185 0.793784 0.411213
H27   H     H_    0.955941 0.164868 0.769714 -0.040848
C14   C     C_3   0.042388 0.031712 0.825755 -0.944812
H28   H     H_    0.160031 0.004889 0.849760 0.272376
H29   H     H_    0.968162 0.033834 0.882449 0.278229
H30   H     H_    0.972050 0.972148 0.768619 0.250236
P8    P     P_3+3 0.608275 0.376847 0.785420 0.498438
C15   C     C_3   0.590619 0.170924 0.764731 0.432877
H31   H     H_    0.704206 0.199257 0.736679 0.019344
O23   O     O_2   0.499627 0.452587 0.825460 -0.326379
O24   O     O_3   0.533934 0.252555 0.817246 -0.481459
H32   H     H_    0.493367 0.134587 0.706305 0.138827
H33   H     H_    0.729151 0.120543 0.881047 0.269815
C16   C     C_3   0.626999 0.085660 0.824745 -0.974812
H34   H     H_    0.662784 0.017206 0.783384 0.239392
H35   H     H_    0.516680 0.056512 0.855418 0.281645
C17   C     C_R   0.828081 0.430302 0.828750 0.127972
C18   C     C_R   0.897888 0.436153 0.921529 -0.046692
C19   C     C_R   0.040953 0.448646 0.108244 -0.052296
C20   C     C_R   0.883313 0.390448 0.075224 -0.016071
C21   C     C_R   0.811517 0.386273 0.984604 -0.137717
C22   C     C_R   0.109384 0.460995 0.202526 0.259132
H36   H     H_    0.813083 0.347725 0.119175 0.224868
H37   H     H_    0.688029 0.342164 0.965040 0.211682
C23   C     C_R   0.268884 0.517631 0.230736 -0.441414
C24   C     C_R   0.082468 0.531332 0.795092 0.279066
C25   C     C_R   0.151479 0.542129 0.889070 0.026846
C26   C     C_R   0.060451 0.491880 0.951802 0.079621
C27   C     C_R   0.311247 0.597936 0.921870 -0.071336
C28   C     C_R   0.384276 0.597574 0.011354 -0.177863
C29   C     C_R   0.295172 0.552150 0.075263 0.026104
C30   C     C_R   0.131913 0.498040 0.045290 0.067738
C31   C     C_R   0.363516 0.560558 0.168521 0.167797
C32   C     C_R   0.923488 0.473230 0.766521 -0.491862
H38   H     H_    0.511659 0.634401 0.029246 0.169834
H39   H     H_    0.384799 0.640789 0.878870 0.160410
H40   H     H_    0.322518 0.525399 0.302027 0.161700
H41   H     H_    0.869431 0.466663 0.695412 0.168229
C33   C     C_R   0.763397 0.183662 0.550110 -0.510547
C34   C     C_R   0.425079 0.810182 0.464700 -0.449661
C35   C     C_R   0.386363 0.989530 0.442294 -0.067876
C36   C     C_R   0.325626 0.880398 0.431977 0.133660
C37   C     C_R   0.581341 0.848975 0.515203 0.326513
C38   C     C_R   0.643902 0.961269 0.529224 -0.041976
C39   C     C_R   0.545563 0.031782 0.489964 -0.036224
C40   C     C_R   0.608797 0.142697 0.499198 0.273969
C41   C     C_R   0.864065 0.115329 0.585432 0.176887
C42   C     C_R   0.803122 0.005150 0.577623 -0.209042
H42   H     H_    0.305912 0.039825 0.412937 0.172275
H43   H     H_    0.884299 0.954828 0.605884 0.175331
H44   H     H_    0.812303 0.268218 0.554457 0.165991
H45   H     H_    0.375631 0.725352 0.456400 0.152525
N1    N     N_R   0.600317 0.882438 0.258562 0.205983
O25   O     O_R   0.515671 0.958339 0.274186 -0.491248
O26   O     O_R   0.710733 0.865703 0.323466 -0.329985
N2    N     N_R   0.529474 0.271522 0.186351 0.220454
O27   O     O_R   0.498878 0.337795 0.128325 -0.468463
O28   O     O_R   0.621364 0.200626 0.166520 -0.338509
N3    N     N_R   0.736658 0.924164 0.084518 0.280076
O29   O     O_R   0.800133 0.013786 0.136480 -0.349694
O30   O     O_R   0.802049 0.896821 0.012608 -0.377758
C43   C     C_2   0.159908 0.226571 0.871591 1.029930
O31   O     O_2   0.210404 0.316451 0.855170 -0.599036
O32   O     O_R   0.178666 0.203896 0.961857 -0.794502
H46   H     H_    0.232014 0.269281 0.007112 0.347823
N4    N     N_R   0.022537 0.735377 0.156175 0.237222
O33   O     O_R   0.973823 0.652698 0.195031 -0.352388
O34   O     O_R   0.985074 0.730368 0.067825 -0.396461

loop_
_geom_bond_atom_site_label_1
_geom_bond_atom_site_label_2
_geom_bond_distance
_ccdc_geom_bond_type
C4    O15   1.397209 S    
O7    Ba1   2.892229 S    
C33   H44   1.082497 S    
P7    O22   1.757571 S    
C24   C25   1.422318 A    
P8    O23   1.542104 D    
O6    P6    1.760875 S    
N3    O29   1.299584 A    
C1    C10   1.543082 S    
C19   C30   1.421358 A    
N4    O33   1.293793 A    
C15   H31   1.109281 S    
C10   H20   1.104305 S    
C5    H9    1.107421 S    
P6    C31   1.846727 S    
C12   H23   1.102061 S    
C27   H39   1.077723 S    
O1    Ba1   2.854565 S    
C33   C40   1.394576 A    
O8    Ba1   2.769407 S    
C11   N2    1.459053 S    
C3    H4    1.101071 S    
O14   P8    1.740537 S    
C8    C9    1.521343 S    
P2    O10   1.751815 S    
C42   H43   1.075588 S    
C6    H10   1.105267 S    
C7    H13   1.101638 S    
O2    Ba2   2.826810 S    
Ba1   Ba2   4.550651 S    
C15   C16   1.519622 S    
C7    H14   1.106532 S    
C41   C42   1.402885 A    
C11   C12   1.521500 S    
P1    O1    1.528137 D    
O2    Ba1   2.936606 S    
C35   C36   1.387753 A    
O10   C8    1.398796 S    
C12   H24   1.104354 S    
C1    H21   1.110558 S    
C1    N3    1.453865 S    
C9    H19   1.110818 S    
C16   H34   1.110811 S    
P4    O13   1.580819 S    
O11   C2    1.408441 S    
P5    O17   1.760040 S    
C4    C5    1.518009 S    
C25   C27   1.403065 A    
C2    N4    1.459796 S    
P2    C37   1.842458 S    
C13   H27   1.105961 S    
C35   C39   1.410950 A    
O3    Ba1   2.807071 S    
C12   H25   1.108539 S    
Ba2   O20   2.820708 S    
C9    H18   1.107243 S    
C28   H38   1.075740 S    
P1    C22   1.868635 S    
C35   H42   1.077559 S    
O6    C10   1.408168 S    
C14   H30   1.108365 S    
C17   C32   1.400692 A    
C29   C31   1.413590 A    
C37   C38   1.426465 A    
C24   C32   1.398588 A    
C2    H2    1.108060 S    
Ba1   O16   2.821266 S    
C13   C43   1.503239 S    
P7    C40   1.836428 S    
P3    C36   1.835158 S    
P1    O5    1.745731 S    
Ba1   O20   2.923133 S    
C14   H29   1.109917 S    
C34   C37   1.398792 A    
C17   C18   1.413740 A    
C1    H1    1.108404 S    
Ba2   O21   2.892542 S    
C5    H7    1.106470 S    
C11   H22   1.113321 S    
P1    O2    1.580665 S    
C10   N1    1.458404 S    
C8    H15   1.105452 S    
P3    O11   1.753830 S    
C28   C29   1.402713 A    
C19   C22   1.423916 A    
C15   H32   1.110093 S    
P5    O18   1.542098 D    
C25   C26   1.423859 A    
O13   Ba2   2.937461 S    
P1    Ba1   3.409546 S    
C7    H12   1.100329 S    
O16   Ba2   2.922370 S    
C20   H36   1.071841 S    
O16   P7    1.757745 S    
C11   O22   1.410018 S    
P2    O7    1.510530 D    
O14   Ba2   2.806406 S    
C38   C42   1.418668 A    
C9    H17   1.110579 S    
O5    C6    1.399575 S    
O12   Ba2   2.855121 S    
H33   C16   1.110178 S    
O3    P6    1.759703 S    
N2    O27   1.300007 A    
C4    H6    1.111430 S    
C3    H26   1.106721 S    
N1    O26   1.299348 A    
C43   O31   1.219790 D    
P8    C17   1.850649 S    
P4    O12   1.528359 D    
C21   H37   1.077824 S    
C38   C39   1.423153 A    
C15   O24   1.406129 S    
N4    O34   1.302257 A    
C23   H40   1.082152 S    
C6    C7    1.512904 S    
C16   H35   1.110172 S    
O4    P6    1.537052 D    
P8    O24   1.748120 S    
O19   C13   1.411528 S    
C14   H28   1.111063 S    
C43   O32   1.398666 S    
N3    O30   1.300465 A    
C13   C14   1.531656 S    
C39   C40   1.414000 A    
C5    H8    1.104665 S    
Ba1   O13   2.826049 S    
O17   Ba2   2.770000 S    
C33   C41   1.391636 A    
C3    H3    1.099344 S    
C34   C36   1.389724 A    
P2    O20   1.592107 S    
C20   C21   1.391801 A    
C8    H16   1.110254 S    
P4    C24   1.872156 S    
C22   C23   1.395092 A    
C6    H11   1.103992 S    
P3    O8    1.749021 S    
P2    Ba1   3.435984 S    
C34   H45   1.082331 S    
O32   H46   1.012880 S    
P5    O19   1.755910 S    
C29   C30   1.414153 A    
P3    O9    1.541471 D    
P7    O21   1.570569 D    
C2    C3    1.523407 S    
P4    Ba2   3.410101 S    
P5    C41   1.852342 S    
C19   C20   1.399409 A    
C23   C31   1.396696 A    
C27   C28   1.388575 A    
C18   C21   1.404834 A    
N2    O28   1.301273 A    
C4    H5    1.102200 S    
C32   H41   1.081962 S    
N1    O25   1.296474 A    
C26   C30   1.426710 A    
P4    O15   1.748582 S    
C18   C26   1.416349 A    
