data_mof_unit_50232.cif
_audit_creation_date              2012-12-11T16:44:09-0500
_audit_creation_method            fapswitch 2.2
_symmetry_space_group_name_H-M    P1
_symmetry_Int_Tables_number       1
_space_group_crystal_system       triclinic
_cell_length_a                    27.224163
_cell_length_b                    7.191611
_cell_length_c                    22.780018
_cell_angle_alpha                 90.015482
_cell_angle_beta                  101.628727
_cell_angle_gamma                 90.012603
_cell_volume                      4368.45437273

loop_
_atom_site_label
_atom_site_type_symbol
_atom_type_description
_atom_site_fract_x
_atom_site_fract_y
_atom_site_fract_z
_atom_type_partial_charge
O1    O     O_R   0.707300 0.594030 0.176840 -0.532177
O2    O     O_R   0.292700 0.405970 0.823160 -0.532174
O3    O     O_R   0.792700 0.094030 0.323160 -0.532183
O4    O     O_R   0.207300 0.905970 0.676840 -0.532181
O5    O     O_R   0.697330 0.262360 0.295660 -0.539940
O6    O     O_R   0.302670 0.737640 0.704340 -0.539937
O7    O     O_R   0.802670 0.762360 0.204340 -0.539875
O8    O     O_R   0.197330 0.237640 0.795660 -0.539873
C1    C     C_R   0.684387 0.433106 0.311513 0.705251
C2    C     C_R   0.315613 0.566894 0.688487 0.705250
C3    C     C_R   0.815621 0.933112 0.188499 0.705130
C4    C     C_R   0.184378 0.066888 0.811500 0.705128
O9    O     O_R   0.701410 0.264250 0.175600 -0.532820
O10   O     O_R   0.298590 0.735750 0.824400 -0.532823
O11   O     O_R   0.798590 0.764250 0.324400 -0.532795
O12   O     O_R   0.201410 0.235750 0.675600 -0.532797
O13   O     O_R   0.796800 0.094950 0.202240 -0.524987
O14   O     O_R   0.203200 0.905050 0.797760 -0.524988
O15   O     O_R   0.703200 0.594950 0.297760 -0.524961
O16   O     O_R   0.296800 0.405050 0.702240 -0.524963
C5    C     C_R   0.689611 0.432933 0.153420 0.690781
C6    C     C_R   0.310389 0.567067 0.846580 0.690781
C7    C     C_R   0.810385 0.933013 0.346580 0.690833
C8    C     C_R   0.189615 0.066987 0.653420 0.690835
O17   O     O_3   0.781290 0.427390 0.258880 -0.375506
O18   O     O_3   0.218710 0.572610 0.741120 -0.375505
O19   O     O_3   0.718710 0.927390 0.241120 -0.375546
O20   O     O_3   0.281290 0.072610 0.758880 -0.375546
V1    V     V_3+5 0.744190 0.152150 0.248350 1.430044
V2    V     V_3+5 0.255810 0.847850 0.751650 1.430046
V3    V     V_3+5 0.755810 0.652150 0.251650 1.430218
V4    V     V_3+5 0.244190 0.347850 0.748350 1.430220
C9    C     C_R   0.155594 0.057334 0.593977 -0.044516
C10   C     C_R   0.844405 0.942666 0.406024 -0.044514
C11   C     C_R   0.344430 0.557800 0.906016 -0.044560
C12   C     C_R   0.655570 0.442199 0.093984 -0.044559
C13   C     C_R   0.141741 0.026501 0.486005 -0.158639
C14   C     C_R   0.858256 0.973502 0.513995 -0.158639
C15   C     C_R   0.358348 0.531032 0.014097 -0.158543
C16   C     C_R   0.641651 0.468949 0.985902 -0.158546
C17   C     C_R   0.174734 0.054051 0.540887 0.135939
C18   C     C_R   0.825263 0.945960 0.459113 0.135937
C19   C     C_R   0.325351 0.557374 0.959158 0.135820
C20   C     C_R   0.674649 0.442617 0.040842 0.135818
C21   C     C_R   0.103469 0.042273 0.590341 -0.260171
C22   C     C_R   0.896530 0.957711 0.409662 -0.260174
C23   C     C_R   0.396516 0.541175 0.909627 -0.260109
C24   C     C_R   0.603484 0.458823 0.090372 -0.260111
C25   C     C_R   0.069192 0.032290 0.534297 0.092817
C26   C     C_R   0.930806 0.967692 0.465706 0.092817
C27   C     C_R   0.430831 0.532612 0.965667 0.092839
C28   C     C_R   0.569169 0.467379 0.034332 0.092840
C29   C     C_R   0.089919 0.008553 0.482726 0.061084
C30   C     C_R   0.910078 0.991435 0.517276 0.061084
C31   C     C_R   0.410132 0.511690 0.017366 0.061136
C32   C     C_R   0.589868 0.488295 0.982633 0.061137
C33   C     C_R   0.015413 0.031428 0.527879 0.009377
C34   C     C_R   0.984586 0.968549 0.472126 0.009379
C35   C     C_R   0.484604 0.530621 0.972018 0.009406
C36   C     C_R   0.515397 0.469369 0.027982 0.009406
C37   C     C_R   0.009116 0.908089 0.425639 0.165305
C38   C     C_R   0.990882 0.091883 0.574367 0.165307
C39   C     C_R   0.490839 0.411550 0.074737 0.165441
C40   C     C_R   0.509161 0.588437 0.925262 0.165440
C41   C     C_R   0.059731 0.949494 0.429214 -0.200999
C42   C     C_R   0.940266 0.050485 0.570789 -0.200996
C43   C     C_R   0.440285 0.454119 0.071068 -0.200948
C44   C     C_R   0.559715 0.545864 0.928930 -0.200949
H1    H     H_    0.077026 0.914916 0.391637 0.129073
H2    H     H_    0.922971 0.085062 0.608366 0.129072
H3    H     H_    0.422987 0.421635 0.108807 0.129028
H4    H     H_    0.577013 0.578344 0.891192 0.129028
H5    H     H_    0.909252 0.971078 0.368035 0.125236
H6    H     H_    0.090749 0.028897 0.631968 0.125235
H7    H     H_    0.590835 0.474245 0.131979 0.125325
H8    H     H_    0.409165 0.525755 0.868020 0.125324
H9    H     H_    0.156929 0.012841 0.445684 0.118817
H10   H     H_    0.843066 0.987167 0.554315 0.118816
H11   H     H_    0.343188 0.519550 0.054499 0.118793
H12   H     H_    0.656811 0.480423 0.945500 0.118793
C45   C     C_R   0.865774 0.113732 0.123395 0.339832
C46   C     C_R   0.134225 0.886267 0.876604 0.339830
C47   C     C_R   0.634295 0.613688 0.376695 0.339865
C48   C     C_R   0.365706 0.386311 0.623306 0.339864
C49   C     C_R   0.900041 0.115782 0.085323 -0.211160
C50   C     C_R   0.099958 0.884217 0.914676 -0.211158
C51   C     C_R   0.600008 0.615764 0.414743 -0.211326
C52   C     C_R   0.399993 0.384235 0.585258 -0.211323
H13   H     H_    0.906166 0.244586 0.063255 0.147032
H14   H     H_    0.093833 0.755413 0.936743 0.147032
H15   H     H_    0.593903 0.744571 0.436838 0.147049
H16   H     H_    0.406098 0.255428 0.563164 0.147049
C53   C     C_R   0.927326 0.957302 0.076346 0.003402
C54   C     C_R   0.072674 0.042698 0.923653 0.003402
C55   C     C_R   0.572689 0.457290 0.423673 0.003416
C56   C     C_R   0.427311 0.542709 0.576328 0.003416
C57   C     C_R   0.919133 0.790227 0.105767 0.195017
C58   C     C_R   0.080866 0.209774 0.894233 0.195017
C59   C     C_R   0.580863 0.290205 0.394226 0.195072
C60   C     C_R   0.419137 0.709796 0.605774 0.195071
C61   C     C_R   0.882637 0.785323 0.141841 -0.203869
C62   C     C_R   0.117363 0.214677 0.858158 -0.203867
C63   C     C_R   0.617358 0.285306 0.358149 -0.203870
C64   C     C_R   0.382642 0.714694 0.641850 -0.203869
H17   H     H_    0.876254 0.656225 0.163562 0.158833
H18   H     H_    0.123746 0.343776 0.836438 0.158836
H19   H     H_    0.623718 0.156214 0.336396 0.158580
H20   H     H_    0.376282 0.843787 0.663603 0.158584
C65   C     C_R   0.855167 0.945172 0.151128 -0.175425
C66   C     C_R   0.144833 0.054828 0.848871 -0.175427
C67   C     C_R   0.644857 0.445149 0.348905 -0.175324
C68   C     C_R   0.355143 0.554850 0.651096 -0.175326
C69   C     C_R   0.960996 0.870966 0.984892 -0.138821
C70   C     C_R   0.039004 0.129034 0.015107 -0.138820
C71   C     C_R   0.538992 0.371007 0.515105 -0.138833
C72   C     C_R   0.461008 0.628992 0.484896 -0.138833
H21   H     H_    0.930421 0.773526 0.971861 0.116822
H22   H     H_    0.069578 0.226473 0.028138 0.116822
H23   H     H_    0.569557 0.273601 0.528133 0.116826
H24   H     H_    0.430443 0.726398 0.471867 0.116826
C73   C     C_R   0.995632 0.894901 0.947629 -0.172826
C74   C     C_R   0.004367 0.105099 0.052370 -0.172826
C75   C     C_R   0.504348 0.394945 0.552358 -0.172832
C76   C     C_R   0.495652 0.605054 0.447642 -0.172832
H25   H     H_    0.991802 0.812394 0.907165 0.118852
H26   H     H_    0.008198 0.187606 0.092834 0.118852
H27   H     H_    0.508162 0.312473 0.592812 0.118852
H28   H     H_    0.491838 0.687526 0.407189 0.118852
C77   C     C_R   0.034732 0.025191 0.962124 0.112184
C78   C     C_R   0.965267 0.974809 0.037875 0.112184
C79   C     C_R   0.465260 0.525195 0.537867 0.112201
C80   C     C_R   0.534740 0.474804 0.462134 0.112201
C81   C     C_3   0.770047 0.930370 0.459271 -0.737018
H29   H     H_    0.746769 0.910963 0.413907 0.237545
H30   H     H_    0.763509 0.809593 0.487086 0.209624
H31   H     H_    0.757115 0.058762 0.478627 0.203557
C82   C     C_3   0.229949 0.069662 0.540726 -0.737029
H32   H     H_    0.253227 0.089101 0.586089 0.237548
H33   H     H_    0.242886 0.941266 0.521377 0.203563
H34   H     H_    0.236483 0.190429 0.512905 0.209618
C83   C     C_3   0.729817 0.425136 0.040649 -0.737101
H35   H     H_    0.753114 0.407220 0.086065 0.237686
H36   H     H_    0.736101 0.302776 0.013340 0.209512
H37   H     H_    0.742945 0.552114 0.020710 0.203656
C84   C     C_3   0.270183 0.574850 0.959350 -0.737118
H38   H     H_    0.246888 0.592830 0.913936 0.237692
H39   H     H_    0.257052 0.447845 0.979271 0.203666
H40   H     H_    0.263900 0.697172 0.986676 0.209507
C85   C     C_3   0.986436 0.774298 0.376343 -0.799189
H41   H     H_    0.954754 0.694473 0.387671 0.219122
H42   H     H_    0.974867 0.849579 0.333223 0.199974
H43   H     H_    0.014548 0.667768 0.370158 0.210738
C86   C     C_3   0.013563 0.225662 0.623666 -0.799185
H44   H     H_    0.025134 0.150368 0.666783 0.199973
H45   H     H_    0.045243 0.305499 0.612338 0.219122
H46   H     H_    0.985451 0.332183 0.629857 0.210734
C87   C     C_3   0.513386 0.279304 0.124521 -0.799474
H47   H     H_    0.544939 0.198137 0.113449 0.218979
H48   H     H_    0.525100 0.356136 0.167342 0.200005
H49   H     H_    0.485146 0.173811 0.131158 0.210715
C88   C     C_3   0.486615 0.720685 0.875478 -0.799476
H50   H     H_    0.474900 0.643853 0.832657 0.200005
H51   H     H_    0.455063 0.801855 0.886551 0.218979
H52   H     H_    0.514856 0.826173 0.868841 0.210716
O21   O     O_3   0.843278 0.279428 0.132117 -0.647855
H53   H     H_    0.854702 0.309895 0.175163 0.285781
O22   O     O_3   0.156720 0.720570 0.867880 -0.647856
H54   H     H_    0.145297 0.690107 0.824834 0.285781
O23   O     O_3   0.656873 0.779318 0.368070 -0.647771
H55   H     H_    0.645417 0.810053 0.325056 0.285733
O24   O     O_3   0.343129 0.220680 0.631932 -0.647772
H56   H     H_    0.354584 0.189950 0.674947 0.285734
C89   C     C_3   0.950094 0.619218 0.101182 -0.786710
H57   H     H_    0.941606 0.564284 0.054769 0.205281
H58   H     H_    0.990604 0.653854 0.113753 0.209568
H59   H     H_    0.942345 0.507413 0.131693 0.205813
C90   C     C_3   0.049906 0.380782 0.898817 -0.786709
H60   H     H_    0.009396 0.346147 0.886247 0.209568
H61   H     H_    0.058394 0.435717 0.945231 0.205281
H62   H     H_    0.057654 0.492587 0.868306 0.205814
C91   C     C_3   0.549889 0.119171 0.398789 -0.786711
H63   H     H_    0.558360 0.064307 0.445200 0.205280
H64   H     H_    0.509382 0.153751 0.386203 0.209582
H65   H     H_    0.557643 0.007320 0.368282 0.205712
C92   C     C_3   0.450111 0.880830 0.601211 -0.786711
H66   H     H_    0.490618 0.846250 0.613796 0.209582
H67   H     H_    0.441640 0.935693 0.554800 0.205279
H68   H     H_    0.442357 0.992681 0.631718 0.205713

loop_
_geom_bond_atom_site_label_1
_geom_bond_atom_site_label_2
_ccdc_geom_bond_type
O17   V3    S    
C59   C63   A    
O24   H56   S    
C52   C56   A    
C1    C67   S    
O21   H53   S    
C51   H15   S    
C3    C65   S    
C9    C21   A    
O23   H55   S    
O12   C8    A    
O3    C7    A    
C10   C18   A    
C60   C64   A    
C48   O24   S    
C11   C23   A    
C84   H40   S    
C4    C66   S    
C84   H38   S    
C92   H66   S    
C25   C33   A    
C33   C38   A    
C5    C12   S    
C42   H2    S    
C91   H63   S    
O1    C5    A    
C6    C11   S    
C82   H33   S    
C35   C40   A    
C48   C68   A    
C18   C81   S    
C46   C66   A    
O9    V1    S    
C23   H8    S    
C14   C18   A    
C85   H42   S    
O4    C8    A    
C55   C59   A    
C92   H67   S    
C43   H3    S    
O19   V1    S    
C54   C58   A    
C61   C65   A    
C56   C60   A    
O1    V3    S    
O13   V1    S    
C31   C43   A    
C76   C80   A    
O2    V4    S    
O3    V1    S    
C50   C54   A    
C88   H51   S    
C49   C53   A    
C1    O15   A    
C87   H47   S    
C15   C31   A    
C52   H16   S    
C2    O16   A    
C20   C83   S    
C90   H61   S    
C51   C55   A    
O2    C6    A    
C81   H31   S    
C16   H12   S    
C2    C68   S    
C10   C22   A    
C86   H45   S    
C11   C19   A    
C16   C20   A    
C17   C82   S    
C44   H4    S    
C46   O22   S    
C13   C29   A    
C7    C10   S    
C34   C37   A    
O11   C7    A    
O15   V3    S    
C35   C36   A    
C87   H48   S    
C89   H57   S    
C24   H7    S    
O10   V2    S    
C84   H39   S    
C88   H50   S    
O5    V1    S    
C71   C80   A    
C91   H64   S    
C61   H17   S    
C82   H34   S    
C39   C43   A    
C54   C77   S    
C71   C75   A    
C69   C78   A    
C38   C42   A    
O8    V4    S    
O7    V3    S    
C50   H14   S    
C83   H37   S    
O22   H54   S    
C64   C68   A    
C49   H13   S    
O18   V4    S    
C92   H68   S    
C15   C19   A    
C14   H10   S    
C16   C32   A    
C32   C44   A    
C13   H9    S    
C72   H24   S    
C21   H6    S    
C86   H46   S    
C26   C34   A    
C74   H26   S    
O7    C3    A    
C73   H25   S    
C19   C84   S    
C53   C57   A    
C75   H27   S    
C14   C30   A    
C21   C25   A    
O8    C4    A    
C90   H62   S    
C57   C61   A    
O9    C5    A    
C26   C30   A    
C58   C90   S    
C70   H22   S    
C89   H58   S    
C56   C79   S    
C69   H21   S    
O6    V2    S    
C45   C65   A    
C87   H49   S    
C71   H23   S    
C36   C39   A    
C81   H29   S    
C70   C77   A    
C47   C67   A    
C85   H43   S    
C27   C35   A    
C39   C87   S    
C53   C78   S    
C40   C44   A    
C64   H20   S    
C88   H52   S    
C29   C41   A    
O16   V4    S    
C91   H65   S    
C3    O13   A    
C72   C76   A    
C75   C79   A    
C48   C52   A    
C73   C77   A    
C40   C88   S    
C47   C51   A    
O6    C2    A    
C23   C27   A    
O11   V3    S    
C30   C42   A    
C63   C67   A    
O12   V4    S    
C82   H32   S    
C22   C26   A    
C8    C9    S    
C38   C86   S    
C76   H28   S    
C9    C17   A    
O10   C6    A    
C83   H36   S    
C60   C92   S    
C58   C62   A    
C83   H35   S    
C46   C50   A    
C33   C34   A    
C55   C80   S    
C72   C79   A    
C62   C66   A    
C41   H1    S    
C47   O23   S    
O20   V2    S    
C89   H59   S    
C12   C24   A    
C27   C31   A    
C13   C17   A    
C45   C49   A    
C59   C91   S    
C25   C29   A    
C12   C20   A    
O14   V2    S    
C70   C74   A    
C37   C41   A    
C24   C28   A    
C69   C73   A    
C28   C36   A    
C90   H60   S    
C62   H18   S    
C4    O14   A    
C81   H30   S    
C45   O21   S    
C63   H19   S    
O5    C1    A    
C86   H44   S    
C85   H41   S    
C37   C85   S    
C74   C78   A    
C22   H5    S    
O4    V2    S    
C57   C89   S    
C28   C32   A    
C15   H11   S    
