data_mof_unit_46126.cif
_audit_creation_date              2012-10-26T21:06:05-0400
_audit_creation_method            fapswitch 2.2
_symmetry_space_group_name_H-M    P1
_symmetry_Int_Tables_number       1
_space_group_crystal_system       triclinic
_cell_length_a                    13.358377
_cell_length_b                    18.265512
_cell_length_c                    19.338192
_cell_angle_alpha                 90.792296
_cell_angle_beta                  91.878885
_cell_angle_gamma                 72.606346
_cell_volume                      4500.25194255

loop_
_atom_site_label
_atom_site_type_symbol
_atom_type_description
_atom_site_fract_x
_atom_site_fract_y
_atom_site_fract_z
_atom_type_partial_charge
C1    C     C_R   0.502882 0.499718 0.632301 0.515240
C2    C     C_R   0.815527 0.434038 0.498836 -0.045454
C3    C     C_R   0.558229 0.549014 0.260965 -0.208347
C4    C     C_R   0.700310 0.459006 0.497972 0.527605
C5    C     C_R   0.571450 0.548256 0.190045 -0.201727
C6    C     C_R   0.546877 0.492570 0.148308 0.072787
C7    C     C_R   0.512397 0.434956 0.178393 0.304239
C8    C     C_R   0.508636 0.431506 0.251258 0.245298
C9    C     C_R   0.522664 0.492990 0.292239 -0.028306
C10   C     C_R   0.616111 0.432704 0.035368 0.274305
C11   C     C_R   0.612157 0.435022 0.962031 0.262372
C12   C     C_R   0.981329 0.462341 0.487748 -0.045720
C13   C     C_R   0.555987 0.503364 0.928095 0.085826
C14   C     C_R   0.503377 0.569361 0.966688 0.185331
C15   C     C_R   0.501725 0.564190 0.038284 -0.133242
C16   C     C_R   0.505825 0.498070 0.367588 0.539238
C17   C     C_R   0.555137 0.496181 0.072664 0.021929
C18   C     C_R   0.455805 0.484235 0.822735 0.282095
C19   C     C_R   0.443466 0.480273 0.750663 0.193645
C20   C     C_R   0.517652 0.497549 0.707861 -0.078377
C21   C     C_R   0.608757 0.511318 0.738250 0.194329
C22   C     C_R   0.619302 0.515752 0.810473 0.279412
C23   C     C_R   0.873138 0.479479 0.470532 -0.018764
C24   C     C_R   0.543163 0.501974 0.852245 -0.010445
C25   C     C_R   0.582356 0.259683 0.529769 0.330679
C26   C     C_R   0.585139 0.181633 0.528151 0.259510
C27   C     C_R   0.498666 0.160577 0.499968 -0.039062
C28   C     C_R   0.299322 0.541051 0.499075 0.576607
C29   C     C_R   0.414261 0.219091 0.470951 0.249960
C30   C     C_R   0.418855 0.295088 0.468228 0.337228
C31   C     C_R   0.416413 0.058116 0.532865 0.217633
C32   C     C_R   0.412623 0.980938 0.531309 0.232492
C33   C     C_R   0.492962 0.922906 0.499891 0.089222
C34   C     C_R   0.031851 0.519087 0.475259 0.012547
C35   C     C_R   0.575229 0.942484 0.468236 0.230807
C36   C     C_R   0.573855 0.020236 0.464194 0.231679
C37   C     C_R   0.496387 0.078460 0.498604 -0.026709
C38   C     C_R   0.570758 0.786362 0.539241 0.228658
C39   C     C_R   0.573549 0.708072 0.538110 0.314561
C40   C     C_R   0.039152 0.630008 0.409006 -0.164136
C41   C     C_R   0.424247 0.736238 0.461126 0.349679
C42   C     C_R   0.415241 0.816250 0.465273 0.186407
C43   C     C_R   0.492905 0.840410 0.501077 0.114098
C44   C     C_R   0.185556 0.564164 0.484794 0.017853
C45   C     C_R   0.984576 0.579134 0.428215 0.018976
C46   C     C_R   0.868455 0.366646 0.534587 -0.180961
C47   C     C_R   0.977927 0.342634 0.541508 0.287122
C48   C     C_R   0.034766 0.388952 0.516441 0.307422
C49   C     C_3   0.589490 0.317108 0.304914 0.028231
C50   C     C_3   0.635610 0.255422 0.250628 -0.288707
C51   C     C_3   0.747085 0.208159 0.271734 -0.482083
C52   C     C_3   0.294832 0.527259 0.871159 0.022454
C53   C     C_3   0.238063 0.517069 0.935981 -0.246439
C54   C     C_3   0.140934 0.585350 0.947357 -0.490318
C55   C     C_3   0.709919 0.600286 0.839295 0.024473
C56   C     C_R   0.882996 0.588139 0.402039 -0.121630
C57   C     C_3   0.804031 0.608841 0.882078 -0.256599
C58   C     C_3   0.812228 0.690212 0.878245 -0.490429
C59   C     C_3   0.668801 0.095070 0.613914 0.024655
C60   C     C_3   0.656984 0.153052 0.673775 -0.266339
C61   C     C_3   0.656496 0.114788 0.743334 -0.479582
C62   C     C_3   0.335162 0.181825 0.375897 0.030564
C63   C     C_3   0.226537 0.190796 0.343324 -0.226488
C64   C     C_3   0.233703 0.165729 0.267576 -0.491323
C65   C     C_3   0.363729 0.116430 0.636152 -0.008479
C66   C     C_3   0.283508 0.183615 0.670586 -0.240452
C67   C     C_R   0.826517 0.540638 0.424727 -0.083377
C68   C     C_3   0.295383 0.260586 0.648849 -0.316785
C69   C     C_3   0.750397 0.871492 0.464370 0.066875
C70   C     C_3   0.831765 0.863375 0.408702 -0.266464
C71   C     C_3   0.942854 0.843054 0.440309 -0.481980
C72   C     C_3   0.618540 0.071025 0.365035 0.014020
C73   C     C_3   0.585202 0.017128 0.313437 -0.270135
C74   C     C_3   0.555608 0.054918 0.242776 -0.496397
C75   C     C_3   0.371983 0.722476 0.348847 0.006458
C76   C     C_3   0.302045 0.688250 0.302715 -0.259324
C77   C     C_3   0.313571 0.702718 0.226236 -0.480262
C78   C     C_R   0.124997 0.521050 0.511560 0.257554
C79   C     C_3   0.073505 0.524480 0.623386 0.012790
C80   C     C_3   0.115010 0.507273 0.697600 -0.249654
C81   C     C_3   0.026511 0.530771 0.748979 -0.484910
C82   C     C_R   0.140785 0.620466 0.435118 -0.191921
Cu1   Cu    Cu3+1 0.500030 0.426630 0.500000 0.973451
Cu2   Cu    Cu3+1 0.499970 0.573370 0.500000 0.988339
H1    H     H_    0.185133 0.656027 0.415750 0.164939
H2    H     H_    0.575157 0.287923 0.351977 0.155112
H3    H     H_    0.648451 0.346943 0.320973 0.140820
H4    H     H_    0.584978 0.217181 0.244562 0.151461
H5    H     H_    0.638583 0.282221 0.199932 0.228682
H6    H     H_    0.801154 0.243764 0.268303 0.164566
H7    H     H_    0.773962 0.158102 0.236454 0.150297
H8    H     H_    0.750364 0.187373 0.325649 0.153889
H9    H     H_    0.739249 0.343430 0.043386 0.323843
H10   H     H_    0.662593 0.324515 0.948693 0.334039
H11   H     H_    0.461219 0.637207 0.886690 0.302501
H12   H     H_    0.599436 0.592146 0.167394 0.122003
H13   H     H_    0.242079 0.528954 0.825317 0.166899
H14   H     H_    0.312107 0.583214 0.875270 0.142151
H15   H     H_    0.214156 0.463899 0.930844 0.180665
H16   H     H_    0.292338 0.511115 0.981823 0.194015
H17   H     H_    0.163722 0.638654 0.955267 0.165864
H18   H     H_    0.100671 0.575408 0.994063 0.152235
H19   H     H_    0.085340 0.592881 0.902209 0.138967
H20   H     H_    0.350084 0.466062 0.674690 0.349174
H21   H     H_    0.688877 0.493214 0.653692 0.324280
H22   H     H_    0.637042 0.638625 0.861931 0.121392
H23   H     H_    0.457032 0.613650 0.067412 0.145438
H24   H     H_    0.715787 0.618321 0.785217 0.190482
H25   H     H_    0.796123 0.594630 0.936955 0.173925
H26   H     H_    0.877275 0.568037 0.862680 0.180903
H27   H     H_    0.823036 0.704779 0.823961 0.151390
H28   H     H_    0.880857 0.694415 0.910255 0.146972
H29   H     H_    0.740249 0.732040 0.898189 0.159680
H30   H     H_    0.637380 0.323299 0.589507 0.350753
H31   H     H_    0.742414 0.047733 0.623628 0.159192
H32   H     H_    0.605409 0.067580 0.613194 0.101546
H33   H     H_    0.723172 0.178188 0.674019 0.208129
H34   H     H_    0.845693 0.633773 0.365956 0.105175
H35   H     H_    0.582193 0.200083 0.667173 0.155964
H36   H     H_    0.590054 0.090041 0.744575 0.142672
H37   H     H_    0.647397 0.158038 0.785437 0.173178
H38   H     H_    0.731429 0.068566 0.752569 0.152712
H39   H     H_    0.382096 0.120528 0.372198 0.119338
H40   H     H_    0.373182 0.217687 0.346085 0.133248
H41   H     H_    0.187388 0.155359 0.372217 0.197196
H42   H     H_    0.178125 0.251860 0.346787 0.191725
H43   H     H_    0.271006 0.201342 0.237444 0.154790
H44   H     H_    0.153661 0.172849 0.245375 0.154994
H45   H     H_    0.004848 0.675187 0.371906 0.115463
H46   H     H_    0.280486 0.104420 0.263103 0.152796
H47   H     H_    0.371769 0.379061 0.405081 0.372422
H48   H     H_    0.442579 0.123729 0.645442 0.110691
H49   H     H_    0.361882 0.062473 0.661386 0.131816
H50   H     H_    0.202885 0.181723 0.656808 0.217461
H51   H     H_    0.294882 0.178254 0.727693 0.111759
H52   H     H_    0.373308 0.265279 0.666287 0.129196
H53   H     H_    0.233367 0.307960 0.672576 0.171939
H54   H     H_    0.287537 0.266606 0.591842 0.266219
H55   H     H_    0.275166 0.006717 0.572986 0.360684
H56   H     H_    0.824627 0.332202 0.556939 0.168994
H57   H     H_    0.769225 0.815968 0.491999 0.178511
H58   H     H_    0.758030 0.915949 0.502733 0.166462
H59   H     H_    0.826673 0.817556 0.371521 0.156338
H60   H     H_    0.815283 0.918123 0.379954 0.196383
H61   H     H_    0.950935 0.889639 0.475539 0.172137
H62   H     H_    0.000194 0.835676 0.398540 0.148601
H63   H     H_    0.961221 0.788633 0.469778 0.156060
H64   H     H_    0.685468 0.085596 0.342777 0.155951
H65   H     H_    0.555647 0.126092 0.370494 0.098271
H66   H     H_    0.650776 0.963380 0.307568 0.190711
H67   H     H_    0.747503 0.550693 0.403860 0.138647
H68   H     H_    0.516247 0.002208 0.332463 0.167608
H69   H     H_    0.489432 0.108572 0.247284 0.140420
H70   H     H_    0.530927 0.015213 0.206798 0.157209
H71   H     H_    0.623904 0.068447 0.220978 0.150158
H72   H     H_    0.688000 0.770086 0.606947 0.363788
H73   H     H_    0.628304 0.618143 0.593962 0.384571
H74   H     H_    0.455411 0.694949 0.336303 0.136610
H75   H     H_    0.352338 0.784312 0.336117 0.149949
H76   H     H_    0.322596 0.625511 0.311799 0.179726
H77   H     H_    0.218677 0.715010 0.315924 0.152424
H78   H     H_    0.578020 0.592989 0.291538 0.130219
H79   H     H_    0.284955 0.765194 0.215283 0.150357
H80   H     H_    0.266395 0.673492 0.194175 0.152451
H81   H     H_    0.396761 0.680286 0.211539 0.155330
H82   H     H_    0.271450 0.850269 0.429556 0.344780
H83   H     H_    0.004610 0.502817 0.615763 0.157960
H84   H     H_    0.047010 0.588153 0.616943 0.122648
H85   H     H_    0.155835 0.444952 0.703289 0.215944
H86   H     H_    0.171244 0.540059 0.709493 0.180021
H87   H     H_    0.987185 0.593581 0.746413 0.147221
H88   H     H_    0.059225 0.515869 0.802176 0.143388
H89   H     H_    0.450226 0.351735 0.163020 0.348481
H90   H     H_    0.967714 0.499822 0.737753 0.191988
H91   H     H_    0.166683 0.379429 0.475420 0.369285
H92   H     H_    0.980896 0.247416 0.586626 0.320210
N1    N     N_R   0.500010 0.316380 0.499980 -0.298174
N2    N     N_R   0.499860 0.683650 0.499960 -0.256758
O1    O     O_R   0.500040 0.438010 0.599820 -0.516179
O2    O     O_3   0.491795 0.367935 0.281417 -0.590572
O3    O     O_3   0.678944 0.370443 0.071892 -0.687064
O4    O     O_3   0.658478 0.371297 0.922078 -0.677513
O5    O     O_3   0.449738 0.639026 0.937006 -0.720827
O6    O     O_3   0.386743 0.464486 0.865386 -0.516989
O7    O     O_3   0.359601 0.457530 0.725077 -0.704879
O8    O     O_3   0.691564 0.516928 0.699734 -0.689866
O9    O     O_3   0.711222 0.522772 0.840975 -0.514797
O10   O     O_3   0.665979 0.276293 0.562020 -0.679098
O11   O     O_3   0.677938 0.127203 0.549066 -0.498775
O12   O     O_R   0.499990 0.561930 0.599810 -0.517285
O13   O     O_3   0.324203 0.203624 0.446209 -0.471460
O14   O     O_3   0.340122 0.345992 0.430730 -0.676897
O15   O     O_3   0.338439 0.114921 0.564720 -0.511774
O16   O     O_3   0.332509 0.960148 0.561143 -0.666775
O17   O     O_3   0.649237 0.886292 0.432465 -0.573332
O18   O     O_3   0.654250 0.036558 0.430003 -0.530962
O19   O     O_3   0.639128 0.812843 0.580706 -0.736488
O20   O     O_3   0.654791 0.657505 0.574264 -0.702523
O21   O     O_3   0.354848 0.710964 0.419352 -0.549651
O22   O     O_3   0.331266 0.871591 0.435510 -0.690237
O23   O     O_R   0.651020 0.407800 0.499990 -0.492947
O24   O     O_3   0.152809 0.487905 0.576342 -0.540971
O25   O     O_3   0.142088 0.358048 0.515893 -0.595455
O26   O     O_3   0.031881 0.273597 0.572007 -0.646706
O27   O     O_R   0.650970 0.531720 0.499980 -0.496403
O28   O     O_R   0.500010 0.438070 0.400190 -0.503157
O29   O     O_R   0.499960 0.561990 0.400180 -0.491864
O30   O     O_R   0.349030 0.468280 0.500020 -0.451662
O31   O     O_R   0.348980 0.592200 0.500010 -0.456581
O32   O     O_3   0.482551 0.383481 0.135444 -0.678165

loop_
_geom_bond_atom_site_label_1
_geom_bond_atom_site_label_2
_ccdc_geom_bond_type
C77   H79   S    
C71   H63   S    
C40   H45   S    
C73   H66   S    
C27   C29   A    
C1    O1    A    
C41   C42   A    
H92   O26   S    
C54   H17   S    
C66   C68   S    
C35   C36   A    
C80   H86   S    
Cu1   O23   S    
C16   O29   A    
C5    H12   S    
C62   H40   S    
C14   O5    S    
C76   H77   S    
C4    O27   A    
C53   C54   S    
C2    C46   A    
H20   O7    S    
C28   O31   A    
C48   O25   S    
C70   H59   S    
Cu1   O30   S    
C52   H14   S    
C58   H28   S    
C36   C37   A    
C9    C16   S    
C18   C19   A    
Cu1   O28   S    
C16   O28   A    
C51   H6    S    
C38   C39   A    
C25   N1    A    
C66   H51   S    
C10   C17   A    
C69   H57   S    
C52   H13   S    
C69   O17   S    
H30   O10   S    
C74   H70   S    
C60   H35   S    
C61   H37   S    
H73   O20   S    
C73   C74   S    
C81   H88   S    
C15   H23   S    
C22   O9    S    
C49   C50   S    
C49   H3    S    
C75   O21   S    
C3    H78   S    
C51   H7    S    
C66   H50   S    
C68   H54   S    
Cu2   O27   S    
C30   N1    A    
C57   H25   S    
H72   O19   S    
C45   C56   A    
C8    C9    A    
C64   H44   S    
C74   H71   S    
C58   H29   S    
C29   O13   S    
Cu2   O12   S    
C70   C71   S    
C55   O9    S    
C79   H84   S    
C29   C30   A    
C34   C78   A    
H55   O16   S    
C41   O21   S    
C72   C73   S    
C49   O2    S    
C1    O12   A    
C79   O24   S    
C77   H80   S    
C59   C60   S    
C13   C14   A    
C61   H36   S    
C68   H53   S    
C11   O4    S    
H9    O3    S    
C80   H85   S    
C62   H39   S    
C26   O11   S    
C6    C7    A    
C65   O15   S    
C53   H16   S    
C40   C45   A    
Cu1   N1    S    
C55   H22   S    
C67   H67   S    
C58   H27   S    
C33   C43   S    
C47   C48   A    
C40   C82   A    
C54   H19   S    
C68   H52   S    
C76   C77   S    
C32   O16   S    
C31   O15   S    
Cu2   O31   S    
C59   H32   S    
C78   O24   S    
C69   H58   S    
C72   H64   S    
C28   C44   S    
C53   H15   S    
C63   C64   S    
C74   H69   S    
C61   H38   S    
H21   O8    S    
C19   O7    S    
C2    C4    S    
C75   C76   S    
C36   O18   S    
C62   C63   S    
C3    C9    A    
C25   O10   S    
C51   H8    S    
C8    O2    S    
C50   H5    S    
Cu1   Cu2   S    
C12   C23   A    
C18   O6    S    
C64   H43   S    
H89   O32   S    
C50   C51   S    
C26   C27   A    
C38   O19   S    
C60   H33   S    
C34   C45   A    
C20   C21   A    
Cu2   N2    S    
C63   H41   S    
C75   H74   S    
C71   H61   S    
C39   O20   S    
C64   H46   S    
C65   C66   S    
C30   O14   S    
C55   C57   S    
C73   H68   S    
C28   O30   A    
C18   C24   A    
C59   O11   S    
C42   C43   A    
C12   C34   A    
C56   C67   A    
C65   H48   S    
C52   C53   S    
C46   H56   S    
C75   H75   S    
C15   C17   A    
C6    C17   S    
C46   C47   A    
C76   H76   S    
C1    C20   S    
C56   H34   S    
C49   H2    S    
C54   H18   S    
C31   C32   A    
C52   O6    S    
C80   C81   S    
C3    C5    A    
C72   O18   S    
C57   H26   S    
C62   O13   S    
C35   O17   S    
C41   N2    A    
C82   H1    S    
C21   O8    S    
C44   C82   A    
Cu1   O1    S    
C55   H24   S    
C81   H90   S    
C19   C20   A    
C44   C78   A    
C25   C26   A    
H91   O25   S    
C38   C43   A    
C32   C33   A    
C11   C13   A    
Cu2   O29   S    
H11   O5    S    
C4    O23   A    
C5    C6    A    
C23   C67   A    
C27   C37   S    
C42   O22   S    
C33   C35   A    
C12   C48   A    
C47   O26   S    
C22   C24   A    
C81   H87   S    
C70   H60   S    
C69   C70   S    
H82   O22   S    
C39   N2    A    
C63   H42   S    
C7    C8    A    
C10   C11   A    
C79   C80   S    
C31   C37   A    
C71   H62   S    
C7    O32   S    
C13   C24   S    
C59   H31   S    
C72   H65   S    
C2    C23   A    
C10   O3    S    
C14   C15   A    
C60   C61   S    
C50   H4    S    
H10   O4    S    
C79   H83   S    
C57   C58   S    
C21   C22   A    
C77   H81   S    
C65   H49   S    
H47   O14   S    
