data_mof_unit_48298.cif
_audit_creation_date              2012-12-10T17:54:16-0500
_audit_creation_method            fapswitch 2.2
_symmetry_space_group_name_H-M    P1
_symmetry_Int_Tables_number       1
_space_group_crystal_system       triclinic
_cell_length_a                    27.727371
_cell_length_b                    10.618022
_cell_length_c                    9.915857
_cell_angle_alpha                 89.961024
_cell_angle_beta                  89.983936
_cell_angle_gamma                 91.638221
_cell_volume                      2918.13179361

loop_
_atom_site_label
_atom_site_type_symbol
_atom_type_description
_atom_site_fract_x
_atom_site_fract_y
_atom_site_fract_z
_atom_type_partial_charge
C1    C     C_R   0.500779 0.260698 0.500096 0.940739
C2    C     C_R   0.972934 0.377773 0.491027 0.045909
C3    C     C_R   0.976061 0.609691 0.514140 0.046980
C4    C     C_R   0.406099 0.499048 0.500011 0.883035
C5    C     C_R   0.949269 0.494172 0.502648 0.071610
C6    C     C_R   0.944541 0.266392 0.471545 -0.214244
C7    C     C_R   0.894585 0.268721 0.469475 -0.129337
C8    C     C_R   0.871040 0.381996 0.486162 -0.022201
C9    C     C_R   0.898187 0.495090 0.502678 -0.050617
C10   C     C_R   0.874127 0.609127 0.519130 -0.026841
C11   C     C_R   0.823680 0.607899 0.518765 0.511976
C12   C     C_R   0.277851 0.489561 0.377922 -0.099477
C13   C     C_R   0.820646 0.385150 0.485945 0.506024
C14   C     C_R   0.721978 0.484484 0.379772 -0.095381
C15   C     C_R   0.671898 0.485681 0.378974 -0.200222
C16   C     C_R   0.501107 0.739335 0.499921 0.911036
C17   C     C_R   0.671930 0.513655 0.622275 -0.183008
C18   C     C_R   0.722004 0.512833 0.622626 -0.073060
C19   C     C_R   0.746950 0.498061 0.501503 0.307371
C20   C     C_R   0.023956 0.376484 0.497988 0.047417
C21   C     C_R   0.050740 0.492472 0.501957 0.070994
C22   C     C_R   0.027067 0.609285 0.506401 0.046612
C23   C     C_R   0.252964 0.489728 0.500348 0.324843
C24   C     C_R   0.049332 0.262772 0.502135 -0.213224
C25   C     C_R   0.105377 0.720191 0.499072 -0.132528
C26   C     C_R   0.950715 0.721975 0.534112 -0.213632
C27   C     C_R   0.900729 0.721451 0.536182 -0.131163
C28   C     C_R   0.593889 0.500357 0.500030 0.838140
C29   C     C_R   0.055430 0.722143 0.501669 -0.213444
C30   C     C_R   0.584671 0.137737 0.605196 -0.245646
C31   C     C_R   0.624322 0.075122 0.655951 -0.201856
C32   C     C_R   0.624446 0.943998 0.655955 0.702017
C33   C     C_R   0.584900 0.875145 0.605111 -0.272390
C34   C     C_R   0.101821 0.491660 0.501432 -0.051347
C35   C     C_R   0.544269 0.937335 0.554154 0.012345
C36   C     C_R   0.544106 0.069277 0.554223 0.028423
C37   C     C_R   0.503498 0.128502 0.500120 -0.210923
C38   C     C_R   0.464617 0.061073 0.444062 0.592928
C39   C     C_R   0.464998 0.932401 0.443489 -0.266494
C40   C     C_R   0.176385 0.378081 0.501700 0.506565
C41   C     C_R   0.503923 0.871741 0.499676 -0.157738
C42   C     C_R   0.436416 0.335926 0.140086 -0.125613
C43   C     C_R   0.404999 0.255229 0.070040 -0.150135
C44   C     C_R   0.405044 0.255027 0.930451 -0.209856
C45   C     C_R   0.125920 0.376629 0.501962 -0.022839
C46   C     C_R   0.436489 0.335562 0.860121 -0.152096
C47   C     C_R   0.468684 0.419034 0.927756 0.169505
C48   C     C_R   0.468671 0.419148 0.072314 0.140511
C49   C     C_R   0.530013 0.577308 0.071399 -0.100646
C50   C     C_R   0.529995 0.577295 0.928291 -0.103395
C51   C     C_R   0.179312 0.602937 0.499670 0.506601
C52   C     C_R   0.277913 0.491995 0.622653 -0.100425
C53   C     C_R   0.328024 0.494843 0.622762 -0.209410
C54   C     C_R   0.327967 0.492439 0.377569 -0.197459
C55   C     C_R   0.099333 0.263136 0.503744 -0.134954
C56   C     C_R   0.128933 0.605899 0.500365 -0.023536
C57   C     C_R   0.353397 0.495685 0.500100 -0.030117
C58   C     C_R   0.646546 0.500041 0.500351 -0.049607
F1    F     F_    0.425733 0.120155 0.393431 -0.693641
F2    F     F_    0.663212 0.883238 0.704126 -0.647792
H1    H     H_    0.346687 0.492405 0.281692 0.164041
H2    H     H_    0.655155 0.128641 0.694456 0.179831
H3    H     H_    0.258288 0.487875 0.283410 0.136708
H4    H     H_    0.586719 0.773529 0.604641 0.160265
H5    H     H_    0.434446 0.879564 0.401722 0.178407
H6    H     H_    0.554544 0.640496 0.125034 0.154087
H7    H     H_    0.434393 0.330272 0.246954 0.241497
H8    H     H_    0.380528 0.192321 0.124583 0.197627
H9    H     H_    0.380611 0.191951 0.876128 0.173410
H10   H     H_    0.434505 0.329478 0.753183 0.212143
H11   H     H_    0.554506 0.640497 0.874428 0.155110
H12   H     H_    0.258398 0.492209 0.717256 0.137107
H13   H     H_    0.117085 0.173564 0.506515 0.189668
H14   H     H_    0.653124 0.474828 0.283740 0.167644
H15   H     H_    0.741463 0.473260 0.286078 0.143433
H16   H     H_    0.874459 0.180850 0.454495 0.195089
H17   H     H_    0.959734 0.175592 0.454432 0.140540
H18   H     H_    0.031689 0.171236 0.507193 0.137928
H19   H     H_    0.346785 0.496750 0.718562 0.166684
H20   H     H_    0.125486 0.809177 0.495887 0.192787
H21   H     H_    0.968370 0.812136 0.551509 0.139470
H22   H     H_    0.653198 0.525266 0.717121 0.169713
H23   H     H_    0.883001 0.809985 0.551311 0.192450
H24   H     H_    0.741496 0.523333 0.716755 0.144362
H25   H     H_    0.040220 0.814206 0.496795 0.138684
H26   H     H_    0.586410 0.239530 0.605024 0.173028
N1    N     N_R   0.201694 0.490163 0.500480 -0.360548
N2    N     N_R   0.798270 0.496999 0.502105 -0.360875
N3    N     N_R   0.499540 0.498800 0.142780 -0.125841
N4    N     N_R   0.499520 0.498720 0.857170 -0.124018
O1    O     O_R   0.500000 0.316780 0.614690 -0.645298
O2    O     O_R   0.571250 0.499990 0.614680 -0.634250
O3    O     O_R   0.571240 0.499970 0.385350 -0.618665
O4    O     O_2   0.200078 0.268765 0.502575 -0.542299
O5    O     O_2   0.794112 0.277513 0.470549 -0.542416
O6    O     O_2   0.205842 0.711562 0.498356 -0.542292
O7    O     O_2   0.800096 0.716484 0.533983 -0.520715
O8    O     O_R   0.500000 0.316750 0.385360 -0.613130
O9    O     O_R   0.428760 0.500030 0.614650 -0.641511
O10   O     O_R   0.428750 0.500010 0.385320 -0.642654
O11   O     O_R   0.500000 0.683250 0.614640 -0.612276
O12   O     O_R   0.500000 0.683220 0.385310 -0.611744
Zn1   Zn    Zn3+2 0.500000 0.500020 0.653130 0.944094
Zn2   Zn    Zn3+2 0.500000 0.499980 0.346870 0.957435

loop_
_geom_bond_atom_site_label_1
_geom_bond_atom_site_label_2
_ccdc_geom_bond_type
C10   C27   A    
O9    Zn1   S    
C34   C56   A    
C8    C13   A    
C22   C29   A    
C25   H20   S    
C35   C36   A    
C25   C56   A    
C50   H11   S    
C7    C8    A    
C39   C41   A    
C24   C55   A    
C12   C23   A    
C26   C27   A    
C13   O5    S    
C40   N1    A    
C36   C37   A    
C53   H19   S    
C17   H22   S    
C30   C31   A    
O10   Zn2   S    
C18   C19   A    
O2    Zn1   S    
C33   C35   A    
C50   N4    A    
C47   C48   A    
C8    C9    A    
C4    C57   S    
C18   H24   S    
C40   O4    S    
C30   H26   S    
C9    C10   A    
C29   H25   S    
C1    C37   S    
C17   C58   A    
C1    O1    A    
C23   N1    S    
C21   C22   A    
C39   H5    S    
C31   H2    S    
C2    C6    A    
O3    Zn2   S    
C44   C46   A    
C25   C29   A    
C40   C45   A    
C49   H6    S    
C2    C20   A    
C20   C24   A    
C19   N2    S    
C51   N1    A    
C12   H3    S    
C53   C57   A    
C43   H8    S    
C6    H17   S    
C21   C34   A    
C28   O3    A    
C43   C44   A    
C5    C9    A    
C37   C38   A    
C52   H12   S    
O1    Zn1   S    
C31   C32   A    
C11   N2    A    
C17   C18   A    
C44   H9    S    
C28   O2    A    
C34   C45   A    
C42   C48   A    
O12   Zn2   S    
C6    C7    A    
C16   O12   A    
C26   H21   S    
C48   N3    A    
C4    O10   A    
N3    Zn2   S    
C42   H7    S    
C15   C58   A    
C2    C5    A    
C42   C43   A    
C32   F2    S    
C52   C53   A    
C24   H18   S    
C46   C47   A    
C14   C19   A    
C3    C26   A    
C51   C56   A    
C49   N3    A    
C3    C5    A    
C1    O8    A    
C7    H16   S    
C54   H1    S    
C28   C58   S    
C51   O6    S    
C30   C36   A    
C11   O7    S    
C14   H15   S    
C27   H23   S    
C32   C33   A    
C23   C52   A    
C38   C39   A    
C33   H4    S    
O8    Zn2   S    
C13   N2    A    
C47   N4    A    
C35   C41   A    
N4    Zn1   S    
C46   H10   S    
C10   C11   A    
C38   F1    S    
C55   H13   S    
C16   O11   A    
C15   H14   S    
C20   C21   A    
C45   C55   A    
O11   Zn1   S    
C49   C50   A    
C4    O9    A    
C14   C15   A    
C3    C22   A    
C16   C41   S    
C12   C54   A    
C54   C57   A    
