data_mof_unit_68308.cif
_audit_creation_date              2012-12-10T16:47:57-0500
_audit_creation_method            fapswitch 2.2
_symmetry_space_group_name_H-M    P1
_symmetry_Int_Tables_number       1
_space_group_crystal_system       triclinic
_cell_length_a                    8.090145
_cell_length_b                    8.603964
_cell_length_c                    10.908049
_cell_angle_alpha                 96.44086
_cell_angle_beta                  85.078594
_cell_angle_gamma                 91.934325
_cell_volume                      751.482700987

loop_
_atom_site_label
_atom_site_type_symbol
_atom_type_description
_atom_site_fract_x
_atom_site_fract_y
_atom_site_fract_z
_atom_type_partial_charge
C1    C     C_R   0.542400 0.793443 0.502898 0.926356
C2    C     C_2   0.560735 0.956576 0.501273 -0.440483
C3    C     C_R   0.770617 0.432416 0.067316 0.118318
C4    C     C_R   0.775881 0.283336 0.999331 -0.182236
C5    C     C_R   0.920797 0.197078 0.988103 -0.121784
C6    C     C_R   0.059661 0.257639 0.045944 -0.083094
C7    C     C_R   0.053912 0.404004 0.114523 -0.193278
C8    C     C_R   0.911859 0.493026 0.123553 -0.116295
C9    C     C_3   0.365333 0.682766 0.122655 -0.400281
C10   C     C_3   0.421084 0.838337 0.076090 -0.897973
C11   C     C_3   0.775329 0.673437 0.878889 -0.346251
C12   C     C_2   0.442591 0.054976 0.551241 0.013988
C13   C     C_3   0.727441 0.826646 0.833554 -0.933560
C14   C     C_3   0.311510 0.020391 0.654660 -0.367925
C15   C     C_3   0.330805 0.129499 0.772715 -0.927290
C16   C     C_R   0.984487 0.306572 0.385469 0.238017
C17   C     C_R   0.856003 0.219335 0.323820 -0.082096
C18   C     C_R   0.871556 0.067730 0.262380 -0.206007
C19   C     C_R   0.021512 0.995115 0.252811 -0.115340
C20   C     C_R   0.155926 0.080884 0.294942 -0.245092
C21   C     C_R   0.136898 0.236434 0.344602 -0.120490
C22   C     C_3   0.996049 0.695618 0.581504 -0.167850
C23   C     C_R   0.501684 0.507293 0.735990 0.916435
C24   C     C_3   0.010878 0.805010 0.480059 -0.794880
C25   C     C_R   0.457903 0.209293 0.514065 0.911944
C26   C     C_R   0.501654 0.515126 0.265297 0.824347
C27   C     C_2   0.632410 0.536964 0.055555 -0.057168
C28   C     C_2   0.506611 0.574673 0.143664 -0.039885
C29   C     C_2   0.627803 0.579445 0.930964 0.218984
C30   C     C_2   0.504651 0.510957 0.867232 -0.384224
H1    H     H_    0.406173 0.444261 0.913302 0.124859
H2    H     H_    0.318338 0.921318 0.091530 0.232518
H3    H     H_    0.283561 0.623359 0.054921 0.206739
H4    H     H_    0.285702 0.711750 0.209741 0.222936
H5    H     H_    0.627239 0.807962 0.769786 0.261997
H6    H     H_    0.688659 0.912952 0.912926 0.257305
H7    H     H_    0.837068 0.880093 0.784769 0.237872
H8    H     H_    0.861982 0.706210 0.951817 0.191545
H9    H     H_    0.848138 0.598612 0.806215 0.210490
H10   H     H_    0.463460 0.144940 0.791681 0.258813
H11   H     H_    0.276455 0.244198 0.765538 0.287278
H12   H     H_    0.666089 0.994020 0.443352 0.167202
H13   H     H_    0.262898 0.077396 0.851324 0.238992
H14   H     H_    0.185782 0.033302 0.624396 0.221852
H15   H     H_    0.320255 0.901602 0.682717 0.228420
H16   H     H_    0.741211 0.262263 0.310537 0.204242
H17   H     H_    0.767151 0.008470 0.220077 0.126420
H18   H     H_    0.035480 0.878015 0.206256 0.128146
H19   H     H_    0.278559 0.032687 0.281350 0.145480
H20   H     H_    0.247256 0.294643 0.331835 0.202580
H21   H     H_    0.141334 0.835032 0.453028 0.265051
H22   H     H_    0.956989 0.748885 0.395480 0.261290
H23   H     H_    0.669885 0.236572 0.951807 0.125011
H24   H     H_    0.945500 0.915050 0.513564 0.235875
H25   H     H_    0.869042 0.688846 0.623721 0.227916
H26   H     H_    0.075145 0.741982 0.655996 0.151997
H27   H     H_    0.926283 0.083487 0.935096 0.135834
H28   H     H_    0.170184 0.189535 0.041715 0.122526
H29   H     H_    0.158247 0.445604 0.164153 0.146712
H30   H     H_    0.911966 0.609039 0.173550 0.120014
H31   H     H_    0.530894 0.889507 0.121629 0.259164
H32   H     H_    0.443731 0.822678 0.974516 0.281974
N1    N     N_2   0.950320 0.457950 0.466680 -0.099103
N2    N     N_2   0.049680 0.542050 0.533320 -0.050207
O1    O     O_R   0.389250 0.738570 0.508180 -0.626689
O2    O     O_R   0.678390 0.711630 0.486820 -0.629667
O3    O     O_R   0.355470 0.513470 0.691600 -0.627441
O4    O     O_R   0.644610 0.486520 0.670240 -0.618510
O5    O     O_R   0.321610 0.288370 0.513180 -0.631825
O6    O     O_R   0.610750 0.261430 0.491820 -0.656477
O7    O     O_R   0.355390 0.513480 0.329760 -0.664953
O8    O     O_R   0.644530 0.486530 0.308400 -0.646401
Zn1   Zn    Zn3+2 0.306940 0.517990 0.514260 0.909142
Zn2   Zn    Zn3+2 0.693060 0.482010 0.485740 0.908178

loop_
_geom_bond_atom_site_label_1
_geom_bond_atom_site_label_2
_ccdc_geom_bond_type
C23   O4    A    
C24   H22   S    
C11   H8    S    
C11   H9    S    
N2    Zn1   S    
O8    Zn2   S    
O6    Zn2   S    
C16   C21   A    
O3    Zn1   S    
N1    Zn2   S    
C4    H23   S    
C27   C29   S    
C20   H19   S    
C26   O8    A    
C9    C10   S    
C6    H28   S    
O4    Zn2   S    
C13   H7    S    
C19   C20   A    
C5    H27   S    
C12   C25   S    
C2    C12   D    
C18   H17   S    
C24   H21   S    
C3    C27   S    
C17   C18   A    
C22   H25   S    
C15   H13   S    
C7    C8    A    
C10   H32   S    
C8    H30   S    
C9    H3    S    
C26   O7    A    
C11   C13   S    
C15   H11   S    
C29   C30   D    
C2    H12   S    
C5    C6    A    
C1    C2    S    
C7    H29   S    
O5    Zn1   S    
C16   N1    S    
C12   C14   S    
C9    H4    S    
C13   H5    S    
C14   H15   S    
C30   H1    S    
C16   C17   A    
C22   C24   S    
C15   H10   S    
C10   H31   S    
C25   O5    A    
C24   H24   S    
N1    N2    D    
O2    Zn2   S    
C23   C30   S    
C10   H2    S    
O1    Zn1   S    
C20   C21   A    
C11   C29   S    
C13   H6    S    
C14   H14   S    
C3    C8    A    
C17   H16   S    
C23   O3    A    
C27   C28   D    
O7    Zn1   S    
C18   C19   A    
C14   C15   S    
C21   H20   S    
C22   H26   S    
C25   O6    A    
C22   N2    S    
C19   H18   S    
C26   C28   S    
C1    O1    A    
C6    C7    A    
C3    C4    A    
C9    C28   S    
C4    C5    A    
C1    O2    A    
