data_mof_unit_11202.cif
_audit_creation_date              2013-03-05T16:37:25-0500
_audit_creation_method            fapswitch 2.2
_symmetry_space_group_name_H-M    P1
_symmetry_Int_Tables_number       1
_space_group_crystal_system       triclinic
_cell_length_a                    18.816716
_cell_length_b                    18.63785
_cell_length_c                    19.15131
_cell_angle_alpha                 110.159615
_cell_angle_beta                  110.157317
_cell_angle_gamma                 109.373184
_cell_volume                      5086.99092707

loop_
_atom_site_label
_atom_site_type_symbol
_atom_site_description
_atom_site_fract_x
_atom_site_fract_y
_atom_site_fract_z
_atom_type_partial_charge
O1    O     O_R   0.408620 0.551720 0.460350 -0.643765
O2    O     O_R   0.409320 0.448300 0.357580 -0.582741
C1    C     C_R   0.382227 0.502081 0.380842 0.893262
O3    O     O_R   0.591270 0.643330 0.551380 -0.602663
O4    O     O_R   0.591970 0.539910 0.448620 -0.568745
C2    C     C_R   0.621269 0.621742 0.502221 0.906977
Zn1   Zn    Zn3+2 0.499530 0.569060 0.568620 1.115261
Zn2   Zn    Zn3+2 0.500470 0.430940 0.431380 1.072831
O5    O     O_R   0.590680 0.551700 0.642420 -0.523721
O6    O     O_R   0.591380 0.448280 0.539650 -0.646061
O7    O     O_R   0.408030 0.460090 0.551380 -0.583301
O8    O     O_R   0.408730 0.356670 0.448620 -0.642564
C3    C     C_R   0.617231 0.497592 0.619355 0.964031
C4    C     C_R   0.376928 0.378898 0.496456 0.848160
H1    H     H_    0.871661 0.907953 0.918692 0.167957
C5    C     C_R   0.765250 0.864335 0.794602 -0.151754
H2    H     H_    0.732190 0.890066 0.823346 0.186679
C6    C     C_R   0.731880 0.826511 0.704693 0.371824
C7    C     C_R   0.776414 0.792938 0.668658 -0.005714
C8    C     C_R   0.854837 0.801784 0.724723 -0.203050
H3    H     H_    0.892038 0.780207 0.699346 0.167609
C9    C     C_R   0.889965 0.845157 0.814316 -0.129296
H4    H     H_    0.953307 0.856829 0.856948 0.146298
C10   C     C_R   0.844696 0.875262 0.849164 -0.101996
C11   C     C_R   0.818879 0.828897 0.573755 -0.197687
H5    H     H_    0.875063 0.889797 0.632874 0.151788
C12   C     C_R   0.810892 0.811305 0.494254 -0.086689
C13   C     C_R   0.737844 0.734812 0.415923 -0.041250
C14   C     C_R   0.671398 0.676456 0.419217 0.300304
C15   C     C_R   0.683358 0.691083 0.500906 -0.152035
C16   C     C_R   0.756925 0.769209 0.579041 0.041238
C17   C     C_R   0.703059 0.748409 0.285120 -0.178366
H6    H     H_    0.684463 0.795736 0.311380 0.177582
C18   C     C_R   0.694571 0.724311 0.203900 -0.199201
H7    H     H_    0.670252 0.754207 0.169383 0.194936
C19   C     C_R   0.716133 0.661586 0.167205 0.313996
C20   C     C_R   0.746878 0.623771 0.213709 -0.255997
H8    H     H_    0.763344 0.575036 0.185879 0.218925
C21   C     C_R   0.755687 0.647270 0.295554 0.308514
C22   C     C_R   0.734207 0.711195 0.331931 0.009829
C23   C     C_R   0.416257 0.781363 0.547432 -0.111293
H9    H     H_    0.406066 0.796628 0.601800 0.173564
C24   C     C_R   0.369058 0.693108 0.479201 -0.100714
H10   H     H_    0.322045 0.642567 0.481222 0.166077
C25   C     C_R   0.379742 0.670858 0.407224 0.111883
C26   C     C_R   0.438466 0.738275 0.404469 -0.157371
H11   H     H_    0.445448 0.722720 0.348115 0.184908
C27   C     C_R   0.485158 0.826707 0.472245 -0.119056
H12   H     H_    0.529020 0.877507 0.467760 0.175232
C28   C     C_R   0.474199 0.849349 0.544303 0.467372
C29   C     C_R   0.252348 0.577732 0.260084 -0.154942
H13   H     H_    0.250768 0.637678 0.268114 0.196365
C30   C     C_R   0.188480 0.496699 0.183721 -0.033636
C31   C     C_R   0.187377 0.417464 0.171592 0.089430
C32   C     C_R   0.252845 0.421796 0.237651 -0.112300
H14   H     H_    0.252979 0.361158 0.228985 0.155481
C33   C     C_R   0.316658 0.503013 0.315287 -0.059977
C34   C     C_R   0.316334 0.582129 0.327371 0.040777
C35   C     C_R   0.036318 0.284499 0.076621 -0.107879
H15   H     H_    0.019184 0.314693 0.122671 0.201545
C36   C     C_R   0.973664 0.199438 0.003984 -0.113947
H16   H     H_    0.908592 0.165266 0.993573 0.157761
C37   C     C_R   0.995280 0.157844 0.945584 -0.158746
H17   H     H_    0.946853 0.091550 0.889661 0.156767
C38   C     C_R   0.079609 0.201226 0.959665 -0.196797
H18   H     H_    0.095200 0.167473 0.914029 0.160051
C39   C     C_R   0.143085 0.287654 0.031483 0.301069
C40   C     C_R   0.120793 0.329997 0.090501 -0.061088
H19   H     H_    0.209692 0.608812 0.551126 0.180086
C41   C     C_R   0.254982 0.544637 0.614349 -0.168347
H20   H     H_    0.275609 0.595545 0.678078 0.183057
C42   C     C_R   0.264806 0.471359 0.604539 -0.054608
H21   H     H_    0.292826 0.465888 0.660924 0.199059
C43   C     C_R   0.238786 0.405579 0.522272 0.047949
C44   C     C_R   0.201908 0.413216 0.449687 -0.235526
H22   H     H_    0.181261 0.361687 0.386205 0.172889
C45   C     C_R   0.189900 0.485865 0.458724 0.358197
C46   C     C_R   0.217607 0.551920 0.542019 -0.223313
C47   C     C_R   0.186764 0.262488 0.515257 -0.203663
H23   H     H_    0.138643 0.273149 0.529132 0.153202
C48   C     C_R   0.187369 0.184026 0.499550 -0.011787
C49   C     C_R   0.246931 0.167171 0.478484 0.155016
C50   C     C_R   0.307227 0.231441 0.475370 -0.139116
H24   H     H_    0.354556 0.219802 0.460736 0.150028
C51   C     C_R   0.308113 0.311071 0.492904 -0.057731
C52   C     C_R   0.246307 0.326400 0.511354 0.054584
C53   C     C_R   0.291222 0.067252 0.520089 0.268689
C54   C     C_R   0.294946 0.988876 0.494517 -0.315470
H25   H     H_    0.330318 0.977597 0.543711 0.232595
C55   C     C_R   0.254607 0.925232 0.406594 0.283103
C56   C     C_R   0.210361 0.940631 0.343158 -0.269416
H26   H     H_    0.178752 0.891607 0.275233 0.206942
C57   C     C_R   0.204144 0.017312 0.365809 0.234971
C58   C     C_R   0.245318 0.081823 0.454918 -0.177642
C59   C     C_2   0.725966 0.459015 0.797335 0.370695
C60   C     C_2   0.813485 0.507957 0.828623 -0.506681
H27   H     H_    0.836903 0.561389 0.816471 0.162515
C61   C     C_2   0.667242 0.481227 0.746878 0.270197
C62   C     C_2   0.676920 0.489549 0.683162 -0.480698
H28   H     H_    0.725518 0.479090 0.670483 0.131733
O9    O     O_R   0.051990 0.908360 0.460320 -0.635646
O10   O     O_R   0.949210 0.908400 0.357560 -0.612837
C63   C     C_R   0.999592 0.877905 0.380710 0.872489
O11   O     O_R   0.959770 0.908340 0.551360 -0.616368
O12   O     O_R   0.856990 0.908380 0.448600 -0.631673
C64   C     C_R   0.879143 0.876480 0.495780 0.896286
Zn3   Zn    Zn3+2 0.068630 0.999950 0.568590 1.002546
Zn4   Zn    Zn3+2 0.931370 1.000000 0.431370 1.007920
O13   O     O_R   0.050790 0.091560 0.642400 -0.629717
O14   O     O_R   0.948010 0.091600 0.539640 -0.618146
O15   O     O_R   0.143010 0.091580 0.551350 -0.601298
O16   O     O_R   0.040230 0.091620 0.448600 -0.594884
C65   C     C_R   0.001190 0.121902 0.620175 0.875938
C66   C     C_R   0.120602 0.118487 0.499084 0.884633
O17   O     O_R   0.055540 0.460120 0.912140 -0.579873
O18   O     O_R   0.952100 0.356700 0.912170 -0.619880
C67   C     C_R   0.999086 0.379150 0.880337 0.857243
O19   O     O_R   0.145980 0.551740 0.094190 -0.603582
O20   O     O_R   0.042530 0.448320 0.094220 -0.621956
C68   C     C_R   0.122571 0.497117 0.119132 0.876510
Zn5   Zn    Zn3+2 0.072290 0.569090 0.003150 1.056529
Zn6   Zn    Zn3+2 0.934150 0.430980 0.003190 1.098674
O21   O     O_R   0.054350 0.643370 0.094170 -0.628736
O22   O     O_R   0.950900 0.539950 0.094200 -0.600764
O23   O     O_R   0.963910 0.551750 0.912120 -0.605310
O24   O     O_R   0.860470 0.448330 0.912150 -0.536781
C69   C     C_R   0.001456 0.621134 0.120227 0.885920
C70   C     C_R   0.882154 0.500298 0.884558 0.977584
H29   H     H_    0.106691 0.708262 0.604802 0.150073
C71   C     C_R   0.146636 0.794529 0.557601 -0.135904
H30   H     H_    0.208443 0.844245 0.618193 0.159196
C72   C     C_R   0.124722 0.806501 0.486571 0.002371
H31   H     H_    0.170617 0.864977 0.492890 0.154149
C73   C     C_R   0.044209 0.743075 0.407881 0.071140
C74   C     C_R   0.988546 0.665030 0.400237 -0.093244
H32   H     H_    0.928977 0.612870 0.338591 0.175251
C75   C     C_R   0.010656 0.652844 0.471160 0.004078
H33   H     H_    0.967126 0.592563 0.464658 0.175681
C76   C     C_R   0.089434 0.717853 0.550011 -0.146272
C77   C     C_R   0.022939 0.688287 0.262719 -0.152140
H34   H     H_    0.036950 0.638493 0.270278 0.181642
C78   C     C_R   0.005041 0.689913 0.186851 -0.045705
C79   C     C_R   0.989136 0.754765 0.175414 0.005139
C80   C     C_R   0.985834 0.814439 0.239799 -0.200367
H35   H     H_    0.971781 0.863647 0.230943 0.201817
C81   C     C_R   0.002951 0.812793 0.316255 -0.116013
C82   C     C_R   0.024139 0.750300 0.329280 -0.011690
C83   C     C_R   0.035939 0.778500 0.073715 -0.018911
H36   H     H_    0.102365 0.797906 0.118063 0.161825
C84   C     C_R   0.014758 0.769974 0.992899 -0.144891
H37   H     H_    0.064181 0.781721 0.974833 0.160803
C85   C     C_R   0.929473 0.744792 0.934738 -0.250167
H38   H     H_    0.913340 0.734788 0.871086 0.177753
C86   C     C_R   0.865769 0.732716 0.958760 0.332792
C87   C     C_R   0.886822 0.738704 0.039150 -0.184916
H39   H     H_    0.837548 0.726329 0.057286 0.218513
C88   C     C_R   0.970722 0.757999 0.095269 0.014682
C89   C     C_R   0.269944 0.209603 0.843119 -0.170791
H40   H     H_    0.284096 0.162242 0.855945 0.206484
C90   C     C_R   0.185248 0.195927 0.816450 -0.133770
H41   H     H_    0.135914 0.138734 0.809245 0.150195
C91   C     C_R   0.164093 0.254842 0.797769 0.061052
C92   C     C_R   0.229349 0.329296 0.809295 -0.269728
H42   H     H_    0.212601 0.375302 0.795989 0.213843
C93   C     C_R   0.315533 0.345699 0.838760 0.285464
C94   C     C_R   0.335840 0.283708 0.854134 0.393231
C95   C     C_R   0.071526 0.304978 0.836073 -0.210786
H43   H     H_    0.128360 0.350161 0.901679 0.178081
C96   C     C_R   0.996313 0.311252 0.813834 -0.023822
C97   C     C_R   0.923607 0.257441 0.728216 0.056854
C98   C     C_R   0.926026 0.193499 0.666740 -0.194962
H44   H     H_    0.869910 0.151098 0.600645 0.167919
C99   C     C_R   0.001763 0.187533 0.688170 -0.091929
C100  C     C_R   0.076335 0.244927 0.773603 0.039330
C101  C     C_R   0.764197 0.204885 0.662239 -0.122393
H45   H     H_    0.754093 0.146371 0.666857 0.186016
C102  C     C_R   0.691065 0.210478 0.619686 -0.001615
H46   H     H_    0.625411 0.157553 0.593198 0.183407
C103  C     C_R   0.702539 0.284406 0.611561 -0.157794
H47   H     H_    0.645807 0.288740 0.578660 0.159809
C104  C     C_R   0.787070 0.352284 0.644807 -0.217115
H48   H     H_    0.794679 0.407279 0.634690 0.176109
C105  C     C_R   0.861487 0.347547 0.686888 0.323360
C106  C     C_R   0.849788 0.272947 0.696460 -0.058442
N1    N     N_R   0.705035 0.634932 0.082367 0.222006
O25   O     O_R   0.671210 0.665613 0.036883 -0.298660
O26   O     O_R   0.726629 0.578115 0.048889 -0.327839
N2    N     N_R   0.781304 0.601959 0.337941 0.205198
O27   O     O_R   0.762679 0.521064 0.291830 -0.351647
O28   O     O_R   0.824853 0.641139 0.422312 -0.429128
N3    N     N_R   0.521236 0.940602 0.613538 0.226691
O29   O     O_R   0.509054 0.961954 0.678926 -0.348654
O30   O     O_R   0.576587 0.003265 0.611797 -0.411003
N4    N     N_R   0.229314 0.330637 0.043948 0.197117
O31   O     O_R   0.271978 0.415766 0.074751 -0.371624
O32   O     O_R   0.263148 0.283695 0.018858 -0.374044
N5    N     N_R   0.148546 0.491743 0.383762 0.195563
O33   O     O_R   0.139763 0.560153 0.392257 -0.408326
O34   O     O_R   0.116309 0.427169 0.305983 -0.431690
N6    N     N_R   0.656573 0.827855 0.653064 0.206321
O35   O     O_R   0.651045 0.842435 0.590224 -0.418515
O36   O     O_R   0.598322 0.825122 0.675526 -0.404335
N7    N     N_R   0.334166 0.130081 0.611906 0.226546
O37   O     O_R   0.351821 0.104211 0.667569 -0.359074
O38   O     O_R   0.360005 0.213871 0.641537 -0.313478
N8    N     N_R   0.257602 0.844539 0.381702 0.216307
O39   O     O_R   0.284432 0.822257 0.438727 -0.430055
O40   O     O_R   0.230894 0.791156 0.301257 -0.422280
N9    N     N_R   0.156263 0.028668 0.297395 0.212723
O41   O     O_R   0.152396 0.994314 0.223459 -0.394996
O42   O     O_R   0.107936 0.063800 0.304398 -0.395471
S1    S     S_3+6 0.675900 0.364789 0.805982 0.098699
O43   O     O_2   0.714579 0.306562 0.789340 -0.303332
O44   O     O_2   0.690284 0.396676 0.895917 -0.181481
O45   O     O_3   0.567154 0.302876 0.732801 -0.500969
H49   H     H_    0.545938 0.249944 0.738213 0.418814
S2    S     S_3+6 0.580815 0.484142 0.764584 0.210145
O46   O     O_2   0.592592 0.479634 0.844285 -0.066531
O47   O     O_2   0.580568 0.568218 0.777724 -0.159987
O48   O     O_3   0.482988 0.397064 0.678061 -0.458982
H50   H     H_    0.496319 0.363915 0.636519 0.324347
N10   N     N_R   0.780293 0.714406 0.901971 0.211268
O49   O     O_R   0.754451 0.691936 0.821470 -0.396233
O50   O     O_R   0.730084 0.726047 0.931929 -0.289437
S3    S     S_3+6 0.441129 0.295114 0.887505 0.141188
O51   O     O_2   0.477761 0.323857 0.837299 -0.119371
O52   O     O_2   0.501931 0.363347 0.982943 -0.225849
O53   O     O_3   0.434071 0.197559 0.870357 -0.530748
H51   H     H_    0.494096 0.208269 0.886001 0.403637
S4    S     S_3+6 0.393013 0.443284 0.853003 0.129757
O54   O     O_2   0.400350 0.418191 0.773570 -0.149765
O55   O     O_2   0.362283 0.509092 0.862372 -0.309709
O56   O     O_3   0.492596 0.491809 0.941191 -0.383962
H52   H     H_    0.484281 0.512672 0.991240 0.367756
N11   N     N_R   0.946818 0.416373 0.715031 0.202181
O57   O     O_R   0.004526 0.397001 0.705571 -0.378484
O58   O     O_R   0.962625 0.497056 0.739008 -0.390665
N12   N     N_R   0.590162 0.604832 0.340126 0.212373
O59   O     O_R   0.588949 0.540614 0.283031 -0.299712
O60   O     O_R   0.516250 0.601026 0.327811 -0.405569

loop_
_geom_bond_atom_site_label_1
_geom_bond_atom_site_label_2
_geom_bond_distance
_ccdc_geom_bond_type
O9    Zn3   2.017348 S    
N4    O32   1.300858 A    
N7    O37   1.302213 A    
C37   C38   1.395700 A    
C11   C16   1.380353 A    
C57   C58   1.419396 A    
O17   Zn5   2.004702 S    
C41   C46   1.397622 A    
N11   O58   1.301461 A    
C96   C97   1.405796 A    
C14   N12   1.438642 S    
O12   C64   1.272317 A    
C59   C60   1.360033 D    
Zn1   O5    2.014121 S    
C105  C106  1.419738 A    
C7    C16   1.486989 S    
O11   C64   1.281009 A    
C48   C49   1.405491 A    
N1    O25   1.301360 A    
C30   C68   1.422656 S    
C74   H32   1.081311 S    
C95   C96   1.388079 A    
C45   C46   1.406940 A    
S2    O48   1.682351 S    
Zn1   O7    2.006069 S    
C73   C82   1.486056 S    
N7    O38   1.300953 A    
S1    O43   1.501489 D    
C93   C94   1.420355 A    
O18   Zn6   2.030247 S    
C49   C58   1.482773 S    
C59   S1    1.791488 S    
C13   C14   1.396293 A    
C92   C93   1.401177 A    
C77   C78   1.387558 A    
C18   H7    1.082318 S    
C8    C9    1.393649 A    
O4    C2    1.287176 A    
O7    C4    1.276673 A    
N8    O40   1.301578 A    
N1    O26   1.301748 A    
C87   C88   1.401554 A    
C97   C98   1.383577 A    
C13   C22   1.483923 S    
C79   C80   1.383700 A    
C53   C58   1.422621 A    
C104  H48   1.080417 S    
S3    O53   1.682136 S    
O18   C67   1.276825 A    
C60   C70   1.453029 S    
S4    O56   1.680266 S    
N2    O28   1.301060 A    
C6    C7    1.420853 A    
C23   H9    1.082336 S    
C36   C37   1.393708 A    
O5    C3    1.281030 A    
O53   H51   0.990609 S    
C3    C62   1.438483 S    
O10   C63   1.288334 A    
C55   N8    1.439753 S    
H1    C10   1.082475 S    
C7    C8    1.407904 A    
C72   H31   1.077441 S    
C102  C103  1.393876 A    
C48   C66   1.427308 S    
O23   C70   1.295206 A    
N11   O57   1.301113 A    
O10   Zn4   2.017254 S    
C41   H20   1.082351 S    
N5    O33   1.301850 A    
C39   N4    1.438861 S    
C105  N11   1.440370 S    
O56   H52   0.990590 S    
C23   C24   1.396915 A    
C18   C19   1.403599 A    
C50   C51   1.397116 A    
O13   C65   1.270565 A    
C83   C88   1.403245 A    
C97   C106  1.479207 S    
C54   H25   1.082558 S    
C27   C28   1.406220 A    
N4    O31   1.301242 A    
C35   H15   1.082881 S    
C5    C10   1.393874 A    
C99   C100  1.416243 A    
C103  C104  1.395586 A    
C89   C90   1.394794 A    
O11   Zn3   2.011345 S    
Zn3   O13   2.017376 S    
H19   C46   1.082657 S    
S4    O54   1.499719 D    
O3    Zn1   2.031639 S    
C71   C76   1.396581 A    
C77   C82   1.381532 A    
C53   N7    1.445637 S    
O48   H50   0.989511 S    
C79   C88   1.480087 S    
N12   O60   1.300721 A    
C104  C105  1.404049 A    
C20   C21   1.405601 A    
O12   Zn4   2.026014 S    
C26   C27   1.397133 A    
C25   C34   1.478953 S    
C35   C36   1.395709 A    
C43   C44   1.404023 A    
C81   C82   1.420400 A    
C39   C40   1.416976 A    
C77   H34   1.086460 S    
C42   C43   1.401350 A    
C95   H43   1.085649 S    
C47   C48   1.392591 A    
N8    O39   1.300677 A    
N6    O35   1.300342 A    
C12   C64   1.428429 S    
C38   C39   1.406182 A    
C11   H5    1.086759 S    
C51   C52   1.411768 A    
C83   C84   1.393882 A    
C49   C50   1.385609 A    
Zn4   O16   2.011430 S    
N2    O27   1.301635 A    
O1    C1    1.274411 A    
C69   C78   1.425399 S    
C90   C91   1.398141 A    
C89   H40   1.082017 S    
Zn6   O24   2.021559 S    
C71   C72   1.397841 A    
C44   H22   1.083280 S    
N3    O30   1.301416 A    
Zn5   O23   2.006678 S    
C20   H8    1.082576 S    
C28   N3    1.439501 S    
N9    O42   1.300849 A    
C67   C96   1.423275 S    
C35   C40   1.405547 A    
C56   C57   1.401058 A    
C75   C76   1.396541 A    
O21   C69   1.273811 A    
C50   H24   1.084896 S    
H29   C76   1.082312 S    
S1    O45   1.680820 S    
C15   C16   1.417370 A    
Zn2   O8    2.031643 S    
C60   H27   1.085988 S    
C32   H14   1.085229 S    
N9    O41   1.301318 A    
C29   C34   1.381795 A    
C26   H11   1.083253 S    
C43   C52   1.479097 S    
S4    O55   1.503743 D    
C86   N10   1.435488 S    
C44   C45   1.408117 A    
C98   H44   1.085118 S    
C86   C87   1.404124 A    
C72   C73   1.405029 A    
O16   C66   1.276255 A    
C1    C33   1.435413 S    
C80   C81   1.400406 A    
C27   H12   1.082337 S    
C2    C15   1.441108 S    
C85   C86   1.404163 A    
C102  H46   1.082234 S    
C101  C102  1.396244 A    
C32   C33   1.398640 A    
C24   H10   1.080393 S    
C6    N6    1.435704 S    
C93   S4    1.769932 S    
C84   C85   1.394387 A    
C47   H23   1.085716 S    
O3    C2    1.273866 A    
S2    O47   1.500890 D    
C38   H18   1.079756 S    
C21   N2    1.441329 S    
Zn6   O22   2.004700 S    
C23   C28   1.406674 A    
C21   C22   1.417629 A    
C89   C94   1.404376 A    
C65   C99   1.440746 S    
C91   C92   1.397750 A    
O9    C63   1.270835 A    
O20   Zn6   2.006679 S    
C95   C100  1.382398 A    
N3    O29   1.301517 A    
C74   C75   1.398374 A    
O17   C67   1.278198 A    
N12   O59   1.300482 A    
C19   C20   1.404515 A    
O24   C70   1.273985 A    
S3    O51   1.501128 D    
N10   O50   1.301023 A    
O1    Zn1   2.014172 S    
Zn3   O15   2.026272 S    
Zn2   O6    2.014172 S    
O2    Zn2   2.014119 S    
C4    C51   1.439927 S    
C54   C55   1.401283 A    
C42   H21   1.083342 S    
O6    C3    1.279070 A    
C5    C6    1.407322 A    
C31   C32   1.383507 A    
O20   C68   1.272822 A    
C30   C31   1.405398 A    
C73   C74   1.403954 A    
C91   C100  1.478868 S    
C103  H47   1.082524 S    
C98   C99   1.394717 A    
C75   H33   1.082319 S    
C84   H37   1.082285 S    
C62   H28   1.082530 S    
C80   H35   1.084924 S    
C17   H6    1.083372 S    
N5    O34   1.300958 A    
C71   H30   1.082365 S    
O8    C4    1.284410 A    
C29   H13   1.086095 S    
C24   C25   1.401733 A    
C101  H45   1.083430 S    
C90   H41   1.082075 S    
C57   N9    1.441285 S    
C33   C34   1.414080 A    
C5    H2    1.082593 S    
C94   S3    1.770054 S    
S2    O46   1.501210 D    
S3    O52   1.502768 D    
Zn4   O14   2.017428 S    
O2    C1    1.284868 A    
O15   C66   1.275375 A    
C9    C10   1.391616 A    
C83   H36   1.082193 S    
C17   C22   1.401584 A    
O45   H49   0.990494 S    
C36   H16   1.082344 S    
O22   C69   1.281113 A    
O19   C68   1.281142 A    
Zn5   O21   2.030114 S    
C92   H42   1.083515 S    
S1    O44   1.503149 D    
C14   C15   1.412481 A    
C37   H17   1.082742 S    
C25   C26   1.402613 A    
C31   C40   1.482564 S    
C8    H3    1.083710 S    
C53   C54   1.406083 A    
N6    O36   1.300800 A    
C61   C62   1.345770 D    
C61   S2    1.785690 S    
O14   C65   1.288451 A    
C87   H39   1.081089 S    
C78   C79   1.405637 A    
O4    Zn2   2.006065 S    
C9    H4    1.081405 S    
C19   N1    1.439185 S    
C41   C42   1.396182 A    
C85   H38   1.078729 S    
C29   C30   1.387851 A    
C45   N5    1.439976 S    
N10   O49   1.300700 A    
O19   Zn5   2.021641 S    
C47   C52   1.383278 A    
C56   H26   1.080632 S    
C55   C56   1.397569 A    
C63   C81   1.439642 S    
C17   C18   1.395112 A    
C101  C106  1.405923 A    
C12   C13   1.406028 A    
C11   C12   1.383399 A    
C59   C61   1.472909 S    
