data_mof_unit_5856.cif
_audit_creation_date              2012-12-11T14:29:59-0500
_audit_creation_method            fapswitch 2.2
_symmetry_space_group_name_H-M    P1
_symmetry_Int_Tables_number       1
_space_group_crystal_system       triclinic
_cell_length_a                    12.772159
_cell_length_b                    12.772329
_cell_length_c                    27.415078
_cell_angle_alpha                 89.999598
_cell_angle_beta                  89.999495
_cell_angle_gamma                 120.000081
_cell_volume                      3873.05956646

loop_
_atom_site_label
_atom_site_type_symbol
_atom_type_description
_atom_site_fract_x
_atom_site_fract_y
_atom_site_fract_z
_atom_type_partial_charge
C1    C     C_R   0.557953 0.457964 0.821648 0.526655
C2    C     C_R   0.891064 0.436616 0.676398 0.542187
C3    C     C_R   0.542032 0.099987 0.821648 0.526651
C4    C     C_R   0.563384 0.454449 0.676398 0.542188
C5    C     C_R   0.900011 0.442045 0.821648 0.526651
C6    C     C_R   0.545551 0.108932 0.676399 0.542180
C7    C     C_R   0.457963 0.557957 0.321649 0.526675
C8    C     C_R   0.436619 0.891063 0.176399 0.542167
C9    C     C_R   0.099993 0.542037 0.321649 0.526668
C10   C     C_R   0.454445 0.563385 0.176398 0.542188
C11   C     C_R   0.442042 0.900005 0.321649 0.526673
C12   C     C_R   0.108925 0.545554 0.176401 0.542144
C13   C     C_R   0.009814 0.490357 0.972380 -0.002009
C14   C     C_R   0.502633 0.028325 0.523325 0.016162
C15   C     C_R   0.509631 0.519493 0.972373 -0.002003
C16   C     C_R   0.971660 0.474297 0.523323 0.016162
C17   C     C_R   0.480496 0.990137 0.972373 -0.001986
C18   C     C_R   0.525697 0.497363 0.523324 0.016158
C19   C     C_R   0.490357 0.009850 0.472374 -0.002030
C20   C     C_R   0.028286 0.502649 0.023333 0.016219
C21   C     C_R   0.519496 0.509638 0.472372 -0.002033
C22   C     C_R   0.474304 0.971657 0.023324 0.016267
C23   C     C_R   0.990136 0.480498 0.472371 -0.002035
C24   C     C_R   0.497347 0.525689 0.023325 0.016226
C25   C     C_R   0.124172 0.708549 0.963033 -0.057184
C26   C     C_R   0.720843 0.142828 0.513644 -0.066104
C27   C     C_R   0.291439 0.415593 0.963037 -0.057172
C28   C     C_R   0.857170 0.578014 0.513644 -0.066103
C29   C     C_R   0.584339 0.875786 0.963028 -0.057170
C30   C     C_R   0.421984 0.279156 0.513646 -0.066100
C31   C     C_R   0.708549 0.124069 0.463042 -0.057173
C32   C     C_R   0.142951 0.720858 0.013634 -0.066169
C33   C     C_R   0.415519 0.291449 0.463044 -0.057173
C34   C     C_R   0.577867 0.857008 0.013628 -0.066199
C35   C     C_R   0.875927 0.584479 0.463043 -0.057180
C36   C     C_R   0.279136 0.422061 0.013638 -0.066167
C37   C     C_R   0.026522 0.579504 0.891671 -0.151941
C38   C     C_R   0.629712 0.108099 0.594842 -0.103473
C39   C     C_R   0.420481 0.447003 0.891670 -0.151948
C40   C     C_R   0.891898 0.521610 0.594841 -0.103471
C41   C     C_R   0.552965 0.973457 0.891666 -0.151926
C42   C     C_R   0.478387 0.370287 0.594842 -0.103472
C43   C     C_R   0.579514 0.026491 0.391672 -0.151965
C44   C     C_R   0.108180 0.629752 0.094840 -0.103498
C45   C     C_R   0.446976 0.420483 0.391672 -0.151967
C46   C     C_R   0.521529 0.891783 0.094833 -0.103515
C47   C     C_R   0.973502 0.553022 0.391671 -0.151980
C48   C     C_R   0.370258 0.478419 0.094840 -0.103503
C49   C     C_R   0.067121 0.527065 0.124966 0.022266
C50   C     C_R   0.464087 0.946006 0.372856 -0.012240
C51   C     C_R   0.472942 0.540106 0.124959 0.022281
C52   C     C_R   0.053989 0.518081 0.372854 -0.012236
C53   C     C_R   0.459902 0.932841 0.124959 0.022317
C54   C     C_R   0.481916 0.535908 0.372855 -0.012238
C55   C     C_R   0.527038 0.067142 0.624961 0.022235
C56   C     C_R   0.946000 0.464083 0.872858 -0.012245
C57   C     C_R   0.540111 0.472960 0.624959 0.022232
C58   C     C_R   0.518072 0.053986 0.872855 -0.012249
C59   C     C_R   0.932848 0.459886 0.624959 0.022241
C60   C     C_R   0.535906 0.481919 0.872855 -0.012249
C61   C     C_R   0.054955 0.593584 0.941990 0.036296
C62   C     C_R   0.618417 0.094097 0.544057 0.052847
C63   C     C_R   0.406403 0.461367 0.941988 0.036305
C64   C     C_R   0.905894 0.524313 0.544056 0.052846
C65   C     C_R   0.538597 0.945010 0.941984 0.036339
C66   C     C_R   0.475683 0.381581 0.544058 0.052845
C67   C     C_R   0.593588 0.054922 0.441991 0.036249
C68   C     C_R   0.094152 0.618441 0.044056 0.052838
C69   C     C_R   0.461334 0.406408 0.441991 0.036249
C70   C     C_R   0.524238 0.905800 0.044049 0.052838
C71   C     C_R   0.945069 0.538662 0.441990 0.036236
C72   C     C_R   0.381559 0.475717 0.044055 0.052833
C73   C     C_R   0.899337 0.362530 0.904679 0.006545
C74   C     C_R   0.409426 0.008597 0.603125 0.005998
C75   C     C_R   0.637459 0.536837 0.904673 0.006577
C76   C     C_R   0.991379 0.400808 0.603120 0.005998
C77   C     C_R   0.463167 0.100634 0.904675 0.006561
C78   C     C_R   0.599186 0.590570 0.603121 0.005990
C79   C     C_R   0.362530 0.899392 0.404672 0.006588
C80   C     C_R   0.008459 0.409439 0.103140 0.006057
C81   C     C_R   0.536852 0.637461 0.404671 0.006603
C82   C     C_R   0.400906 0.991468 0.103131 0.006077
C83   C     C_R   0.100606 0.463145 0.404670 0.006608
C84   C     C_R   0.590556 0.599143 0.103124 0.006031
C85   C     C_R   0.942850 0.374072 0.952262 -0.013809
C86   C     C_R   0.398641 0.976264 0.553515 0.013786
C87   C     C_R   0.625911 0.568833 0.952249 -0.013836
C88   C     C_R   0.023715 0.422359 0.553511 0.013776
C89   C     C_R   0.431175 0.057098 0.952253 -0.013818
C90   C     C_R   0.577633 0.601354 0.553512 0.013771
C91   C     C_R   0.374080 0.942943 0.452247 -0.013833
C92   C     C_R   0.976131 0.398665 0.053532 0.013928
C93   C     C_R   0.568861 0.625913 0.452244 -0.013840
C94   C     C_R   0.422456 0.023794 0.053521 0.013963
C95   C     C_R   0.057045 0.431132 0.452243 -0.013839
C96   C     C_R   0.601337 0.577580 0.053517 0.013887
C97   C     C_R   0.900596 0.285184 0.032234 0.259733
C98   C     C_R   0.271979 0.904405 0.482506 0.241380
C99   C     C_R   0.714825 0.615580 0.032212 0.259768
C100  C     C_R   0.095585 0.367569 0.482500 0.241388
C101  C     C_R   0.384486 0.099307 0.032220 0.259767
C102  C     C_R   0.632423 0.728015 0.482501 0.241388
C103  C     C_R   0.285152 0.900815 0.532207 0.259713
C104  C     C_R   0.904217 0.271972 0.982536 0.241357
C105  C     C_R   0.615671 0.714843 0.532203 0.259716
C106  C     C_R   0.367679 0.095701 0.982522 0.241363
C107  C     C_R   0.099165 0.384319 0.532202 0.259719
C108  C     C_R   0.728014 0.632358 0.982512 0.241368
Cr1   Cr    Cr6+3 0.487630 0.241180 0.750000 1.022695
Cr2   Cr    Cr6+3 0.753550 0.512370 0.750000 1.022697
Cr3   Cr    Cr6+3 0.758820 0.246450 0.750000 1.022694
Cr4   Cr    Cr6+3 0.241180 0.487630 0.250000 1.022705
Cr5   Cr    Cr6+3 0.512370 0.753550 0.250000 1.022705
Cr6   Cr    Cr6+3 0.246450 0.758820 0.250000 1.022697
H1    H     H_    0.158914 0.719085 0.110568 0.119588
H2    H     H_    0.657880 0.060464 0.368083 0.130036
H3    H     H_    0.280929 0.439747 0.110574 0.119625
H4    H     H_    0.939531 0.597415 0.368082 0.130038
H5    H     H_    0.560139 0.841063 0.110560 0.119552
H6    H     H_    0.402584 0.342118 0.368084 0.130038
H7    H     H_    0.719034 0.158731 0.610575 0.119622
H8    H     H_    0.060538 0.657868 0.868077 0.130010
H9    H     H_    0.439688 0.280967 0.610577 0.119637
H10   H     H_    0.597320 0.939449 0.868073 0.130010
H11   H     H_    0.841278 0.560310 0.610576 0.119629
H12   H     H_    0.342117 0.402632 0.868079 0.130015
H13   H     H_    0.193871 0.810656 0.029085 0.117435
H14   H     H_    0.789110 0.160681 0.440618 0.153036
H15   H     H_    0.189341 0.383159 0.029093 0.117461
H16   H     H_    0.839321 0.628434 0.440620 0.153040
H17   H     H_    0.616749 0.806093 0.029080 0.117413
H18   H     H_    0.371566 0.210889 0.440621 0.153038
H19   H     H_    0.810633 0.193680 0.529102 0.117519
H20   H     H_    0.160836 0.789107 0.940603 0.152932
H21   H     H_    0.383044 0.189367 0.529105 0.117523
H22   H     H_    0.628237 0.839125 0.940599 0.152931
H23   H     H_    0.806323 0.616956 0.529104 0.117523
H24   H     H_    0.210879 0.371672 0.940611 0.152956
O1    O     O_R   0.460870 0.120930 0.805240 -0.501421
O2    O     O_R   0.660060 0.539130 0.694760 -0.532688
O3    O     O_R   0.879070 0.339940 0.805240 -0.501421
O4    O     O_R   0.460870 0.120930 0.694760 -0.532693
O5    O     O_R   0.660060 0.539130 0.805240 -0.501419
O6    O     O_R   0.879070 0.339940 0.694760 -0.532689
O7    O     O_R   0.120930 0.460870 0.305240 -0.501419
O8    O     O_R   0.539130 0.660060 0.194760 -0.532700
O9    O     O_R   0.339940 0.879070 0.305240 -0.501433
O10   O     O_R   0.120930 0.460870 0.194760 -0.532714
O11   O     O_R   0.539130 0.660060 0.305240 -0.501417
O12   O     O_R   0.339940 0.879070 0.194760 -0.532714
O13   O     O_R   0.498910 0.350470 0.801870 -0.511477
O14   O     O_R   0.851560 0.501090 0.698130 -0.497811
O15   O     O_R   0.649530 0.148440 0.801870 -0.511475
O16   O     O_R   0.498910 0.350470 0.698130 -0.497810
O17   O     O_R   0.851560 0.501090 0.801870 -0.511472
O18   O     O_R   0.649530 0.148440 0.698130 -0.497811
O19   O     O_R   0.350470 0.498910 0.301870 -0.511475
O20   O     O_R   0.501090 0.851560 0.198130 -0.497796
O21   O     O_R   0.148440 0.649530 0.301870 -0.511484
O22   O     O_R   0.350470 0.498910 0.198130 -0.497788
O23   O     O_R   0.501090 0.851560 0.301870 -0.511476
O24   O     O_R   0.148440 0.649530 0.198130 -0.497788
O25   O     O_3   0.666667 0.333333 0.750000 -0.256059
O26   O     O_3   0.333333 0.666667 0.250000 -0.256062
C109  C     C_3   0.998676 0.298828 0.129309 -0.317458
H25   H     H_    0.088903 0.315320 0.140469 0.141473
H26   H     H_    0.936249 0.273201 0.160938 0.183740
H27   H     H_    0.971123 0.218746 0.106062 0.184329
C110  C     C_3   0.251764 0.780180 0.393314 -0.302990
H28   H     H_    0.277335 0.725418 0.371116 0.114615
H29   H     H_    0.212617 0.724089 0.426472 0.163771
H30   H     H_    0.183365 0.794584 0.374244 0.214373
C111  C     C_3   0.701150 0.700033 0.129277 -0.317438
H31   H     H_    0.684608 0.773678 0.140498 0.141484
H32   H     H_    0.726959 0.663282 0.160856 0.183819
H33   H     H_    0.781103 0.752672 0.105995 0.184265
C112  C     C_3   0.219838 0.471626 0.393319 -0.303003
H34   H     H_    0.274587 0.551948 0.371113 0.114606
H35   H     H_    0.275926 0.488610 0.426479 0.163732
H36   H     H_    0.205464 0.388825 0.374261 0.214379
C113  C     C_3   0.300059 0.001227 0.129298 -0.317439
H37   H     H_    0.226359 0.911017 0.140485 0.141492
H38   H     H_    0.336850 0.063708 0.160907 0.183774
H39   H     H_    0.247478 0.028685 0.106040 0.184314
C114  C     C_3   0.528377 0.748214 0.393318 -0.302997
H40   H     H_    0.448052 0.722638 0.371115 0.114603
H41   H     H_    0.511394 0.787322 0.426478 0.163737
H42   H     H_    0.611178 0.816638 0.374257 0.214380
C115  C     C_3   0.298842 0.998910 0.629281 -0.317415
H43   H     H_    0.315397 0.089095 0.640507 0.141492
H44   H     H_    0.218894 0.971620 0.606001 0.184297
H45   H     H_    0.273022 0.936342 0.660857 0.183793
C116  C     C_3   0.780117 0.251788 0.893313 -0.303004
H46   H     H_    0.725407 0.277367 0.871088 0.114652
H47   H     H_    0.794511 0.183353 0.874272 0.214380
H48   H     H_    0.723977 0.212699 0.926465 0.163754
C117  C     C_3   0.700091 0.701151 0.629273 -0.317413
H49   H     H_    0.773711 0.684588 0.640507 0.141488
H50   H     H_    0.752762 0.781080 0.605987 0.184288
H51   H     H_    0.663349 0.726993 0.660844 0.183808
C118  C     C_3   0.471646 0.219859 0.893316 -0.303005
H52   H     H_    0.551945 0.274584 0.871096 0.114638
H53   H     H_    0.388825 0.205476 0.874270 0.214375
H54   H     H_    0.488675 0.275977 0.926470 0.163755
C119  C     C_3   0.001051 0.299901 0.629274 -0.317410
H55   H     H_    0.910867 0.226284 0.640508 0.141489
H56   H     H_    0.028305 0.247226 0.605988 0.184287
H57   H     H_    0.063637 0.336639 0.660844 0.183809
C120  C     C_3   0.748211 0.528363 0.893317 -0.302986
H58   H     H_    0.722636 0.448055 0.871104 0.114618
H59   H     H_    0.816643 0.611175 0.874264 0.214383
H60   H     H_    0.787309 0.511351 0.926474 0.163744
Cl1   Cl    Cl    0.776559 0.167682 0.063881 -0.571107
Cl2   Cl    Cl    0.127643 0.868653 0.460231 -0.541860
Cl3   Cl    Cl    0.832434 0.609296 0.063868 -0.571102
Cl4   Cl    Cl    0.131344 0.258994 0.460223 -0.541841
Cl5   Cl    Cl    0.390920 0.223286 0.063870 -0.571100
Cl6   Cl    Cl    0.741000 0.872351 0.460222 -0.541842
Cl7   Cl    Cl    0.167516 0.776939 0.563856 -0.571248
Cl8   Cl    Cl    0.868387 0.127587 0.960292 -0.542013
Cl9   Cl    Cl    0.609460 0.832488 0.563855 -0.571238
Cl10  Cl    Cl    0.259118 0.131512 0.960268 -0.542001
Cl11  Cl    Cl    0.223018 0.390521 0.563854 -0.571237
Cl12  Cl    Cl    0.872372 0.740927 0.960246 -0.541910

loop_
_geom_bond_atom_site_label_1
_geom_bond_atom_site_label_2
_ccdc_geom_bond_type
C44   C49   A    
C4    O16   A    
C109  H25   S    
C82   C94   A    
C73   C116  S    
C52   C83   A    
C18   C21   A    
C2    O6    A    
C118  H52   S    
C5    C56   S    
C11   O23   A    
C6    C55   S    
C8    O20   A    
C50   C79   A    
C12   C49   S    
C113  H37   S    
C78   C90   A    
C31   C67   A    
C99   C108  A    
C20   C92   A    
C82   C113  S    
C77   C89   A    
C99   Cl3   S    
C32   H13   S    
Cr1   O13   S    
C41   C58   A    
Cr2   O14   S    
C24   C96   A    
C108  Cl12  S    
C114  H41   S    
C9    O21   A    
C98   C103  A    
C14   C62   A    
C96   C99   A    
Cr6   O9    S    
C3    O15   A    
C120  H60   S    
Cr4   O7    S    
C87   C108  A    
C102  C105  A    
C115  H44   S    
C84   C96   A    
C117  H50   S    
C104  Cl8   S    
Cr2   O17   S    
C58   C77   A    
C120  H59   S    
C7    O11   A    
C55   C74   A    
C5    O3    A    
C48   C51   A    
C75   C120  S    
C38   C55   A    
C94   C101  A    
C116  H47   S    
C89   C106  A    
C42   H9    S    
Cr2   O5    S    
C42   C66   A    
C19   C67   A    
Cr1   O4    S    
C119  H55   S    
C78   C117  S    
Cr5   O20   S    
C6    O4    A    
Cr4   O22   S    
Cr3   O18   S    
C34   C70   A    
C1    O13   A    
C79   C91   A    
C13   C20   A    
C33   C69   A    
C32   C68   A    
C116  H48   S    
C25   C32   A    
C119  H56   S    
C98   Cl2   S    
C35   C71   A    
C26   C31   A    
C109  H26   S    
C40   C59   A    
C97   Cl1   S    
C118  H53   S    
C115  H43   S    
C9    C52   S    
C31   H14   S    
C48   C72   A    
C86   C103  A    
C14   C19   A    
C42   C57   A    
C81   C114  S    
C92   C97   A    
C107  Cl11  S    
C111  H32   S    
C24   C72   A    
C2    O14   A    
Cr4   O26   S    
C16   C88   A    
C27   H24   S    
Cr4   O19   S    
C83   C112  S    
C45   C69   A    
C115  H45   S    
C18   C90   A    
C110  H28   S    
C23   C71   A    
C17   C89   A    
C14   C86   A    
Cr1   O25   S    
C113  H38   S    
C88   C107  A    
Cr3   O3    S    
C2    C59   S    
C114  H42   S    
C41   C65   A    
Cr6   O24   S    
C112  H35   S    
C111  H31   S    
Cr5   O23   S    
C29   C34   A    
C44   H1    S    
C22   C94   A    
Cr4   O10   S    
C21   C69   A    
C53   C82   A    
C47   H4    S    
Cr5   O8    S    
C80   C92   A    
C117  H51   S    
C8    O12   A    
C1    O5    A    
Cr5   O11   S    
C43   H2    S    
C4    O2    A    
C74   C115  S    
C81   C93   A    
Cr6   O26   S    
C112  H36   S    
C83   C95   A    
C120  H58   S    
Cr3   O25   S    
C25   C61   A    
C74   C86   A    
C25   H20   S    
Cr3   O15   S    
C35   H16   S    
C47   C71   A    
C30   C66   A    
C85   C104  A    
C27   C63   A    
Cr3   O6    S    
C10   O8    A    
C29   C65   A    
C39   C60   A    
C28   C64   A    
C45   H6    S    
C75   C87   A    
C15   C24   A    
C34   H17   S    
C30   H21   S    
C16   C23   A    
C109  H27   S    
C118  H54   S    
C1    C60   S    
C3    O1    A    
Cr6   O12   S    
C13   C85   A    
C84   C111  S    
C10   O22   A    
C80   C109  S    
C76   C119  S    
C41   H10   S    
C15   C87   A    
C73   C85   A    
C119  H57   S    
C101  C106  A    
C28   C35   A    
C76   C88   A    
C33   H18   S    
C100  Cl4   S    
C100  C107  A    
C56   C73   A    
C113  H39   S    
C30   C33   A    
C95   C100  A    
C93   C102  A    
C57   C78   A    
C20   C68   A    
C19   C91   A    
Cr1   O16   S    
C28   H23   S    
C90   C105  A    
C77   C118  S    
C8    C53   S    
C45   C54   A    
C37   C61   A    
Cr2   O25   S    
C43   C50   A    
C48   H3    S    
C7    O19   A    
C27   C36   A    
C18   C66   A    
C39   C63   A    
C16   C64   A    
C60   C75   A    
C17   C65   A    
C17   C22   A    
C40   C64   A    
C49   C80   A    
C97   C104  A    
Cr1   O1    S    
C10   C51   S    
C12   O10   A    
C112  H34   S    
Cr2   O2    S    
C26   C62   A    
C26   H19   S    
C5    O17   A    
C36   H15   S    
Cr5   O26   S    
C79   C110  S    
C114  H40   S    
C106  Cl10  S    
C21   C93   A    
C105  Cl9   S    
C40   H11   S    
C59   C76   A    
C46   C53   A    
C9    O7    A    
C111  H33   S    
C23   C95   A    
C46   H5    S    
C11   C50   S    
C91   C98   A    
C117  H49   S    
Cr6   O21   S    
C46   C70   A    
C38   H7    S    
C44   C68   A    
C102  Cl6   S    
C12   O24   A    
C37   H8    S    
C3    C58   S    
C101  Cl5   S    
C29   H22   S    
C13   C61   A    
C43   C67   A    
C116  H46   S    
C47   C52   A    
C37   C56   A    
C39   H12   S    
C15   C63   A    
C110  H30   S    
C11   O9    A    
C7    C54   S    
C51   C84   A    
C22   C70   A    
C54   C81   A    
C6    O18   A    
C36   C72   A    
C4    C57   S    
C103  Cl7   S    
C38   C62   A    
C110  H29   S    
