data_mof_unit_26294.cif
_audit_creation_date              2012-12-10T19:44:40-0500
_audit_creation_method            fapswitch 2.2
_symmetry_space_group_name_H-M    P1
_symmetry_Int_Tables_number       1
_space_group_crystal_system       triclinic
_cell_length_a                    8.573651
_cell_length_b                    15.001322
_cell_length_c                    14.197375
_cell_angle_alpha                 89.449331
_cell_angle_beta                  98.340437
_cell_angle_gamma                 90.531669
_cell_volume                      1806.5576646

loop_
_atom_site_label
_atom_site_type_symbol
_atom_type_description
_atom_site_fract_x
_atom_site_fract_y
_atom_site_fract_z
_atom_type_partial_charge
C1    C     C_R   0.500829 0.328354 0.500567 0.922205
C2    C     C_R   0.433256 0.430422 0.890413 -0.392199
C3    C     C_R   0.493515 0.502141 0.052833 -0.001325
C4    C     C_R   0.494375 0.503136 0.946106 -0.004627
C5    C     C_R   0.201205 0.499286 0.475250 0.949349
C6    C     C_R   0.798828 0.500049 0.524778 0.982731
C7    C     C_2   0.036341 0.496825 0.461943 -0.364150
C8    C     C_2   0.963773 0.501289 0.538184 -0.375009
C9    C     C_R   0.616275 0.095180 0.561020 -0.278615
C10   C     C_R   0.461370 0.909641 0.414821 -0.277472
C11   C     C_R   0.617492 0.187844 0.562759 0.523972
C12   C     C_R   0.498342 0.672494 0.499337 0.891297
C13   C     C_R   0.463055 0.817125 0.411987 0.524404
C14   C     C_R   0.500623 0.233428 0.502163 -0.107204
C15   C     C_R   0.496186 0.768987 0.498341 -0.142054
C16   C     C_R   0.379792 0.188556 0.444808 -0.276235
C17   C     C_R   0.528729 0.813707 0.585314 -0.275275
C18   C     C_R   0.375211 0.096682 0.446738 -0.164626
C19   C     C_R   0.527464 0.905537 0.587088 -0.178552
C20   C     C_R   0.494511 0.049882 0.503845 0.070896
C21   C     C_R   0.494412 0.953540 0.501930 0.078738
C22   C     C_3   0.736274 0.222473 0.712431 -0.295500
C23   C     C_R   0.362838 0.470661 0.094588 0.388396
C24   C     C_3   0.535821 0.783857 0.268289 -0.282259
C25   C     C_3   0.129068 0.514466 0.012351 0.100712
C26   C     C_3   0.975087 0.482000 0.955758 -0.820522
C27   C     C_3   0.492926 0.710274 0.952985 0.106239
C28   C     C_3   0.561250 0.797468 0.995183 -0.845519
C29   C     C_3   0.857531 0.624455 0.235878 -0.400187
C30   C     C_3   0.205073 0.349257 0.745806 -0.303187
C31   C     C_R   0.556363 0.575817 0.898157 0.372088
C32   C     C_R   0.371876 0.467386 0.194534 -0.201260
C33   C     C_R   0.562277 0.570991 0.799585 -0.215893
C34   C     C_R   0.624334 0.537006 0.214813 0.660116
C35   C     C_R   0.430054 0.431480 0.790419 0.631558
C36   C     C_R   0.624904 0.533731 0.114492 -0.426191
H1    H     H_    0.975261 0.490765 0.389648 0.213601
H2    H     H_    0.614255 0.625524 0.764246 0.174846
H3    H     H_    0.726830 0.555160 0.083476 0.211717
H4    H     H_    0.389487 0.372351 0.924315 0.212748
H5    H     H_    0.617879 0.237985 0.731320 0.200466
H6    H     H_    0.822043 0.269281 0.752266 0.184031
H7    H     H_    0.771609 0.153799 0.736007 0.148374
H8    H     H_    0.509383 0.737551 0.207512 0.193025
H9    H     H_    0.654201 0.766181 0.306882 0.176982
H10   H     H_    0.537535 0.852647 0.238700 0.145962
H11   H     H_    0.186144 0.561558 0.966460 0.130853
H12   H     H_    0.025039 0.506998 0.610516 0.171396
H13   H     H_    0.100995 0.550536 0.075979 0.129319
H14   H     H_    0.912023 0.437206 0.000580 0.255848
H15   H     H_    0.899006 0.539886 0.932406 0.229720
H16   H     H_    0.998913 0.445247 0.891901 0.245327
H17   H     H_    0.411608 0.682391 0.000403 0.133228
H18   H     H_    0.425115 0.725178 0.881514 0.132846
H19   H     H_    0.636994 0.829070 0.946900 0.255303
H20   H     H_    0.464363 0.843695 0.004546 0.208410
H21   H     H_    0.633267 0.784919 0.065464 0.244553
H22   H     H_    0.801436 0.675834 0.185286 0.171389
H23   H     H_    0.711695 0.058775 0.602242 0.147334
H24   H     H_    0.933124 0.578852 0.201426 0.172948
H25   H     H_    0.935724 0.660137 0.292652 0.209947
H26   H     H_    0.146657 0.309506 0.684986 0.210846
H27   H     H_    0.193666 0.311149 0.811945 0.163831
H28   H     H_    0.141152 0.413658 0.744845 0.147141
H29   H     H_    0.433980 0.947099 0.348985 0.146371
H30   H     H_    0.288231 0.224774 0.399814 0.163800
H31   H     H_    0.555168 0.777834 0.652244 0.176141
H32   H     H_    0.279187 0.062201 0.403519 0.149672
H33   H     H_    0.550774 0.939078 0.654991 0.142726
H34   H     H_    0.273370 0.440705 0.225821 0.176844
N1    N     N_R   0.500000 0.499980 0.252470 -0.145000
N2    N     N_R   0.500000 0.500020 0.747530 -0.147072
O1    O     O_R   0.500010 0.369070 0.579480 -0.544943
O2    O     O_3   0.416875 0.773833 0.326646 -0.600552
O3    O     O_3   0.226884 0.440605 0.039321 -0.614487
O4    O     O_3   0.617301 0.650737 0.946496 -0.622432
O5    O     O_3   0.744608 0.575662 0.278548 -0.584578
O6    O     O_3   0.365210 0.361135 0.735275 -0.594110
O7    O     O_R   0.499990 0.630930 0.420520 -0.545986
O8    O     O_R   0.500010 0.369060 0.420520 -0.636732
O9    O     O_R   0.499990 0.630940 0.579480 -0.650831
O10   O     O_R   0.271750 0.500000 0.560890 -0.598526
O11   O     O_R   0.728250 0.500000 0.439110 -0.560300
O12   O     O_R   0.271750 0.499990 0.401930 -0.640172
O13   O     O_R   0.728250 0.500010 0.598070 -0.630317
O14   O     O_3   0.741199 0.234512 0.614248 -0.622023
Zn1   Zn    Zn3+2 0.500000 0.500010 0.606140 0.982192
Zn2   Zn    Zn3+2 0.500000 0.499990 0.393860 1.003484

loop_
_geom_bond_atom_site_label_1
_geom_bond_atom_site_label_2
_ccdc_geom_bond_type
C2    C35   A    
C30   H28   S    
C3    C23   A    
C28   H20   S    
C27   H18   S    
C7    C8    D    
C28   H21   S    
C6    O13   A    
C24   H9    S    
C19   C21   A    
C26   H14   S    
C34   O5    S    
C11   C14   A    
C22   H5    S    
C11   O14   S    
C18   H32   S    
O10   Zn1   S    
C12   O7    A    
O1    Zn1   S    
C33   N2    A    
C31   C33   A    
C25   H11   S    
C18   C20   A    
O11   Zn2   S    
C30   H27   S    
O7    Zn2   S    
C28   H19   S    
C32   N1    A    
O13   Zn1   S    
C10   C21   A    
C29   H25   S    
C17   H31   S    
C5    C7    S    
C5    O12   A    
C32   H34   S    
C25   C26   S    
C25   O3    S    
C2    C4    A    
C8    H12   S    
C26   H16   S    
C9    C20   A    
C22   H7    S    
C29   H24   S    
C7    H1    S    
C20   C21   S    
C9    C11   A    
O9    Zn1   S    
C35   N2    A    
C12   C15   S    
C30   H26   S    
C24   H8    S    
C14   C16   A    
C19   H33   S    
C16   H30   S    
C3    C4    S    
N2    Zn1   S    
C29   H22   S    
C10   H29   S    
C15   C17   A    
C6    O11   A    
C36   H3    S    
O12   Zn2   S    
C23   O3    S    
C10   C13   A    
C6    C8    S    
C27   H17   S    
C35   O6    S    
C33   H2    S    
C24   H10   S    
C23   C32   A    
C13   C15   A    
C1    O1    A    
O8    Zn2   S    
C26   H15   S    
C5    O10   A    
C24   O2    S    
C31   O4    S    
C22   H6    S    
C3    C36   A    
C17   C19   A    
C12   O9    A    
C34   C36   A    
C22   O14   S    
C25   H13   S    
C4    C31   A    
N1    Zn2   S    
C30   O6    S    
C2    H4    S    
C29   O5    S    
C13   O2    S    
C16   C18   A    
C27   C28   S    
C1    O8    A    
C1    C14   S    
C9    H23   S    
C34   N1    A    
C27   O4    S    
