data_mof_unit_54246.cif
_audit_creation_date              2012-12-11T17:01:17-0500
_audit_creation_method            fapswitch 2.2
_symmetry_space_group_name_H-M    P1
_symmetry_Int_Tables_number       1
_space_group_crystal_system       triclinic
_cell_length_a                    19.393649
_cell_length_b                    7.102912
_cell_length_c                    17.559318
_cell_angle_alpha                 89.999585
_cell_angle_beta                  108.586951
_cell_angle_gamma                 89.99916
_cell_volume                      2292.65714252

loop_
_atom_site_label
_atom_site_type_symbol
_atom_type_description
_atom_site_fract_x
_atom_site_fract_y
_atom_site_fract_z
_atom_type_partial_charge
O1    O     O_R   0.413720 0.494330 0.415730 -0.537558
O2    O     O_R   0.586280 0.994330 0.584270 -0.537558
O3    O     O_R   0.560210 0.819300 0.430070 -0.542339
O4    O     O_R   0.439790 0.319300 0.569930 -0.542343
C1    C     C_R   0.581580 0.655404 0.414585 0.716807
C2    C     C_R   0.418421 0.155406 0.585416 0.716808
O5    O     O_R   0.412670 0.823730 0.406310 -0.539340
O6    O     O_R   0.587330 0.323730 0.593690 -0.539339
O7    O     O_R   0.437690 0.998790 0.560340 -0.541034
O8    O     O_R   0.562310 0.498790 0.439660 -0.541034
C3    C     C_R   0.385519 0.655218 0.383270 0.695370
C4    C     C_R   0.614481 0.155216 0.616729 0.695372
O9    O     O_3   0.508380 0.662350 0.550560 -0.374513
O10   O     O_3   0.491620 0.162350 0.449440 -0.374513
V1    V     V_3+5 0.498450 0.935370 0.490620 1.397421
V2    V     V_3+5 0.501550 0.435370 0.509380 1.397421
C5    C     C_R   0.695696 0.001352 0.743097 0.075326
C6    C     C_R   0.304306 0.501352 0.256904 0.075341
C7    C     C_R   0.681859 0.147783 0.686730 -0.097608
C8    C     C_R   0.318141 0.647786 0.313268 -0.097609
C9    C     C_R   0.733531 0.294628 0.701799 -0.147124
C10   C     C_R   0.266468 0.794632 0.298197 -0.147128
H1    H     H_    0.724597 0.414514 0.661805 0.114139
H2    H     H_    0.275401 0.914521 0.338189 0.114140
C11   C     C_R   0.799665 0.282313 0.765736 -0.123518
C12   C     C_R   0.200334 0.782313 0.234262 -0.123508
H3    H     H_    0.839346 0.393753 0.773258 0.113617
H4    H     H_    0.160651 0.893753 0.226738 0.113619
C13   C     C_R   0.815771 0.123524 0.816810 -0.113525
C14   C     C_R   0.184229 0.623520 0.183190 -0.113534
C15   C     C_R   0.760355 0.990352 0.806394 0.111632
C16   C     C_R   0.239647 0.490349 0.193607 0.111630
C17   C     C_3   0.760684 0.779930 0.804679 -0.191247
C18   C     C_3   0.239319 0.279927 0.195327 -0.191269
C19   C     C_3   0.689410 0.792337 0.734641 -0.442904
C20   C     C_3   0.310593 0.292337 0.265365 -0.442910
H5    H     H_    0.806649 0.721372 0.787279 0.099058
H6    H     H_    0.193354 0.221378 0.212728 0.099057
H7    H     H_    0.640831 0.737865 0.748219 0.184689
H8    H     H_    0.359172 0.237858 0.251788 0.184683
H9    H     H_    0.694697 0.743142 0.676679 0.164803
H10   H     H_    0.305306 0.243150 0.323328 0.164805
C21   C     C_R   0.323347 0.302406 0.634951 -0.220868
C22   C     C_R   0.676662 0.802396 0.365061 -0.220855
C23   C     C_R   0.368932 0.148271 0.634624 -0.081868
C24   C     C_R   0.631070 0.648268 0.365377 -0.081868
C25   C     C_R   0.366823 0.988650 0.681313 -0.217854
C26   C     C_R   0.633167 0.488659 0.318674 -0.217846
C27   C     C_R   0.320555 0.983472 0.728718 0.088738
C28   C     C_R   0.679436 0.483486 0.271269 0.088742
C29   C     C_R   0.274461 0.137903 0.727937 0.056365
C30   C     C_R   0.725538 0.637904 0.272062 0.056350
C31   C     C_R   0.275617 0.297400 0.680487 0.091980
C32   C     C_R   0.724391 0.797390 0.319524 0.091985
C33   C     C_R   0.319637 0.826846 0.777110 -0.183241
C34   C     C_R   0.680342 0.326881 0.222863 -0.183226
C35   C     C_R   0.272793 0.821921 0.823440 -0.178498
C36   C     C_R   0.727182 0.321962 0.176528 -0.178489
C37   C     C_R   0.225880 0.973313 0.822061 0.084965
C38   C     C_R   0.774103 0.473336 0.177917 0.084963
C39   C     C_R   0.227049 0.132758 0.774587 0.056634
C40   C     C_R   0.772950 0.632761 0.225411 0.056608
C41   C     C_R   0.180832 0.287000 0.773616 0.090941
C42   C     C_R   0.819181 0.786983 0.226401 0.090952
C43   C     C_R   0.181900 0.443876 0.725434 -0.192422
C44   C     C_R   0.818119 0.943851 0.274590 -0.192380
C45   C     C_R   0.228841 0.448981 0.679254 -0.190131
C46   C     C_R   0.771174 0.948960 0.320767 -0.190116
C47   C     C_R   0.177862 0.968013 0.867282 -0.209828
C48   C     C_R   0.822113 0.468044 0.132685 -0.209774
C49   C     C_R   0.131783 0.121520 0.866959 -0.053324
C50   C     C_R   0.868215 0.621524 0.133038 -0.053304
C51   C     C_R   0.134143 0.281300 0.820473 -0.202205
C52   C     C_R   0.865878 0.781276 0.179553 -0.202220
H11   H     H_    0.324210 0.425464 0.598716 0.122368
H12   H     H_    0.675808 0.925446 0.401308 0.122359
H13   H     H_    0.402010 0.869758 0.681731 0.129081
H14   H     H_    0.597972 0.369774 0.318246 0.129075
H15   H     H_    0.354888 0.707462 0.778794 0.139055
H16   H     H_    0.645080 0.207520 0.221166 0.139050
H17   H     H_    0.272892 0.698854 0.859955 0.146512
H18   H     H_    0.727067 0.198926 0.139994 0.146507
H19   H     H_    0.177040 0.845100 0.903607 0.130474
H20   H     H_    0.822912 0.345158 0.096331 0.130460
H21   H     H_    0.098762 0.399973 0.819690 0.121728
H22   H     H_    0.901283 0.899920 0.180365 0.121709
H23   H     H_    0.146611 0.563198 0.723705 0.131107
H24   H     H_    0.853415 0.063161 0.276330 0.131096
H25   H     H_    0.228781 0.572122 0.642798 0.132383
H26   H     H_    0.771241 0.072089 0.357231 0.132370
O11   O     O_R   0.937800 0.775460 0.060470 -0.529084
O12   O     O_R   0.062200 0.275460 0.939530 -0.529093
O13   O     O_R   0.087350 0.441340 0.093710 -0.541039
O14   O     O_R   0.912650 0.941340 0.906290 -0.541037
C53   C     C_R   0.114685 0.610337 0.116388 0.704213
C54   C     C_R   0.885315 0.110339 0.883612 0.704224
O15   O     O_R   0.939820 0.446010 0.069950 -0.549504
O16   O     O_R   0.060180 0.946010 0.930050 -0.549508
O17   O     O_R   0.913690 0.271230 0.915700 -0.536450
O18   O     O_R   0.086310 0.771230 0.084300 -0.536449
C55   C     C_R   0.918323 0.614241 0.084539 0.723957
C56   C     C_R   0.081677 0.114239 0.915459 0.723948
O19   O     O_3   0.991670 0.603050 0.949510 -0.379579
O20   O     O_3   0.008330 0.103050 0.050490 -0.379574
V3    V     V_3+5 0.001550 0.329940 0.009370 1.429187
V4    V     V_3+5 0.998450 0.829940 0.990630 1.429187
C57   C     C_2   0.752130 0.690927 0.879228 0.798527
O21   O     O_2   0.762660 0.782853 0.940844 -0.565563
O22   O     O_R   0.733030 0.501024 0.877724 -0.659099
H27   H     H_    0.729919 0.455589 0.931271 0.290139
C58   C     C_2   0.247874 0.190917 0.120780 0.798605
O23   O     O_2   0.237351 0.282831 0.059170 -0.565575
O24   O     O_R   0.266963 0.001016 0.122277 -0.659103
H28   H     H_    0.270064 0.955560 0.068729 0.290148

loop_
_geom_bond_atom_site_label_1
_geom_bond_atom_site_label_2
_ccdc_geom_bond_type
C44   C46   A    
C41   C43   A    
C2    C23   S    
C20   H10   S    
C58   O23   D    
O1    C3    A    
O2    C4    A    
C2    O7    A    
O20   V4    S    
C25   C27   A    
O5    C3    A    
C7    C9    A    
C36   H18   S    
C44   H24   S    
C17   C19   S    
C35   C37   A    
C32   C46   A    
C50   C55   S    
C36   C38   A    
C54   O17   A    
C45   H25   S    
C38   C40   A    
C26   H14   S    
C47   C49   A    
C40   C42   A    
O13   V3    S    
C21   C31   A    
C58   O24   S    
C22   C24   A    
C27   C29   A    
C17   C57   S    
C46   H26   S    
C57   O21   D    
C15   C17   S    
C48   H20   S    
C18   C20   S    
O12   C56   A    
O15   V3    S    
O5    V1    S    
O6    V2    S    
C21   H11   S    
C18   C58   S    
C57   O22   S    
O11   V4    S    
O11   C55   A    
C19   H9    S    
O20   V3    S    
C30   C32   A    
C43   H23   S    
C23   C25   A    
C11   C13   A    
O17   V3    S    
C24   C26   A    
C3    C8    S    
C37   C39   A    
C20   H8    S    
C50   C52   A    
C49   C51   A    
C53   O18   A    
C41   C51   A    
C43   C45   A    
O16   C56   A    
C28   C34   A    
C29   C31   A    
C42   C44   A    
O4    V2    S    
C19   H7    S    
C14   C53   S    
C47   H19   S    
C33   H15   S    
C28   C30   A    
C38   C48   A    
O6    C4    A    
C27   C33   A    
C39   C41   A    
O19   V3    S    
O1    V2    S    
C52   H22   S    
O14   C54   A    
O2    V1    S    
C21   C23   A    
C51   H21   S    
C37   C47   A    
O4    C2    A    
C49   C56   S    
C8    C10   A    
C12   C14   A    
C33   C35   A    
C5    C15   A    
C10   H2    S    
C6    C16   A    
C25   H13   S    
O3    V1    S    
O24   H28   S    
C9    C11   A    
O14   V4    S    
C18   H6    S    
O18   V4    S    
O3    C1    A    
C34   H16   S    
C13   C54   S    
C48   C50   A    
C11   H3    S    
C1    C24   S    
C12   H4    S    
O16   V4    S    
C9    H1    S    
O7    V1    S    
C1    O8    A    
C13   C15   A    
C30   C40   A    
O22   H27   S    
C14   C16   A    
C29   C39   A    
C4    C7    S    
C26   C28   A    
C5    C7    A    
C34   C36   A    
O19   V4    S    
C6    C8    A    
C31   C45   A    
C35   H17   S    
C17   H5    S    
C22   C32   A    
O12   V3    S    
O13   C53   A    
C10   C12   A    
O9    V2    S    
C42   C52   A    
O10   V1    S    
O8    V2    S    
C5    C19   S    
C22   H12   S    
C6    C20   S    
O15   C55   A    
C16   C18   S    
