data_mof_unit_38747.cif
_audit_creation_date              2012-10-26T17:11:30-0400
_audit_creation_method            fapswitch 2.2
_symmetry_space_group_name_H-M    P1
_symmetry_Int_Tables_number       1
_space_group_crystal_system       triclinic
_cell_length_a                    27.927533
_cell_length_b                    18.836886
_cell_length_c                    16.879465
_cell_angle_alpha                 89.994176
_cell_angle_beta                  63.205187
_cell_angle_gamma                 89.987026
_cell_volume                      7926.29423494

loop_
_atom_site_label
_atom_site_type_symbol
_atom_type_description
_atom_site_fract_x
_atom_site_fract_y
_atom_site_fract_z
_atom_type_partial_charge
C1    C     C_R   0.295002 0.728591 0.329322 0.824677
C2    C     C_R   0.705725 0.272641 0.669996 0.848782
C3    C     C_R   0.704975 0.728630 0.670683 0.811185
C4    C     C_R   0.294283 0.272621 0.330001 0.857433
C5    C     C_R   0.795000 0.228581 0.329327 0.808388
C6    C     C_R   0.205707 0.772607 0.670004 0.846410
C7    C     C_R   0.204992 0.228599 0.670676 0.809984
C8    C     C_R   0.794269 0.772653 0.330011 0.845683
C9    C     C_R   0.409903 0.999971 0.465602 0.063898
C10   C     C_R   0.590091 0.000014 0.534425 0.063930
C11   C     C_R   0.913795 0.499972 0.447601 0.066011
C12   C     C_R   0.094954 0.499852 0.515047 0.061532
C13   C     C_R   0.582815 0.872338 0.550492 -0.226771
C14   C     C_R   0.417160 0.127651 0.449611 -0.225956
C15   C     C_R   0.417148 0.872274 0.449798 -0.226743
C16   C     C_R   0.582866 0.127714 0.550159 -0.225828
C17   C     C_R   0.087783 0.371693 0.526953 -0.224413
C18   C     C_R   0.920229 0.627651 0.431655 -0.228421
C19   C     C_R   0.920232 0.372299 0.431503 -0.229322
C20   C     C_R   0.088078 0.627997 0.526459 -0.221894
C21   C     C_R   0.212785 0.754511 0.960008 0.116454
C22   C     C_R   0.772173 0.215309 0.050379 0.115452
C23   C     C_R   0.786969 0.755072 0.040111 0.116218
C24   C     C_R   0.227725 0.215478 0.949715 0.115252
C25   C     C_R   0.712870 0.254760 0.960004 0.116042
C26   C     C_R   0.272061 0.715102 0.050460 0.114745
C27   C     C_R   0.287037 0.254951 0.040052 0.115751
C28   C     C_R   0.727650 0.715629 0.949772 0.115470
C29   C     C_R   0.263342 0.784592 0.936865 -0.185001
C30   C     C_R   0.721827 0.184399 0.073064 -0.185885
C31   C     C_R   0.736460 0.785288 0.063136 -0.185257
C32   C     C_R   0.278156 0.184731 0.926841 -0.185861
C33   C     C_R   0.763286 0.285153 0.937198 -0.185418
C34   C     C_R   0.221577 0.684485 0.073468 -0.185108
C35   C     C_R   0.236532 0.285180 0.063056 -0.184785
C36   C     C_R   0.778085 0.684897 0.926877 -0.186132
C37   C     C_R   0.292843 0.764846 0.981514 -0.180435
C38   C     C_R   0.692141 0.204315 0.028285 -0.182741
C39   C     C_R   0.706934 0.765526 0.018539 -0.179812
C40   C     C_R   0.307846 0.204662 0.971594 -0.183038
C41   C     C_R   0.792803 0.265390 0.981816 -0.179797
C42   C     C_R   0.191901 0.704394 0.028664 -0.183237
C43   C     C_R   0.207011 0.265402 0.018458 -0.179879
C44   C     C_R   0.807778 0.704810 0.971628 -0.182872
C45   C     C_R   0.140393 0.822393 0.946455 -0.268318
C46   C     C_R   0.849541 0.159424 0.060885 -0.291193
C47   C     C_R   0.859443 0.822715 0.053645 -0.267851
C48   C     C_R   0.150410 0.159502 0.939157 -0.290983
C49   C     C_R   0.640448 0.322519 0.946426 -0.267768
C50   C     C_R   0.349478 0.659319 0.060934 -0.290678
C51   C     C_R   0.359501 0.322614 0.053598 -0.266965
C52   C     C_R   0.650365 0.659588 0.939189 -0.291258
C53   C     C_R   0.120131 0.855335 0.892999 -0.098669
C54   C     C_R   0.881290 0.147327 0.104604 -0.055867
C55   C     C_R   0.879820 0.855449 0.107049 -0.098493
C56   C     C_R   0.118699 0.147329 0.895392 -0.055816
C57   C     C_R   0.620153 0.355389 0.892978 -0.098523
C58   C     C_R   0.381273 0.647318 0.104596 -0.054699
C59   C     C_R   0.379863 0.355372 0.107009 -0.100365
C60   C     C_R   0.618669 0.647372 0.895405 -0.055788
C61   C     C_R   0.145858 0.843768 0.800672 0.054839
C62   C     C_R   0.866956 0.178209 0.187954 0.059950
C63   C     C_R   0.854156 0.843799 0.199362 0.054219
C64   C     C_R   0.133046 0.178169 0.812014 0.059122
C65   C     C_R   0.645866 0.343804 0.800654 0.053881
C66   C     C_R   0.366964 0.678271 0.187895 0.062070
C67   C     C_R   0.354203 0.343712 0.199319 0.057861
C68   C     C_R   0.633015 0.678203 0.812018 0.060012
C69   C     C_R   0.183792 0.789079 0.765385 -0.064615
C70   C     C_R   0.816486 0.211770 0.233511 -0.110637
C71   C     C_R   0.816129 0.789231 0.234659 -0.063889
C72   C     C_R   0.183471 0.211829 0.766514 -0.110166
C73   C     C_R   0.683845 0.289168 0.765365 -0.064818
C74   C     C_R   0.316472 0.711765 0.233502 -0.111103
C75   C     C_R   0.316167 0.289155 0.234626 -0.064120
C76   C     C_R   0.683422 0.711910 0.766543 -0.111492
C77   C     C_R   0.202640 0.754102 0.820228 0.083723
C78   C     C_R   0.785072 0.224649 0.187960 0.110046
C79   C     C_R   0.797132 0.754504 0.179868 0.083678
C80   C     C_R   0.214815 0.224845 0.812143 0.110488
C81   C     C_R   0.702774 0.254316 0.820188 0.083446
C82   C     C_R   0.285004 0.724529 0.188019 0.110674
C83   C     C_R   0.297173 0.254421 0.179835 0.082727
C84   C     C_R   0.714721 0.725016 0.812221 0.109689
C85   C     C_R   0.196609 0.631556 0.526600 0.803913
C86   C     C_R   0.802697 0.368374 0.475357 0.802804
C87   C     C_R   0.802690 0.631626 0.475398 0.806766
C88   C     C_R   0.196475 0.368269 0.526837 0.831213
C89   C     C_R   0.697682 0.131499 0.522930 0.809438
C90   C     C_R   0.302324 0.868497 0.477046 0.807176
C91   C     C_R   0.302322 0.131499 0.477055 0.809099
C92   C     C_R   0.697670 0.868497 0.522975 0.805230
C93   C     C_R   0.183523 0.775138 0.909335 0.020514
C94   C     C_R   0.802374 0.198998 0.101011 0.016883
C95   C     C_R   0.816236 0.775608 0.090792 0.019434
C96   C     C_R   0.197530 0.199163 0.899079 0.016816
C97   C     C_R   0.683622 0.275343 0.909301 0.019584
C98   C     C_R   0.302281 0.698841 0.101088 0.018047
C99   C     C_R   0.316296 0.275500 0.090744 0.020259
C100  C     C_R   0.697453 0.699312 0.899142 0.017059
C101  C     C_R   0.925123 0.905214 0.067647 0.813514
C102  C     C_R   0.073374 0.097169 0.933792 0.835271
C103  C     C_R   0.074868 0.905189 0.932365 0.813504
C104  C     C_R   0.926631 0.097180 0.066199 0.835329
C105  C     C_R   0.425141 0.405184 0.067630 0.813861
C106  C     C_R   0.573367 0.597178 0.933796 0.835310
C107  C     C_R   0.574872 0.405202 0.932360 0.813689
C108  C     C_R   0.426629 0.597183 0.066197 0.836126
C109  C     C_R   0.048684 0.628520 0.497278 0.090045
C110  C     C_R   0.964953 0.371432 0.448098 0.100135
C111  C     C_R   0.965012 0.628444 0.448087 0.098752
C112  C     C_R   0.048456 0.371222 0.497653 0.094995
C113  C     C_R   0.540986 0.128597 0.526510 0.095737
C114  C     C_R   0.459019 0.871385 0.473482 0.097299
C115  C     C_R   0.459048 0.128564 0.473241 0.095973
C116  C     C_R   0.540930 0.871419 0.526841 0.097199
C117  C     C_R   0.027627 0.692865 0.484539 -0.202477
C118  C     C_R   0.987108 0.307032 0.457426 -0.198890
C119  C     C_R   0.987255 0.692805 0.457265 -0.199989
C120  C     C_R   0.027382 0.306908 0.484921 -0.202063
C121  C     C_R   0.519734 0.192981 0.514557 -0.201412
C122  C     C_R   0.480268 0.807002 0.485452 -0.200464
C123  C     C_R   0.480324 0.192962 0.485043 -0.201617
C124  C     C_R   0.519654 0.807021 0.515027 -0.200314
C125  C     C_R   0.985907 0.564132 0.460848 0.026377
C126  C     C_R   0.029244 0.435645 0.482279 0.027131
C127  C     C_R   0.029348 0.564138 0.482109 0.025802
C128  C     C_R   0.985855 0.435715 0.460904 0.025580
C129  C     C_R   0.478703 0.064265 0.488438 0.025903
C130  C     C_R   0.521284 0.935716 0.511612 0.026036
C131  C     C_R   0.521309 0.064280 0.511455 0.025913
C132  C     C_R   0.478685 0.935701 0.488569 0.026038
C133  C     C_R   0.456531 0.999977 0.478736 -0.038060
C134  C     C_R   0.543460 0.000005 0.521299 -0.038027
C135  C     C_R   0.962754 0.499941 0.453732 -0.038221
C136  C     C_R   0.051068 0.499883 0.493635 -0.038162
C137  C     C_R   0.386591 0.934930 0.459543 0.004908
C138  C     C_R   0.613416 0.065059 0.540438 0.003926
C139  C     C_R   0.613391 0.934978 0.540586 0.004670
C140  C     C_R   0.386594 0.065011 0.459478 0.003897
C141  C     C_R   0.889150 0.434947 0.445655 0.003401
C142  C     C_R   0.116408 0.565104 0.526263 0.018243
C143  C     C_R   0.116119 0.434553 0.526670 -0.003033
C144  C     C_R   0.889143 0.565023 0.445746 0.002514
C145  C     C_R   0.332463 0.935095 0.471143 -0.146348
C146  C     C_R   0.667543 0.064899 0.528832 -0.145297
C147  C     C_R   0.667529 0.935115 0.528909 -0.145805
C148  C     C_R   0.332460 0.064880 0.471134 -0.144912
C149  C     C_R   0.833600 0.435027 0.465348 -0.144131
C150  C     C_R   0.164261 0.565071 0.538311 -0.157365
C151  C     C_R   0.163817 0.434449 0.538863 -0.108290
C152  C     C_R   0.833595 0.564969 0.465415 -0.143460
C153  C     C_R   0.303920 0.999995 0.491966 0.093723
C154  C     C_R   0.696079 0.999997 0.508039 0.093931
C155  C     C_R   0.805117 0.500001 0.488800 0.096036
C156  C     C_R   0.184394 0.499410 0.551816 0.064713
Cu1   Cu    Cu3+1 0.209920 0.785290 0.495070 0.966835
Cu2   Cu    Cu3+1 0.790080 0.214710 0.504930 0.948091
Cu3   Cu    Cu3+1 0.790080 0.785290 0.504930 0.966393
Cu4   Cu    Cu3+1 0.209920 0.214710 0.495070 0.946809
Cu5   Cu    Cu3+1 0.709920 0.285290 0.495070 0.965633
Cu6   Cu    Cu3+1 0.290080 0.714710 0.504930 0.924081
Cu7   Cu    Cu3+1 0.290080 0.285290 0.504930 0.959841
Cu8   Cu    Cu3+1 0.709920 0.714710 0.495070 0.947086
Cu9   Cu    Cu3+1 0.495240 0.500000 0.924150 0.936314
Cu10  Cu    Cu3+1 0.504760 0.500000 0.075850 0.934794
Cu11  Cu    Cu3+1 0.995240 0.000000 0.924150 0.937054
Cu12  Cu    Cu3+1 0.004760 0.000000 0.075850 0.936394
H1    H     H_    0.279935 0.823403 0.883940 0.137596
H2    H     H_    0.705470 0.145412 0.125762 0.132637
H3    H     H_    0.719919 0.824199 0.115947 0.137459
H4    H     H_    0.294578 0.145857 0.874014 0.132662
H5    H     H_    0.779761 0.324205 0.884547 0.137217
H6    H     H_    0.205105 0.645729 0.126427 0.134021
H7    H     H_    0.219991 0.324109 0.115848 0.138769
H8    H     H_    0.794508 0.646045 0.874027 0.132248
O1    O     O_R   0.255040 0.869590 0.478480 -0.552319
O2    O     O_R   0.744960 0.130410 0.521520 -0.553419
O3    O     O_R   0.744960 0.869590 0.521520 -0.552270
O4    O     O_R   0.255040 0.130410 0.478480 -0.553661
O5    O     O_R   0.755040 0.369590 0.478480 -0.551907
O6    O     O_R   0.244960 0.630410 0.521520 -0.592618
O7    O     O_R   0.244960 0.369590 0.521520 -0.549923
O8    O     O_R   0.755040 0.630410 0.478480 -0.553024
O9    O     O_R   0.182050 0.796550 0.624440 -0.574283
O10   O     O_R   0.817950 0.203450 0.375560 -0.617827
O11   O     O_R   0.817950 0.796550 0.375560 -0.576426
O12   O     O_R   0.182050 0.203450 0.624440 -0.617543
O13   O     O_R   0.682050 0.296550 0.624440 -0.574757
O14   O     O_R   0.317950 0.703450 0.375560 -0.613216
O15   O     O_R   0.317950 0.296550 0.375560 -0.575153
O16   O     O_R   0.682050 0.703450 0.624440 -0.616174
O17   O     O_R   0.250530 0.763330 0.367210 -0.541091
O18   O     O_R   0.749470 0.236670 0.632790 -0.557828
O19   O     O_R   0.749470 0.763330 0.632790 -0.541445
O20   O     O_R   0.250530 0.236670 0.367210 -0.558167
O21   O     O_R   0.750530 0.263330 0.367210 -0.542383
O22   O     O_R   0.249470 0.736670 0.632790 -0.561168
O23   O     O_R   0.249470 0.263330 0.632790 -0.541768
O24   O     O_R   0.750530 0.736670 0.367210 -0.558632
O25   O     O_R   0.177260 0.690030 0.513710 -0.601284
O26   O     O_R   0.822740 0.309970 0.486290 -0.609364
O27   O     O_R   0.822740 0.690030 0.486290 -0.607940
O28   O     O_R   0.177260 0.309970 0.513710 -0.618236
O29   O     O_R   0.677260 0.190030 0.513710 -0.609890
O30   O     O_R   0.322740 0.809970 0.486290 -0.610387
O31   O     O_R   0.322740 0.190030 0.486290 -0.610431
O32   O     O_R   0.677260 0.809970 0.513710 -0.611434
O33   O     O_R   0.051640 0.926880 0.885090 -0.600842
O34   O     O_R   0.948360 0.073120 0.114910 -0.563720
O35   O     O_R   0.948360 0.926880 0.114910 -0.601035
O36   O     O_R   0.051640 0.073120 0.885090 -0.563564
O37   O     O_R   0.551640 0.426880 0.885090 -0.600954
O38   O     O_R   0.448360 0.573120 0.114910 -0.563951
O39   O     O_R   0.448360 0.426880 0.114910 -0.601985
O40   O     O_R   0.551640 0.573120 0.885090 -0.563577
O41   O     O_R   0.940620 0.926560 0.986760 -0.590449
O42   O     O_R   0.059380 0.073440 0.013240 -0.599407
O43   O     O_R   0.059380 0.926560 0.013240 -0.590512
O44   O     O_R   0.940620 0.073440 0.986760 -0.599332
O45   O     O_R   0.440620 0.426560 0.986760 -0.590203
O46   O     O_R   0.559380 0.573440 0.013240 -0.599525
O47   O     O_R   0.559380 0.426560 0.013240 -0.590601
O48   O     O_R   0.440620 0.573440 0.986760 -0.599557
H9    H     H_    0.534775 0.756768 0.525616 0.138002
H10   H     H_    0.465193 0.243217 0.474482 0.137763
H11   H     H_    0.465130 0.756735 0.474979 0.137484
H12   H     H_    0.534883 0.243249 0.525005 0.138320
H13   H     H_    0.042394 0.256545 0.495451 0.138357
H14   H     H_    0.971530 0.743038 0.448016 0.138437
H15   H     H_    0.971372 0.256826 0.448154 0.138489
H16   H     H_    0.042719 0.743206 0.494917 0.138683
N1    N     N_3   0.246190 0.000004 0.545405 -0.512701
H17   H     H_    0.235488 0.042244 0.590302 0.203031
H18   H     H_    0.235527 0.957742 0.590255 0.217322
N2    N     N_3   0.753808 0.999964 0.454595 -0.512531
H19   H     H_    0.764527 0.042233 0.409737 0.202959
H20   H     H_    0.764454 0.957731 0.409706 0.217030
N3    N     N_3   0.747797 0.499993 0.546079 -0.513103
H21   H     H_    0.738327 0.457675 0.590668 0.215371
H22   H     H_    0.738265 0.542325 0.590666 0.202004
N4    N     N_3   0.224551 0.497318 0.582952 -0.559790
H23   H     H_    0.262075 0.509579 0.531059 0.257642
H24   H     H_    0.214324 0.532305 0.636255 0.229272
H25   H     H_    0.590484 0.823136 0.574967 0.175079
H26   H     H_    0.409495 0.176859 0.425156 0.176983
H27   H     H_    0.409489 0.823034 0.425413 0.175259
H28   H     H_    0.590527 0.176959 0.574518 0.177311
H29   H     H_    0.092365 0.322426 0.554866 0.176259
H30   H     H_    0.910045 0.677062 0.411076 0.175569
H31   H     H_    0.910056 0.322927 0.410830 0.172794
H32   H     H_    0.092558 0.677243 0.554467 0.177568
H33   H     H_    0.153071 0.680493 0.046882 0.136501
H34   H     H_    0.831378 0.290000 0.963931 0.140705
H35   H     H_    0.846564 0.680794 0.953518 0.136081
H36   H     H_    0.168366 0.289884 0.036500 0.141234
H37   H     H_    0.653424 0.180168 0.046225 0.136307
H38   H     H_    0.331528 0.789224 0.963357 0.140821
H39   H     H_    0.346628 0.180637 0.953501 0.136338
H40   H     H_    0.668285 0.789996 0.036599 0.140825
H41   H     H_    0.124359 0.835748 0.016200 0.172106
H42   H     H_    0.861054 0.137462 0.995435 0.176749
H43   H     H_    0.875454 0.836114 0.983916 0.172117
H44   H     H_    0.138904 0.137539 0.004606 0.176698
H45   H     H_    0.624405 0.335872 0.016174 0.171957
H46   H     H_    0.360977 0.637318 0.995509 0.176290
H47   H     H_    0.375516 0.336010 0.983867 0.171881
H48   H     H_    0.638870 0.637614 0.004628 0.176588
N5    N     N_3   0.137822 0.891138 0.740777 -0.572572
H49   H     H_    0.100702 0.881357 0.741883 0.256862
H50   H     H_    0.141526 0.943943 0.756381 0.221464
N6    N     N_3   0.905169 0.177392 0.223260 -0.565450
H51   H     H_    0.893549 0.140257 0.274573 0.252370
H52   H     H_    0.908490 0.228155 0.245386 0.219930
N7    N     N_3   0.862358 0.890974 0.259248 -0.572513
H53   H     H_    0.899507 0.881023 0.257968 0.256426
H54   H     H_    0.858667 0.943840 0.243827 0.221745
N8    N     N_3   0.094879 0.177212 0.776621 -0.564876
H55   H     H_    0.106579 0.140054 0.725320 0.252600
H56   H     H_    0.091490 0.227947 0.754483 0.221806
N9    N     N_3   0.637781 0.391117 0.740757 -0.571133
H57   H     H_    0.600653 0.381288 0.741912 0.256507
H58   H     H_    0.641476 0.443941 0.756308 0.222237
N10   N     N_3   0.405229 0.677599 0.223097 -0.566441
H59   H     H_    0.393679 0.640497 0.274432 0.251831
H60   H     H_    0.408495 0.728394 0.245193 0.219720
N11   N     N_3   0.362402 0.390890 0.259207 -0.564365
H61   H     H_    0.399551 0.380923 0.257923 0.252319
H62   H     H_    0.358732 0.443752 0.243754 0.226473
N12   N     N_3   0.594868 0.677183 0.776584 -0.565325
H63   H     H_    0.606596 0.640008 0.725297 0.252714
H64   H     H_    0.591464 0.727899 0.754413 0.220784
N13   N     N_3   0.241265 0.697749 0.785394 -0.567866
H65   H     H_    0.226083 0.653057 0.825822 0.218828
H66   H     H_    0.276741 0.713314 0.786902 0.227214
N14   N     N_3   0.736403 0.265303 0.229119 -0.555671
H67   H     H_    0.704162 0.233319 0.236228 0.217459
H68   H     H_    0.739041 0.308597 0.188574 0.224941
N15   N     N_3   0.758356 0.698345 0.214724 -0.561274
H69   H     H_    0.773379 0.653647 0.174236 0.221557
H70   H     H_    0.722895 0.714185 0.213333 0.226273
N16   N     N_3   0.263379 0.265696 0.771086 -0.555543
H71   H     H_    0.295704 0.233842 0.763914 0.217279
H72   H     H_    0.260622 0.308972 0.811719 0.224782
N17   N     N_3   0.741543 0.198133 0.785318 -0.560981
H73   H     H_    0.726473 0.153401 0.825716 0.221705
H74   H     H_    0.776970 0.213891 0.786872 0.226347
N18   N     N_3   0.236308 0.765122 0.229233 -0.556352
H75   H     H_    0.204068 0.733050 0.236552 0.218641
H76   H     H_    0.238848 0.808336 0.188635 0.224641
N19   N     N_3   0.258371 0.198294 0.214716 -0.561722
H77   H     H_    0.273373 0.153581 0.174249 0.221557
H78   H     H_    0.222918 0.214161 0.213316 0.226803
N20   N     N_3   0.763218 0.766004 0.771238 -0.555424
H79   H     H_    0.795583 0.734247 0.764093 0.217342
H80   H     H_    0.760370 0.809278 0.811925 0.225116

loop_
_geom_bond_atom_site_label_1
_geom_bond_atom_site_label_2
_ccdc_geom_bond_type
C85   O6    A    
C105  O39   A    
C34   C42   A    
C16   C113  A    
C110  C118  A    
Cu9   O45   S    
C27   C99   S    
Cu1   O17   S    
C13   C139  A    
N10   H59   S    
C117  C119  A    
C108  O48   A    
C30   C38   A    
C109  C127  A    
C89   O29   A    
N7    H53   S    
N6    H51   S    
C51   H47   S    
C111  C125  A    
N4    H24   S    
N11   H62   S    
C86   O26   A    
C84   N20   S    
Cu4   O20   S    
C1    O14   A    
C125  C135  A    
C143  C151  A    
C32   H4    S    
C90   O1    A    
C126  C136  A    
C19   C141  A    
C92   C147  S    
C82   C98   A    
C4    O15   A    
Cu5   O29   S    
C130  C134  A    
C5    O10   A    
C73   C81   A    
C16   H28   S    
C8    O11   A    
Cu10  O46   S    
C115  C123  A    
C109  C117  A    
C84   C100  A    
Cu4   Cu7   S    
C127  C136  A    
Cu11  O33   S    
C128  C135  A    
Cu3   O3    S    
C112  C120  A    
C27   C35   A    
N20   H79   S    
C21   C29   A    
C3    O19   A    
C23   C31   A    
C1    O17   A    
C24   C32   A    
C5    C70   S    
C34   H6    S    
Cu9   O40   S    
C146  C154  A    
C26   C37   A    
Cu2   O18   S    
C156  N4    S    
C129  C133  A    
C63   N7    S    
N14   H67   S    
C63   C71   A    
N5    H50   S    
C36   C44   A    
C148  C153  A    
Cu6   O14   S    
C137  C145  A    
C4    O20   A    
C8    C71   S    
C48   C96   A    
C16   C138  A    
C106  O40   A    
Cu6   O22   S    
C117  H16   S    
C35   H7    S    
C24   C96   S    
Cu2   O2    S    
C21   C93   S    
C78   C94   A    
C23   C95   S    
C149  C155  A    
C118  C120  A    
C121  C123  A    
C39   H40   S    
C49   C97   A    
C21   C42   A    
C116  C130  A    
C125  C127  A    
C24   C43   A    
C10   C138  A    
C29   H1    S    
Cu1   Cu6   S    
C110  C128  A    
C15   C137  A    
C9    C133  A    
C6    C69   S    
C69   C77   A    
C104  O34   A    
C45   C93   A    
C71   C79   A    
C124  H9    S    
C81   N17   S    
Cu3   O19   S    
C62   C70   A    
C92   O32   A    
C1    C74   S    
Cu1   O9    S    
C9    C140  A    
C20   H32   S    
C66   C74   A    
C49   C57   A    
N2    H19   S    
C111  C119  A    
Cu3   O11   S    
Cu4   O4    S    
C52   C60   A    
C59   C67   A    
C53   C61   A    
C64   N8    S    
N17   H74   S    
C55   C63   A    
C86   O5    A    
C56   C64   A    
C35   C43   A    
N1    H17   S    
C118  H15   S    
Cu10  O39   S    
C45   C53   A    
C22   C94   S    
Cu12  O35   S    
N18   H76   S    
N16   H72   S    
C50   C98   A    
Cu8   O32   S    
C79   N15   S    
C7    C72   S    
C5    O21   A    
C52   C100  A    
N13   H65   S    
C25   C38   A    
N1    H18   S    
C45   H41   S    
C107  O37   A    
C27   C40   A    
C91   O4    A    
N3    H22   S    
C89   O2    A    
C88   O28   A    
C11   C141  A    
C60   C68   A    
C2    C73   S    
Cu9   O37   S    
Cu10  O38   S    
C87   C152  S    
N19   H78   S    
C88   C151  S    
C103  O33   A    
C8    O24   A    
C67   C75   A    
C122  C124  A    
C60   C106  S    
C25   C97   S    
C126  C128  A    
C22   C30   A    
C57   C107  S    
C14   C140  A    
C91   O31   A    
N9    H58   S    
C83   N19   S    
C12   C143  A    
N10   H60   S    
C56   C102  S    
C72   C80   A    
C3    O16   A    
C19   H31   S    
C31   H3    S    
C138  C146  A    
C105  O45   A    
C17   H29   S    
Cu5   O5    S    
C102  O42   A    
C77   N13   S    
Cu1   O25   S    
N6    H52   S    
C12   C136  A    
N8    H55   S    
Cu7   O15   S    
Cu8   O16   S    
Cu11  O41   S    
C108  O38   A    
C25   C33   A    
C43   H36   S    
C13   H25   S    
C17   C112  A    
C68   N12   S    
N3    H21   S    
C131  C134  A    
C76   C84   A    
C80   N16   S    
C101  O35   A    
C129  C131  A    
C59   C105  S    
C54   C104  S    
Cu11  O36   S    
C90   C145  S    
C22   C41   A    
N20   H80   S    
C14   C115  A    
N12   H63   S    
C87   O27   A    
C85   C150  S    
C30   H2    S    
C4    C75   S    
Cu2   Cu5   S    
C90   O30   A    
C9    C137  A    
C112  C126  A    
C85   O25   A    
N14   H68   S    
C155  N3    S    
C83   C99   A    
N5    H49   S    
Cu6   O30   S    
C102  O36   A    
C74   C82   A    
Cu2   O10   S    
C61   N5    S    
C50   C58   A    
Cu12  O34   S    
C37   H38   S    
Cu11  Cu12  S    
C54   C62   A    
C42   H33   S    
Cu7   O7    S    
C23   C44   A    
C2    O18   A    
C130  C132  A    
N15   H69   S    
C79   C95   A    
C92   O3    A    
C11   C135  A    
C78   N14   S    
N11   H61   S    
C12   C142  A    
C152  C155  A    
C46   C54   A    
N4    H23   S    
C153  N1    S    
C151  C156  A    
C18   C111  A    
C82   N18   S    
C15   H27   S    
C36   H8    S    
C68   C76   A    
C10   C139  A    
C46   C94   A    
C116  C124  A    
C57   C65   A    
C120  H13   S    
Cu4   O28   S    
C44   H35   S    
C49   H45   S    
C28   C39   A    
Cu5   O21   S    
C17   C143  A    
C33   C41   A    
C142  C150  A    
C18   C144  A    
C75   C83   A    
C53   C103  S    
Cu7   O31   S    
N2    H20   S    
C58   C108  S    
Cu12  O43   S    
C13   C116  A    
C28   C36   A    
C144  C152  A    
N17   H73   S    
C29   C37   A    
C65   N9    S    
Cu8   O24   S    
Cu9   O48   S    
C103  O43   A    
N19   H77   S    
C50   H46   S    
Cu9   Cu10  S    
C70   C78   A    
C2    O13   A    
C140  C148  A    
C141  C149  A    
C123  H10   S    
C6    O9    A    
C139  C147  A    
C121  H12   S    
N7    H54   S    
Cu6   O6    S    
C65   C73   A    
C147  C154  A    
C104  O44   A    
C67   N11   S    
C119  H14   S    
C58   C66   A    
C132  C133  A    
C80   C96   A    
C33   H5    S    
C11   C144  A    
C145  C153  A    
C28   C100  S    
C32   C40   A    
C150  C156  A    
C91   C148  S    
C40   H39   S    
C26   C34   A    
C107  O47   A    
C51   C99   A    
C89   C146  S    
C20   C142  A    
C7    O12   A    
Cu5   O13   S    
C86   C149  S    
C87   O8    A    
C6    O22   A    
C88   O7    A    
C47   H43   S    
N9    H57   S    
C41   H34   S    
C48   H44   S    
Cu8   O8    S    
Cu3   O27   S    
C15   C114  A    
C113  C121  A    
Cu1   O1    S    
C66   N10   S    
C3    C76   S    
N15   H70   S    
C26   C98   S    
C52   H48   S    
Cu2   O26   S    
N8    H56   S    
C51   C59   A    
Cu4   O12   S    
C38   H37   S    
Cu11  O44   S    
N18   H75   S    
C77   C93   A    
C47   C55   A    
C115  C129  A    
C19   C110  A    
C61   C69   A    
C48   C56   A    
N16   H71   S    
C113  C131  A    
Cu3   Cu8   S    
C114  C132  A    
C10   C134  A    
Cu10  O47   S    
C46   H42   S    
C55   C101  S    
N13   H66   S    
C106  O46   A    
C81   C97   A    
C18   H30   S    
C122  H11   S    
C31   C39   A    
N12   H64   S    
C64   C72   A    
C7    O23   A    
Cu7   O23   S    
C20   C109  A    
C114  C122  A    
C101  O41   A    
C154  N2    S    
C47   C95   A    
Cu12  O42   S    
C62   N6    S    
C14   H26   S    
