data_mof_unit_25741.cif
_audit_creation_date              2012-12-10T16:53:55-0500
_audit_creation_method            fapswitch 2.2
_symmetry_space_group_name_H-M    P1
_symmetry_Int_Tables_number       1
_space_group_crystal_system       triclinic
_cell_length_a                    7.756136
_cell_length_b                    8.537211
_cell_length_c                    10.631462
_cell_angle_alpha                 90.576016
_cell_angle_beta                  85.218689
_cell_angle_gamma                 93.717117
_cell_volume                      700.037247521

loop_
_atom_site_label
_atom_site_type_symbol
_atom_type_description
_atom_site_fract_x
_atom_site_fract_y
_atom_site_fract_z
_atom_type_partial_charge
C1    C     C_R   0.545499 0.793988 0.483210 0.951829
C2    C     C_3   0.497682 0.499345 0.120924 0.179640
C3    C     C_3   0.432708 0.333548 0.071646 0.020889
C4    C     C_3   0.686798 0.534306 0.060320 -0.470037
C5    C     C_2   0.567200 0.954093 0.443909 -0.015818
C6    C     C_2   0.432067 0.041475 0.479504 -0.472985
C7    C     C_R   0.501898 0.503256 0.741957 0.852810
C8    C     C_R   0.454600 0.205821 0.491207 0.943134
C9    C     C_R   0.498950 0.500141 0.257552 0.815863
C10   C     C_3   0.386528 0.630541 0.935367 -0.405410
C11   C     C_3   0.388934 0.632865 0.078818 -0.377271
C12   C     C_3   0.430725 0.338711 0.926652 -0.405004
C13   C     C_3   0.689528 0.535942 0.917103 -0.420459
C14   C     C_3   0.502844 0.502265 0.877760 0.155354
H1    H     H_    0.250246 0.607361 0.911188 0.184736
H2    H     H_    0.772534 0.443281 0.087704 0.190837
H3    H     H_    0.512221 0.246340 0.883408 0.131557
H4    H     H_    0.534896 0.252832 0.090886 0.098893
H5    H     H_    0.308181 0.991482 0.521403 0.168074
H6    H     H_    0.013093 0.376008 0.410847 0.189554
H7    H     H_    0.986275 0.621296 0.591742 0.188289
H8    H     H_    0.433300 0.747886 0.896695 0.152994
H9    H     H_    0.446590 0.748374 0.108666 0.146593
H10   H     H_    0.254645 0.625419 0.123136 0.189395
H11   H     H_    0.298593 0.311823 0.895921 0.182560
H12   H     H_    0.776223 0.445424 0.877338 0.188292
H13   H     H_    0.743844 0.652348 0.880738 0.172709
H14   H     H_    0.742318 0.649030 0.093128 0.192822
N1    N     N_2   0.950330 0.457950 0.465890 -0.184545
N2    N     N_2   0.049670 0.542050 0.534110 -0.175134
O1    O     O_R   0.389250 0.738570 0.508370 -0.632378
O2    O     O_R   0.678390 0.711620 0.486510 -0.623106
O3    O     O_R   0.355430 0.513500 0.696140 -0.625708
O4    O     O_R   0.644580 0.486550 0.674270 -0.627768
O5    O     O_R   0.321610 0.288380 0.513490 -0.622220
O6    O     O_R   0.610750 0.261430 0.491630 -0.616147
O7    O     O_R   0.355420 0.513450 0.325730 -0.625365
O8    O     O_R   0.644570 0.486500 0.303860 -0.647197
Zn1   Zn    Zn3+2 0.306940 0.517990 0.514600 0.920612
Zn2   Zn    Zn3+2 0.693060 0.482010 0.485400 0.907568
C15   C     C_3   0.734001 0.012478 0.365158 -0.341402
C16   C     C_3   0.779525 0.907688 0.251665 -0.958910
H15   H     H_    0.816189 0.791115 0.280965 0.293348
H16   H     H_    0.668457 0.894492 0.192511 0.246016
H17   H     H_    0.892388 0.962920 0.193490 0.246538
H18   H     H_    0.722100 0.128766 0.322429 0.231804
H19   H     H_    0.843789 0.021014 0.426204 0.213542
C17   C     C_3   0.264698 0.251110 0.137552 -0.385623
C18   C     C_3   0.096521 0.333333 0.128762 -0.863377
H20   H     H_    0.085649 0.429497 0.198707 0.259666
H21   H     H_    0.085022 0.379927 0.033227 0.251497
H22   H     H_    0.984454 0.247993 0.151730 0.231295
H23   H     H_    0.246951 0.132518 0.094372 0.195007
H24   H     H_    0.282372 0.230565 0.238530 0.202148

loop_
_geom_bond_atom_site_label_1
_geom_bond_atom_site_label_2
_ccdc_geom_bond_type
C12   H3    S    
C4    H2    S    
O5    Zn1   S    
C15   H18   S    
C15   C16   S    
N1    N2    D    
C7    C14   S    
H7    N2    S    
C3    C17   S    
C2    C4    S    
O6    Zn2   S    
C12   H11   S    
C10   H1    S    
C18   H22   S    
C9    O7    A    
C2    C3    S    
C15   H19   S    
O7    Zn1   S    
C13   C14   S    
C10   H8    S    
C17   H24   S    
C6    H5    S    
C7    O3    A    
O3    Zn1   S    
C16   H16   S    
O4    Zn2   S    
C2    C11   S    
N1    Zn2   S    
C11   H9    S    
C17   C18   S    
O8    Zn2   S    
O1    Zn1   S    
N2    Zn1   S    
H6    N1    S    
O2    Zn2   S    
C10   C14   S    
C17   H23   S    
C7    O4    A    
C1    C5    S    
C13   H12   S    
C10   C11   S    
C11   H10   S    
C1    O1    A    
C3    H4    S    
C18   H20   S    
C8    O6    A    
C4    C13   S    
C5    C6    D    
C5    C15   S    
C9    O8    A    
C6    C8    S    
C3    C12   S    
C4    H14   S    
C2    C9    S    
C16   H17   S    
C1    O2    A    
C13   H13   S    
C16   H15   S    
C12   C14   S    
C18   H21   S    
C8    O5    A    
