data_mof_unit_7773.cif
_audit_creation_date              2012-12-10T18:58:12-0500
_audit_creation_method            fapswitch 2.2
_symmetry_space_group_name_H-M    P1
_symmetry_Int_Tables_number       1
_space_group_crystal_system       triclinic
_cell_length_a                    10.632505
_cell_length_b                    9.975628
_cell_length_c                    15.841376
_cell_angle_alpha                 89.884764
_cell_angle_beta                  92.205183
_cell_angle_gamma                 90.243232
_cell_volume                      1678.96772219

loop_
_atom_site_label
_atom_site_type_symbol
_atom_type_description
_atom_site_fract_x
_atom_site_fract_y
_atom_site_fract_z
_atom_type_partial_charge
C1    C     C_R   0.871785 0.501744 0.502451 -0.365970
C2    C     C_R   0.492734 0.375326 0.956077 0.101571
C3    C     C_R   0.488527 0.499217 0.912578 0.020622
C4    C     C_R   0.488153 0.500496 0.086867 0.020091
C5    C     C_1   0.493256 0.499157 0.823199 -0.019057
C6    C     C_1   0.492565 0.500670 0.176473 -0.024148
C7    C     C_1   0.496248 0.500505 0.251364 -0.152699
C8    C     C_1   0.497109 0.499435 0.748497 -0.151862
C9    C     C_R   0.588615 0.071171 0.546841 0.397631
C10   C     C_R   0.411416 0.928821 0.453112 0.396336
C11   C     C_R   0.411379 0.070694 0.453135 0.403815
C12   C     C_R   0.128352 0.498877 0.500288 -0.376400
C13   C     C_R   0.588665 0.929305 0.546808 0.404302
C14   C     C_R   0.069156 0.449040 0.572275 0.433168
C15   C     C_R   0.929561 0.553842 0.431558 0.426238
C16   C     C_R   0.939733 0.449791 0.573072 0.388935
C17   C     C_R   0.060078 0.550067 0.429192 0.332587
C18   C     C_3   0.510428 0.754900 0.093138 -0.401253
C19   C     C_3   0.384799 0.818589 0.113170 -0.799474
C20   C     C_3   0.511336 0.245039 0.907536 -0.393603
C21   C     C_3   0.385904 0.179608 0.881237 -0.801325
C22   C     C_3   0.460280 0.752481 0.903262 -0.404547
C23   C     C_R   0.260870 0.499684 0.499918 0.885767
C24   C     C_3   0.325093 0.760483 0.866948 -0.795153
C25   C     C_3   0.461040 0.246853 0.094799 -0.407898
C26   C     C_3   0.325992 0.236983 0.124347 -0.792320
C27   C     C_R   0.739176 0.500363 0.500810 0.987067
C28   C     C_R   0.499509 0.500140 0.339695 0.914916
C29   C     C_R   0.500356 0.499860 0.660316 0.852639
C30   C     C_R   0.481053 0.623629 0.954648 0.118209
C31   C     C_R   0.481220 0.375983 0.044433 0.119783
C32   C     C_R   0.492239 0.624422 0.043598 0.103793
H1    H     H_    0.654533 0.226179 0.605766 0.378903
H2    H     H_    0.333518 0.148905 0.937306 0.257348
H3    H     H_    0.327390 0.250206 0.842409 0.280762
H4    H     H_    0.403518 0.089041 0.842933 0.248310
H5    H     H_    0.565081 0.262868 0.849853 0.226318
H6    H     H_    0.572196 0.173898 0.943927 0.190949
H7    H     H_    0.303567 0.677034 0.822496 0.270635
H8    H     H_    0.257491 0.756639 0.918604 0.259160
H9    H     H_    0.311665 0.856248 0.832029 0.248190
H10   H     H_    0.477663 0.845097 0.939923 0.211256
H11   H     H_    0.527176 0.757342 0.851155 0.219044
H12   H     H_    0.345376 0.773726 0.394237 0.381231
H13   H     H_    0.304140 0.320233 0.167603 0.265742
H14   H     H_    0.258205 0.239630 0.069291 0.257577
H15   H     H_    0.313171 0.141173 0.158771 0.257748
H16   H     H_    0.478717 0.154464 0.059033 0.210367
H17   H     H_    0.528105 0.242926 0.150280 0.216918
H18   H     H_    0.223074 0.428121 0.643837 0.324321
H19   H     H_    0.907659 0.638914 0.320045 0.388427
H20   H     H_    0.795228 0.431189 0.645742 0.307954
H21   H     H_    0.203300 0.559838 0.354576 0.326861
H22   H     H_    0.344286 0.226046 0.395129 0.375684
H23   H     H_    0.655771 0.773985 0.604797 0.373511
H24   H     H_    0.332280 0.848958 0.054471 0.256184
H25   H     H_    0.326552 0.747052 0.148852 0.276056
H26   H     H_    0.402142 0.909129 0.152596 0.253635
H27   H     H_    0.564429 0.737660 0.153511 0.224891
H28   H     H_    0.570903 0.826948 0.059883 0.189495
N1    N     N_R   0.500000 0.857200 0.500000 -0.269909
N2    N     N_R   0.500000 0.142800 0.500000 -0.269411
O1    O     O_R   0.316770 0.614620 0.499990 -0.604126
O2    O     O_3   0.319902 0.866680 0.403276 -0.666694
O3    O     O_3   0.319773 0.132304 0.403340 -0.685863
O4    O     O_3   0.680372 0.867683 0.596499 -0.681179
O5    O     O_3   0.133485 0.401511 0.643899 -0.681318
O6    O     O_3   0.854744 0.602661 0.364845 -0.738587
O7    O     O_3   0.884064 0.402505 0.645017 -0.668085
O8    O     O_3   0.116784 0.595187 0.357024 -0.747626
O9    O     O_R   0.683230 0.385380 0.500010 -0.618425
O10   O     O_R   0.683230 0.614620 0.500010 -0.587422
O11   O     O_R   0.316770 0.385380 0.499990 -0.609905
O12   O     O_R   0.499980 0.614630 0.378020 -0.626874
O13   O     O_R   0.500020 0.385370 0.621980 -0.640397
O14   O     O_R   0.500020 0.614630 0.621980 -0.638974
O15   O     O_R   0.499980 0.385370 0.378020 -0.638958
O16   O     O_3   0.680184 0.133320 0.596606 -0.661780
Zn1   Zn    Zn3+2 0.500000 0.653120 0.500000 0.973500
Zn2   Zn    Zn3+2 0.500000 0.346880 0.500000 0.962797

loop_
_geom_bond_atom_site_label_1
_geom_bond_atom_site_label_2
_ccdc_geom_bond_type
C19   H24   S    
C25   C31   S    
O14   Zn1   S    
C11   N2    A    
C28   O12   A    
C29   O14   A    
O1    Zn1   S    
H12   O2    S    
C12   C23   S    
C8    C29   S    
N2    Zn2   S    
O10   Zn1   S    
H1    O16   S    
C24   H7    S    
C18   C19   S    
C9    C13   A    
H20   O7    S    
C26   H13   S    
C12   C17   A    
C14   O5    S    
C1    C15   A    
O13   Zn2   S    
H19   O6    S    
C23   O1    A    
C17   O8    S    
C24   H9    S    
C23   O11   A    
H21   O8    S    
H22   O3    S    
O9    Zn2   S    
C13   O4    S    
C19   H26   S    
C2    C20   S    
C9    N2    A    
C4    C6    S    
C21   H4    S    
C21   H2    S    
C25   C26   S    
C19   H25   S    
C7    C28   S    
C2    C31   A    
C3    C30   A    
C20   H6    S    
C22   H11   S    
C1    C16   A    
C28   O15   A    
C25   H16   S    
C4    C32   A    
C26   H15   S    
C29   O13   A    
C18   H28   S    
C12   C14   A    
O12   Zn1   S    
C14   C16   A    
C10   N1    A    
C18   C32   S    
H23   O4    S    
C27   O9    A    
H18   O5    S    
O15   Zn2   S    
C15   C17   A    
C22   C30   S    
C10   O2    S    
C16   O7    S    
C3    C5    S    
C5    C8    T    
C6    C7    T    
C21   H3    S    
C2    C3    A    
C30   C32   A    
C20   H5    S    
C22   H10   S    
N1    Zn1   S    
C15   O6    S    
C24   H8    S    
O11   Zn2   S    
C22   C24   S    
C9    O16   S    
C25   H17   S    
C4    C31   A    
C10   C11   A    
C26   H14   S    
C18   H27   S    
C13   N1    A    
C20   C21   S    
C1    C27   S    
C27   O10   A    
C11   O3    S    
