data_mof_unit_50710.cif
_audit_creation_date              2012-12-10T20:46:51-0500
_audit_creation_method            fapswitch 2.2
_symmetry_space_group_name_H-M    P1
_symmetry_Int_Tables_number       1
_space_group_crystal_system       triclinic
_cell_length_a                    12.827969
_cell_length_b                    8.920178
_cell_length_c                    8.12351
_cell_angle_alpha                 90.116075
_cell_angle_beta                  97.701575
_cell_angle_gamma                 89.914493
_cell_volume                      921.167482128

loop_
_atom_site_label
_atom_site_type_symbol
_atom_type_description
_atom_site_fract_x
_atom_site_fract_y
_atom_site_fract_z
_atom_type_partial_charge
C1    C     C_R   0.499558 0.218077 0.499803 0.911100
C2    C     C_R   0.858254 0.344599 0.608072 -0.005324
C3    C     C_R   0.127679 0.401441 0.499576 0.069965
C4    C     C_R   0.872319 0.598572 0.500427 0.069971
C5    C     C_R   0.023212 0.428605 0.524562 -0.068103
C6    C     C_R   0.976792 0.571417 0.475459 -0.068106
C7    C     C_1   0.499831 0.065231 0.499817 -0.177484
C8    C     C_1   0.500170 0.934769 0.500183 -0.177487
C9    C     C_R   0.500443 0.781923 0.500197 0.911094
C10   C     C_R   0.298103 0.502716 0.466921 0.872234
C11   C     C_R   0.701897 0.497284 0.533079 0.872238
C12   C     C_R   0.813453 0.481946 0.554658 -0.199246
C13   C     C_R   0.186548 0.518064 0.445345 -0.199240
C14   C     C_R   0.036074 0.680975 0.400893 0.487117
C15   C     C_R   0.963935 0.319054 0.599146 0.487129
C16   C     C_R   0.141753 0.655420 0.391956 -0.005320
Cl1   Cl    Cl    0.984156 0.851562 0.311784 -0.501256
Cl2   Cl    Cl    0.015868 0.148496 0.688312 -0.501260
H1    H     H_    0.763276 0.741121 0.379766 0.214586
H2    H     H_    0.797059 0.777948 0.585666 0.201665
H3    H     H_    0.236718 0.258872 0.620201 0.214587
H4    H     H_    0.202919 0.222064 0.414303 0.201674
H5    H     H_    0.763896 0.267854 0.771324 0.219995
H6    H     H_    0.735290 0.199236 0.574908 0.182062
H7    H     H_    0.236114 0.732173 0.228713 0.219992
H8    H     H_    0.264724 0.800770 0.425137 0.182063
N1    N     N_1   0.500020 0.500000 0.073640 -0.023348
N2    N     N_1   0.499980 0.500000 0.926360 -0.023348
N3    N     N_3   0.825748 0.744998 0.476516 -0.354041
N4    N     N_3   0.174240 0.255009 0.523462 -0.354033
N5    N     N_3   0.796261 0.227746 0.668292 -0.368708
N6    N     N_3   0.203751 0.772274 0.331750 -0.368714
O1    O     O_R   0.499990 0.285340 0.636850 -0.620270
O2    O     O_R   0.500010 0.714660 0.363150 -0.620270
O3    O     O_R   0.500010 0.285340 0.363150 -0.607090
O4    O     O_R   0.499990 0.714660 0.636850 -0.607092
O5    O     O_R   0.346350 0.500000 0.614250 -0.611559
O6    O     O_R   0.653650 0.500000 0.385750 -0.611565
O7    O     O_R   0.346360 0.500000 0.340500 -0.620235
O8    O     O_R   0.653640 0.500000 0.659500 -0.620240
Zn1   Zn    Zn3+2 0.499990 0.500000 0.682780 0.997932
Zn2   Zn    Zn3+2 0.500010 0.500000 0.317220 0.997932

loop_
_geom_bond_atom_site_label_1
_geom_bond_atom_site_label_2
_ccdc_geom_bond_type
C15   Cl2   S    
C11   C12   S    
H8    N6    S    
C11   O6    A    
H3    N4    S    
C4    N3    S    
C3    C13   A    
C2    C12   A    
H7    N6    S    
H6    N5    S    
O1    Zn1   S    
C7    C8    T    
C6    C14   A    
C2    C15   A    
C14   Cl1   S    
O4    Zn1   S    
C9    O2    A    
C10   O5    A    
C5    C6    A    
C3    N4    S    
O8    Zn1   S    
O6    Zn2   S    
O7    Zn2   S    
H2    N3    S    
O5    Zn1   S    
C11   O8    A    
C14   C16   A    
C5    C15   A    
C4    C12   A    
C1    O1    A    
H1    N3    S    
C9    O4    A    
N2    Zn1   S    
C1    O3    A    
C4    C6    A    
C13   C16   A    
N1    N2    T    
O3    Zn2   S    
C16   N6    S    
C8    C9    S    
H4    N4    S    
C1    C7    S    
C10   O7    A    
N1    Zn2   S    
H5    N5    S    
C2    N5    S    
C3    C5    A    
C10   C13   S    
O2    Zn2   S    
