data_mof_unit_33732.cif
_audit_creation_date              2012-12-10T17:06:11-0500
_audit_creation_method            fapswitch 2.2
_symmetry_space_group_name_H-M    P1
_symmetry_Int_Tables_number       1
_space_group_crystal_system       triclinic
_cell_length_a                    10.723252
_cell_length_b                    11.120498
_cell_length_c                    9.973533
_cell_angle_alpha                 109.448962
_cell_angle_beta                  99.045986
_cell_angle_gamma                 94.457032
_cell_volume                      1096.65431056

loop_
_atom_site_label
_atom_site_type_symbol
_atom_type_description
_atom_site_fract_x
_atom_site_fract_y
_atom_site_fract_z
_atom_type_partial_charge
C1    C     C_R   0.495517 0.255071 0.443284 0.808218
C2    C     C_R   0.514509 0.743834 0.556829 0.844637
C3    C     C_R   0.259618 0.496273 0.498737 0.843784
C4    C     C_R   0.740430 0.503559 0.501452 0.821368
C5    C     C_3   0.036813 0.402699 0.542274 -0.135720
C6    C     C_3   0.963672 0.596038 0.459313 -0.143963
C7    C     C_3   0.932256 0.388091 0.410024 -0.075371
C8    C     C_3   0.067820 0.610787 0.591513 -0.081573
C9    C     C_3   0.877314 0.504201 0.503613 -0.158181
C10   C     C_3   0.122884 0.495019 0.497711 -0.156091
C11   C     C_3   0.981497 0.518973 0.636242 -0.008216
C12   C     C_3   0.018516 0.480061 0.365494 -0.002253
C13   C     C_2   0.487740 0.116278 0.421255 -0.338533
C14   C     C_2   0.557584 0.876308 0.577623 -0.177012
C15   C     C_2   0.524424 0.079822 0.538875 -0.043052
C16   C     C_2   0.474978 0.952548 0.541840 -0.118619
C17   C     C_2   0.523079 0.498952 0.077994 -0.000287
C18   C     C_2   0.501010 0.477007 0.918176 -0.020918
Cu1   Cu    Cu3+1 0.522260 0.521810 0.644920 1.085174
Cu2   Cu    Cu3+1 0.477740 0.478190 0.355080 1.076382
N1    N     N_2   0.444270 0.445410 0.137360 -0.277896
N2    N     N_2   0.555730 0.554590 0.862640 -0.292805
O1    O     O_R   0.511880 0.332340 0.577400 -0.560124
O2    O     O_R   0.488120 0.667660 0.422600 -0.520754
O3    O     O_R   0.474280 0.295500 0.332650 -0.565633
O4    O     O_R   0.525720 0.704500 0.667350 -0.549760
O5    O     O_R   0.335640 0.518390 0.622350 -0.493374
O6    O     O_R   0.664360 0.481610 0.377650 -0.562037
O7    O     O_R   0.298050 0.481550 0.377590 -0.603078
O8    O     O_R   0.701950 0.518450 0.622410 -0.587208
C19   C     C_2   0.854557 0.262673 0.311489 0.467157
H1    H     H_    0.868409 0.174564 0.332548 0.076125
O9    O     O_2   0.774618 0.259303 0.208231 -0.488607
C20   C     C_2   0.143052 0.736792 0.692372 0.549143
H2    H     H_    0.116893 0.826549 0.683767 0.057211
O10   O     O_2   0.231887 0.739257 0.786592 -0.423281
C21   C     C_2   0.074803 0.289224 0.579453 0.450178
H3    H     H_    0.119038 0.217979 0.505527 0.104067
O11   O     O_2   0.055035 0.275326 0.690890 -0.519765
C22   C     C_2   0.929119 0.709036 0.419897 0.412537
H4    H     H_    0.894575 0.785199 0.497192 0.100824
O12   O     O_2   0.943111 0.717694 0.304259 -0.494456
C23   C     C_2   0.961102 0.543088 0.788219 0.532673
H5    H     H_    0.900234 0.473385 0.811018 0.070443
O13   O     O_2   0.012025 0.641489 0.887168 -0.452010
C24   C     C_2   0.037813 0.463026 0.215112 0.502279
H6    H     H_    0.097836 0.537265 0.197723 0.132359
O14   O     O_2   0.985763 0.367808 0.112405 -0.490857
C25   C     C_2   0.333700 0.922842 0.526101 0.933841
O15   O     O_2   0.280551 0.811752 0.482021 -0.612289
O16   O     O_R   0.260980 0.024215 0.558004 -0.733437
H7    H     H_    0.166546 0.993195 0.542078 0.337277
C26   C     C_2   0.623357 0.162580 0.667605 0.896004
O17   O     O_2   0.623125 0.154049 0.786760 -0.581502
O18   O     O_R   0.723822 0.239386 0.648798 -0.754667
H8    H     H_    0.790761 0.278513 0.740655 0.348295
C27   C     C_2   0.698470 0.907733 0.600561 0.857879
O19   O     O_2   0.766770 0.883768 0.696080 -0.545721
O20   O     O_R   0.752788 0.963037 0.512197 -0.740856
H9    H     H_    0.848053 0.990996 0.546652 0.341493
C28   C     C_2   0.428856 0.022960 0.272875 0.943481
O21   O     O_2   0.347405 0.933698 0.256221 -0.459562
O22   O     O_R   0.464219 0.037355 0.149332 -0.668004
H10   H     H_    0.543705 0.101552 0.171945 0.332363
C29   C     C_2   0.428026 0.350417 0.824832 0.494322
H11   H     H_    0.443385 0.266481 0.853911 0.089036
O23   O     O_2   0.338736 0.340589 0.728566 -0.490087
C30   C     C_2   0.650034 0.564925 0.161093 0.495903
H12   H     H_    0.734668 0.527833 0.126016 0.081115
O24   O     O_2   0.661133 0.666246 0.262249 -0.506370
C31   C     C_2   0.606091 0.684469 0.949358 1.055913
O25   O     O_2   0.704561 0.733082 0.929655 -0.528513
O26   O     O_R   0.540683 0.757954 0.051331 -0.670063
H13   H     H_    0.590267 0.846245 0.109495 0.358913
C32   C     C_2   0.312776 0.409803 0.070988 1.006015
O27   O     O_2   0.254005 0.314184 0.078062 -0.534763
O28   O     O_R   0.250441 0.485470 0.001747 -0.702194
H14   H     H_    0.158112 0.448304 0.956800 0.363053

loop_
_geom_bond_atom_site_label_1
_geom_bond_atom_site_label_2
_ccdc_geom_bond_type
O18   H8    S    
C5    C21   S    
O26   H13   S    
Cu1   Cu2   S    
C23   H5    S    
C6    C9    S    
O28   H14   S    
C18   C29   S    
C15   C26   S    
C5    C11   S    
C6    C12   S    
C27   O20   S    
Cu2   O3    S    
C15   C16   S    
C28   O22   S    
C20   H2    S    
C3    O7    A    
Cu1   O4    S    
Cu2   O2    S    
C30   H12   S    
C29   O23   D    
C19   O9    D    
C11   C23   S    
Cu1   O5    S    
C20   O10   D    
C9    C11   S    
C22   O12   D    
O20   H9    S    
C1    O3    A    
C4    O6    A    
Cu2   O7    S    
C26   O18   S    
C7    C12   S    
C24   O14   D    
C7    C19   S    
O16   H7    S    
Cu1   N2    S    
C16   C25   S    
C12   C24   S    
C5    C7    S    
C6    C8    S    
Cu2   O6    S    
C25   O16   S    
C26   O17   D    
C17   N1    D    
Cu1   O1    S    
C32   O27   D    
C21   H3    S    
C32   O28   S    
C19   H1    S    
C17   C18   S    
C2    O4    A    
C8    C20   S    
C23   O13   D    
C10   C12   S    
C30   O24   D    
C22   H4    S    
C1    O1    A    
C13   C15   D    
C2    O2    A    
C14   C16   D    
C1    C13   S    
N2    C31   S    
C31   O26   S    
C7    C9    S    
C14   C27   S    
C24   H6    S    
C17   C30   S    
C18   N2    D    
N1    C32   S    
C3    O5    A    
C31   O25   D    
C21   O11   D    
C3    C10   S    
C27   O19   D    
C8    C11   S    
C6    C22   S    
C29   H11   S    
C28   O21   D    
C2    C14   S    
O22   H10   S    
C5    C10   S    
C13   C28   S    
Cu2   N1    S    
C8    C10   S    
C25   O15   D    
C4    C9    S    
Cu1   O8    S    
C4    O8    A    
