data_mof_unit_45433.cif
_audit_creation_date              2012-12-10T17:11:59-0500
_audit_creation_method            fapswitch 2.2
_symmetry_space_group_name_H-M    P1
_symmetry_Int_Tables_number       1
_space_group_crystal_system       triclinic
_cell_length_a                    11.800225
_cell_length_b                    12.951323
_cell_length_c                    15.899152
_cell_angle_alpha                 93.547307
_cell_angle_beta                  77.107656
_cell_angle_gamma                 101.065327
_cell_volume                      2324.09468201

loop_
_atom_site_label
_atom_site_type_symbol
_atom_type_description
_atom_site_fract_x
_atom_site_fract_y
_atom_site_fract_z
_atom_type_partial_charge
C1    C     C_R   0.523035 0.700822 0.498405 0.810267
C2    C     C_R   0.477087 0.299097 0.501085 0.804611
C3    C     C_R   0.365451 0.458925 0.080669 -0.214143
C4    C     C_R   0.634861 0.572087 0.923012 -0.215726
C5    C     C_R   0.280671 0.436442 0.030005 0.171944
C6    C     C_R   0.720520 0.591793 0.973108 0.173050
C7    C     C_R   0.461170 0.185014 0.506485 -0.056577
C8    C     C_R   0.538891 0.814733 0.492106 -0.059580
C9    C     C_R   0.646533 0.982678 0.433182 -0.185641
C10   C     C_R   0.352739 0.016647 0.564056 -0.187957
C11   C     C_R   0.641019 0.874565 0.440443 0.150652
C12   C     C_R   0.357466 0.124440 0.555786 0.153718
C13   C     C_R   0.444029 0.862773 0.533247 -0.293284
C14   C     C_R   0.556627 0.137250 0.466128 -0.296013
C15   C     C_R   0.448979 0.969668 0.524213 0.125509
C16   C     C_R   0.551224 0.030118 0.474409 0.125658
C17   C     C_R   0.940174 0.576018 0.596364 0.111013
C18   C     C_R   0.058671 0.423025 0.403531 0.105517
C19   C     C_R   0.828291 0.583313 0.578781 0.348220
C20   C     C_R   0.174086 0.421490 0.417567 0.352049
C21   C     C_R   0.856036 0.461436 0.462461 -0.018015
C22   C     C_R   0.141118 0.533285 0.540754 -0.023810
C23   C     C_R   0.429981 0.490680 0.666964 0.814531
C24   C     C_R   0.570342 0.511750 0.333380 0.812868
C25   C     C_R   0.978157 0.470520 0.465894 -0.028056
C26   C     C_R   0.020010 0.526295 0.535251 -0.031921
C27   C     C_R   0.392418 0.480476 0.761099 -0.114383
C28   C     C_R   0.608972 0.529761 0.240184 -0.112341
C29   C     C_R   0.232618 0.466189 0.888312 0.196791
C30   C     C_R   0.769115 0.553021 0.113040 0.197474
C31   C     C_R   0.274076 0.480182 0.799759 -0.244876
C32   C     C_R   0.727108 0.530713 0.200546 -0.245597
C33   C     C_R   0.472698 0.472409 0.813160 0.098946
C34   C     C_R   0.530385 0.547956 0.190217 0.103316
C35   C     C_R   0.436710 0.486037 0.903378 0.010165
C36   C     C_R   0.565197 0.540082 0.099637 0.009053
C37   C     C_R   0.314138 0.462666 0.941381 0.091395
C38   C     C_R   0.687687 0.562305 0.061134 0.090021
C39   C     C_R   0.518982 0.519982 0.956740 0.024740
C40   C     C_R   0.481837 0.509624 0.046700 0.026020
Cu1   Cu    Cu3+1 0.386820 0.492450 0.493500 0.927330
Cu2   Cu    Cu3+1 0.613180 0.507550 0.506500 0.927619
H1    H     H_    0.724231 0.029661 0.394038 0.134757
H2    H     H_    0.274358 0.969329 0.602158 0.134514
H3    H     H_    0.176049 0.581099 0.590550 0.153492
H4    H     H_    0.817379 0.408889 0.416980 0.149369
N1    N     N_R   0.216750 0.481110 0.483710 -0.197129
N2    N     N_R   0.783250 0.518890 0.516290 -0.196626
O1    O     O_R   0.419950 0.645670 0.495380 -0.581889
O2    O     O_R   0.580050 0.354330 0.504620 -0.582254
O3    O     O_R   0.611110 0.658410 0.506370 -0.580838
O4    O     O_R   0.388890 0.341590 0.493630 -0.590599
O5    O     O_R   0.350820 0.490050 0.621260 -0.594806
O6    O     O_R   0.649180 0.509950 0.378740 -0.594846
O7    O     O_R   0.541970 0.502800 0.632250 -0.580766
O8    O     O_R   0.458030 0.497200 0.367750 -0.582042
C41   C     C_3   0.163157 0.370077 0.069515 -0.881859
H5    H     H_    0.168368 0.329008 0.127417 0.224333
H6    H     H_    0.094729 0.419574 0.089923 0.239728
H7    H     H_    0.136904 0.306937 0.023448 0.241829
C42   C     C_3   0.839164 0.656059 0.933177 -0.877628
H8    H     H_    0.835217 0.696819 0.874759 0.222263
H9    H     H_    0.866610 0.719167 0.978886 0.240190
H10   H     H_    0.906256 0.605167 0.912985 0.240925
C43   C     C_3   0.243506 0.347623 0.359013 -0.790033
H11   H     H_    0.263293 0.371528 0.290989 0.190835
H12   H     H_    0.327791 0.340767 0.372237 0.274442
H13   H     H_    0.190376 0.266727 0.364084 0.200132
C44   C     C_3   0.768395 0.672532 0.621467 -0.794913
H14   H     H_    0.817824 0.723072 0.664915 0.196587
H15   H     H_    0.767067 0.727814 0.571785 0.233673
H16   H     H_    0.679214 0.645306 0.660361 0.245169
C45   C     C_3   0.972123 0.617669 0.680921 -0.933197
H17   H     H_    0.020575 0.564388 0.705076 0.230592
H18   H     H_    0.027035 0.697678 0.672436 0.237757
H19   H     H_    0.891950 0.618889 0.732661 0.240595
C46   C     C_3   0.026177 0.377364 0.319653 -0.914407
H20   H     H_    0.949158 0.403502 0.304799 0.223028
H21   H     H_    0.098572 0.406325 0.264386 0.237412
H22   H     H_    0.010042 0.290097 0.320216 0.240654
C47   C     C_3   0.426446 0.601252 0.230257 -0.809086
H23   H     H_    0.396954 0.640144 0.180730 0.226981
H24   H     H_    0.350100 0.544823 0.264632 0.243398
H25   H     H_    0.453234 0.664251 0.276415 0.233415
C48   C     C_3   0.582648 0.425618 0.776379 -0.806971
H26   H     H_    0.655680 0.485274 0.741791 0.240050
H27   H     H_    0.614124 0.392026 0.827656 0.228253
H28   H     H_    0.562052 0.359082 0.731384 0.236731
H29   H     H_    0.788095 0.516935 0.238709 0.170472
H30   H     H_    0.212407 0.488178 0.760262 0.169325
C49   C     C_3   0.106228 0.474656 0.924225 -0.905496
H31   H     H_    0.065270 0.503632 0.875969 0.224321
H32   H     H_    0.052468 0.397003 0.944998 0.244327
H33   H     H_    0.104147 0.533333 0.977910 0.250974
C50   C     C_3   0.895960 0.547362 0.076167 -0.904361
H34   H     H_    0.938314 0.517878 0.123288 0.224801
H35   H     H_    0.898666 0.490366 0.021334 0.250150
H36   H     H_    0.948103 0.626082 0.056962 0.244507
H37   H     H_    0.340354 0.434045 0.146829 0.158845
H38   H     H_    0.659156 0.598559 0.857156 0.161931
H39   H     H_    0.635774 0.184053 0.428321 0.148978
H40   H     H_    0.365352 0.816214 0.571815 0.148727
C51   C     C_3   0.254032 0.173154 0.602767 -0.827109
H41   H     H_    0.212176 0.203087 0.555576 0.249771
H42   H     H_    0.284297 0.238711 0.645651 0.230477
H43   H     H_    0.185218 0.115207 0.643519 0.216921
C52   C     C_3   0.740770 0.824480 0.388795 -0.833857
H44   H     H_    0.807106 0.881725 0.345635 0.219967
H45   H     H_    0.787229 0.793973 0.432520 0.241067
H46   H     H_    0.705568 0.759095 0.347714 0.229492

loop_
_geom_bond_atom_site_label_1
_geom_bond_atom_site_label_2
_ccdc_geom_bond_type
C8    C13   A    
C5    C37   A    
C44   H16   S    
C1    C8    S    
C45   H18   S    
Cu1   Cu2   S    
C2    C7    S    
C29   C49   S    
C47   H23   S    
C50   H36   S    
C48   H26   S    
C27   C33   A    
C17   C26   A    
C6    C42   S    
C35   C37   A    
C9    C16   A    
C10   C15   A    
C18   C46   S    
C41   H6    S    
C24   O6    A    
C15   C16   A    
C30   C38   A    
C44   H15   S    
C45   H17   S    
C42   H9    S    
C33   C48   S    
C2    O2    A    
C33   C35   A    
C7    C14   A    
C50   H34   S    
C43   H12   S    
C52   H44   S    
C6    C38   A    
C34   C47   S    
C23   C27   S    
Cu1   O4    S    
C18   C20   A    
Cu2   O3    S    
C21   N2    A    
C43   H13   S    
C48   H27   S    
C22   N1    A    
C28   C34   A    
C17   C45   S    
C52   H45   S    
C44   H14   S    
C18   C25   A    
C10   C12   A    
Cu1   O1    S    
C47   H24   S    
C23   O5    A    
C46   H21   S    
C7    C12   A    
C9    H1    S    
C10   H2    S    
C20   C43   S    
C28   C32   A    
C12   C51   S    
C4    C6    A    
C39   C40   A    
C19   N2    A    
C14   H39   S    
C25   C26   A    
C46   H20   S    
C27   C31   A    
C42   H10   S    
C35   C39   A    
Cu1   O8    S    
C30   C50   S    
Cu2   O7    S    
C49   H32   S    
C9    C11   A    
C32   H29   S    
C4    C39   A    
C36   C40   A    
C31   H30   S    
Cu1   N1    S    
C51   H42   S    
Cu2   N2    S    
C1    O3    A    
Cu1   O5    S    
C2    O4    A    
Cu2   O2    S    
C3    C40   A    
C13   C15   A    
C11   C52   S    
C52   H46   S    
C14   C16   A    
C19   C44   S    
C49   H31   S    
C47   H25   S    
C21   H4    S    
C48   H28   S    
C21   C25   A    
C24   C28   S    
C3    C5    A    
C50   H35   S    
C23   O7    A    
C24   O8    A    
C5    C41   S    
C4    H38   S    
C29   C31   A    
Cu2   O6    S    
C49   H33   S    
C30   C32   A    
C46   H22   S    
C41   H5    S    
C8    C11   A    
C36   C38   A    
C17   C19   A    
C51   H43   S    
C34   C36   A    
C42   H8    S    
C20   N1    A    
C3    H37   S    
C41   H7    S    
C22   H3    S    
C45   H19   S    
C43   H11   S    
C22   C26   A    
C29   C37   A    
C51   H41   S    
C13   H40   S    
C1    O1    A    
