data_mof_unit_47167.cif
_audit_creation_date              2012-12-11T14:49:46-0500
_audit_creation_method            fapswitch 2.2
_symmetry_space_group_name_H-M    P1
_symmetry_Int_Tables_number       1
_space_group_crystal_system       triclinic
_cell_length_a                    10.940227
_cell_length_b                    10.940229
_cell_length_c                    18.888062
_cell_angle_alpha                 90.0
_cell_angle_beta                  89.999951
_cell_angle_gamma                 120.000111
_cell_volume                      1957.80886919

loop_
_atom_site_label
_atom_site_type_symbol
_atom_type_description
_atom_site_fract_x
_atom_site_fract_y
_atom_site_fract_z
_atom_type_partial_charge
C1    C     C_R   0.528955 0.469659 0.646794 0.561495
C2    C     C_R   0.464736 0.530272 0.355091 0.559651
C3    C     C_R   0.471044 0.940703 0.146794 0.561490
C4    C     C_R   0.065538 0.535265 0.355091 0.559654
C5    C     C_R   0.386286 0.017036 0.536118 0.081203
C6    C     C_R   0.609412 0.621847 0.961847 0.071869
C7    C     C_R   0.982964 0.369251 0.536118 0.081206
C8    C     C_R   0.378152 0.987568 0.961848 0.071870
C9    C     C_R   0.630752 0.613713 0.536117 0.081205
C10   C     C_R   0.012437 0.390590 0.961847 0.071870
C11   C     C_R   0.017063 0.386303 0.036114 0.081208
C12   C     C_R   0.934459 0.469726 0.855092 0.559658
C13   C     C_R   0.621848 0.609435 0.461850 0.071871
C14   C     C_R   0.369240 0.982940 0.036115 0.081209
C15   C     C_R   0.987590 0.378156 0.461851 0.071871
C16   C     C_R   0.613698 0.630759 0.036114 0.081207
C17   C     C_R   0.390564 0.012409 0.461850 0.071867
C18   C     C_R   0.479928 0.970304 0.429792 0.010053
C19   C     C_R   0.515604 0.512458 0.076572 -0.002769
C20   C     C_R   0.029699 0.509627 0.429793 0.010054
C21   C     C_R   0.487542 0.003148 0.076572 -0.002767
C22   C     C_R   0.490379 0.520069 0.429791 0.010050
C23   C     C_R   0.530341 0.059296 0.646794 0.561495
C24   C     C_R   0.996853 0.484395 0.076572 -0.002768
C25   C     C_R   0.970293 0.479925 0.929793 0.010057
C26   C     C_R   0.512455 0.515596 0.576571 -0.002764
C27   C     C_R   0.509630 0.029707 0.929793 0.010056
C28   C     C_R   0.003148 0.487549 0.576572 -0.002762
C29   C     C_R   0.520075 0.490370 0.929793 0.010056
C30   C     C_R   0.484401 0.996855 0.576572 -0.002763
C31   C     C_R   0.562147 0.933016 0.471749 -0.135327
C32   C     C_R   0.435331 0.381984 0.043945 -0.146162
C33   C     C_R   0.066996 0.629138 0.471750 -0.135325
C34   C     C_R   0.530273 0.464734 0.855091 0.559659
C35   C     C_R   0.618018 0.053351 0.043946 -0.146159
C36   C     C_R   0.370873 0.437844 0.471747 -0.135329
C37   C     C_R   0.946647 0.564665 0.043946 -0.146159
C38   C     C_R   0.932960 0.562105 0.971754 -0.135327
C39   C     C_R   0.381991 0.435289 0.543938 -0.146162
C40   C     C_R   0.629142 0.067034 0.971754 -0.135326
C41   C     C_R   0.053319 0.618017 0.543941 -0.146159
C42   C     C_R   0.437891 0.370859 0.971753 -0.135328
C43   C     C_R   0.564703 0.946691 0.543940 -0.146161
C44   C     C_R   0.940704 0.471046 0.646794 0.561495
C45   C     C_R   0.535267 0.065541 0.855092 0.559659
C46   C     C_R   0.469658 0.528956 0.146793 0.561491
C47   C     C_R   0.469727 0.934462 0.355091 0.559653
C48   C     C_R   0.059297 0.530341 0.146794 0.561489
Cr1   Cr    Cr6+3 0.776430 0.541680 0.750000 1.110767
Cr2   Cr    Cr6+3 0.765250 0.223570 0.750000 1.110767
Cr3   Cr    Cr6+3 0.458320 0.234750 0.750000 1.110767
Cr4   Cr    Cr6+3 0.541680 0.776430 0.250000 1.110764
Cr5   Cr    Cr6+3 0.223570 0.765250 0.250000 1.110764
Cr6   Cr    Cr6+3 0.234750 0.458320 0.250000 1.110764
H1    H     H_    0.625807 0.892700 0.448892 0.193205
H2    H     H_    0.075773 0.711060 0.574082 0.191676
H3    H     H_    0.374257 0.266879 0.948898 0.193178
H4    H     H_    0.635292 0.924238 0.574080 0.191679
H5    H     H_    0.364762 0.288941 0.074088 0.191657
H6    H     H_    0.107318 0.733116 0.448894 0.193200
H7    H     H_    0.711063 0.075831 0.074089 0.191653
H8    H     H_    0.266899 0.374180 0.448890 0.193210
H9    H     H_    0.924168 0.635231 0.074090 0.191652
H10   H     H_    0.892607 0.625733 0.948899 0.193172
H11   H     H_    0.288950 0.364698 0.574078 0.191683
H12   H     H_    0.733122 0.107381 0.948898 0.193176
I1    I     I_    0.222352 0.040561 0.584468 -0.227444
I2    I     I_    0.919864 0.191401 0.398941 -0.227041
I3    I     I_    0.777623 0.818237 0.084455 -0.227415
I4    I     I_    0.271531 0.080128 0.398940 -0.227044
I5    I     I_    0.728388 0.808599 0.898930 -0.227012
I6    I     I_    0.959442 0.181793 0.584467 -0.227439
I7    I     I_    0.191401 0.919801 0.898931 -0.227006
I8    I     I_    0.818209 0.777650 0.584466 -0.227436
I9    I     I_    0.080209 0.271611 0.898929 -0.227013
I10   I     I_    0.040616 0.222378 0.084454 -0.227419
I11   I     I_    0.808602 0.728471 0.398939 -0.227031
I12   I     I_    0.181763 0.959388 0.084456 -0.227413
O1    O     O_R   0.916700 0.566820 0.669930 -0.488915
O2    O     O_R   0.566820 0.916700 0.330070 -0.495623
O3    O     O_R   0.083300 0.650120 0.169930 -0.488907
O4    O     O_R   0.349880 0.433180 0.330070 -0.495625
O5    O     O_R   0.649840 0.534790 0.674920 -0.472417
O6    O     O_R   0.884950 0.350160 0.825080 -0.486027
O7    O     O_R   0.465210 0.115050 0.674920 -0.472417
O8    O     O_R   0.649840 0.534790 0.825080 -0.486028
O9    O     O_R   0.884950 0.350160 0.674920 -0.472417
O10   O     O_R   0.465210 0.115050 0.825080 -0.486028
O11   O     O_R   0.534790 0.649840 0.174920 -0.472422
O12   O     O_R   0.650120 0.083300 0.830070 -0.495610
O13   O     O_R   0.350160 0.884950 0.325080 -0.486020
O14   O     O_R   0.115050 0.465210 0.174920 -0.472422
O15   O     O_R   0.534790 0.649840 0.325080 -0.486019
O16   O     O_R   0.350160 0.884950 0.174920 -0.472423
O17   O     O_R   0.115050 0.465210 0.325080 -0.486018
O18   O     O_3   0.666667 0.333333 0.750000 -0.294677
O19   O     O_3   0.333333 0.666667 0.250000 -0.294668
O20   O     O_R   0.433180 0.349880 0.669930 -0.488916
O21   O     O_R   0.916700 0.566820 0.830070 -0.495611
O22   O     O_R   0.650120 0.083300 0.669930 -0.488915
O23   O     O_R   0.433180 0.349880 0.830070 -0.495611
O24   O     O_R   0.566820 0.916700 0.169930 -0.488907
O25   O     O_R   0.083300 0.650120 0.330070 -0.495621
O26   O     O_R   0.349880 0.433180 0.169930 -0.488908

loop_
_geom_bond_atom_site_label_1
_geom_bond_atom_site_label_2
_ccdc_geom_bond_type
C29   C42   A    
Cr4   O19   S    
C5    I1    S    
C18   C47   S    
Cr3   O7    S    
C19   C46   S    
Cr2   O6    S    
C46   O11   A    
Cr4   O24   S    
C31   C43   A    
C14   C21   A    
Cr6   O26   S    
C11   I10   S    
C26   C39   A    
C5    C17   A    
C4    O25   A    
C11   C24   A    
C48   O3    A    
C12   O6    A    
Cr5   O3    S    
C34   O8    A    
C9    C13   A    
C12   O21   A    
C43   H4    S    
Cr2   O12   S    
Cr5   O13   S    
Cr6   O19   S    
C44   O9    A    
C2    O15   A    
Cr3   O18   S    
C27   C45   S    
Cr3   O20   S    
C7    C15   A    
C23   O22   A    
C17   I4    S    
C40   H12   S    
C39   H11   S    
Cr4   O11   S    
C6    I5    S    
C47   O2    A    
C36   H8    S    
C19   C32   A    
C42   H3    S    
C37   H9    S    
C9    C26   A    
C24   C37   A    
C38   H10   S    
C36   C39   A    
C15   C20   A    
C13   I11   S    
C34   O23   A    
C24   C48   S    
C23   C30   S    
C45   O10   A    
C7    I6    S    
Cr5   O19   S    
C46   O26   A    
C29   C34   S    
C28   C44   S    
C7    C28   A    
Cr1   O1    S    
C1    O20   A    
C41   H2    S    
Cr6   O14   S    
C37   C38   A    
C25   C38   A    
Cr1   O21   S    
C4    O17   A    
C10   I9    S    
C27   C40   A    
C17   C18   A    
Cr4   O15   S    
C35   H7    S    
C45   O12   A    
Cr6   O17   S    
Cr2   O9    S    
C20   C33   A    
C3    O24   A    
C33   H6    S    
C48   O14   A    
C1    C26   S    
C30   C43   A    
C3    C21   S    
Cr3   O23   S    
C9    I8    S    
Cr6   O4    S    
C10   C25   A    
C5    C30   A    
C8    C14   A    
Cr5   O16   S    
C47   O13   A    
Cr1   O8    S    
C44   O1    A    
C16   I3    S    
Cr3   O10   S    
C21   C35   A    
C1    O5    A    
C22   C36   A    
Cr2   O22   S    
C12   C25   S    
C33   C41   A    
Cr1   O5    S    
C35   C40   A    
C2    C22   S    
Cr2   O18   S    
Cr5   O25   S    
C16   C19   A    
C15   I2    S    
C8    I7    S    
C13   C22   A    
C3    O16   A    
C14   I12   S    
Cr1   O18   S    
C2    O4    A    
C10   C11   A    
C6    C16   A    
C4    C20   S    
C6    C29   A    
C23   O7    A    
C8    C27   A    
C32   C42   A    
C18   C31   A    
C32   H5    S    
C31   H1    S    
Cr4   O2    S    
C28   C41   A    
