data_mof_unit_48318.cif
_audit_creation_date              2013-03-05T15:44:19-0500
_audit_creation_method            fapswitch 2.2
_symmetry_space_group_name_H-M    P1
_symmetry_Int_Tables_number       1
_space_group_crystal_system       triclinic
_cell_length_a                    20.782638
_cell_length_b                    7.080204
_cell_length_c                    16.656615
_cell_angle_alpha                 89.945873
_cell_angle_beta                  92.893175
_cell_angle_gamma                 90.055589
_cell_volume                      2447.81672374

loop_
_atom_site_label
_atom_site_type_symbol
_atom_site_description
_atom_site_fract_x
_atom_site_fract_y
_atom_site_fract_z
_atom_type_partial_charge
O1    O     O_R   0.564840 0.505290 0.579830 -0.531943
O2    O     O_R   0.435160 0.005290 0.420170 -0.532327
O3    O     O_R   0.556720 0.179930 0.409350 -0.529805
O4    O     O_R   0.443280 0.679930 0.590650 -0.531336
C1    C     C_R   0.570762 0.345555 0.382087 1.013934
C2    C     C_R   0.429173 0.845255 0.617830 1.015318
O5    O     O_R   0.572280 0.175810 0.578530 -0.501269
O6    O     O_R   0.427720 0.675810 0.421470 -0.500723
O7    O     O_R   0.450830 0.001920 0.590540 -0.564854
O8    O     O_R   0.549170 0.501920 0.409460 -0.564495
C3    C     C_R   0.589817 0.345875 0.605258 0.939970
C4    C     C_R   0.410179 0.845863 0.394734 0.942379
O9    O     O_3   0.460130 0.338030 0.503750 -0.274954
O10   O     O_3   0.539870 0.838030 0.496250 -0.274671
V1    V     V_3+5 0.507400 0.064560 0.499310 1.368347
V2    V     V_3+5 0.492600 0.564560 0.500690 1.368256
C5    C     C_R   0.139168 0.897835 0.173814 -0.302803
C6    C     C_R   0.860812 0.397809 0.826201 -0.304772
C7    C     C_R   0.356852 0.870252 0.332044 -0.287697
C8    C     C_R   0.643163 0.370336 0.667907 -0.289192
C9    C     C_R   0.305587 0.077520 0.229265 0.392257
C10   C     C_R   0.694565 0.577725 0.770482 0.392835
C11   C     C_R   0.358811 0.026849 0.279748 0.518106
C12   C     C_R   0.641303 0.526962 0.720070 0.517925
C13   C     C_R   0.301534 0.756104 0.329279 0.686365
C14   C     C_R   0.698405 0.256201 0.670761 0.686968
C15   C     C_R   0.247447 0.803386 0.277716 -0.290764
C16   C     C_R   0.752505 0.303467 0.722305 -0.291285
C17   C     C_R   0.248247 0.969522 0.229491 -0.312211
C18   C     C_R   0.751826 0.469671 0.770364 -0.312371
C19   C     C_R   0.191919 0.022072 0.182580 0.696710
C20   C     C_R   0.808184 0.522179 0.817245 0.697373
C21   C     C_R   0.139404 0.734045 0.222268 0.507189
C22   C     C_R   0.860426 0.233888 0.777947 0.507577
C23   C     C_R   0.191949 0.689471 0.274335 0.750120
C24   C     C_R   0.807887 0.189403 0.725859 0.750589
C25   C     C_R   0.387325 0.950601 0.829189 0.279862
C26   C     C_R   0.613239 0.466628 0.172435 0.280189
H1    H     H_    0.309344 0.960392 0.951214 0.182943
H2    H     H_    0.691117 0.484221 0.050551 0.184533
C27   C     C_R   0.391052 0.859864 0.689441 -0.295090
C28   C     C_R   0.608869 0.361754 0.310450 -0.292875
C29   C     C_R   0.079908 0.900031 0.736343 0.529278
C30   C     C_R   0.920261 0.389665 0.263447 0.529711
C31   C     C_R   0.112519 0.922676 0.665684 0.216315
C32   C     C_R   0.887955 0.407423 0.334562 0.216348
C33   C     C_R   0.180332 0.938531 0.668793 0.271302
C34   C     C_R   0.820284 0.427499 0.331984 0.271150
C35   C     C_R   0.216328 0.912942 0.743395 -0.030828
C36   C     C_R   0.783973 0.411436 0.257114 -0.030957
C37   C     C_R   0.181795 0.916252 0.816096 -0.193624
C38   C     C_R   0.818421 0.419533 0.184392 -0.193921
C39   C     C_R   0.285813 0.897881 0.748797 -0.004690
C40   C     C_R   0.714373 0.400618 0.251658 -0.004074
C41   C     C_R   0.319280 0.934274 0.823663 -0.238758
C42   C     C_R   0.681142 0.446484 0.177585 -0.237922
C43   C     C_R   0.284697 0.945456 0.892729 0.056547
C44   C     C_R   0.715726 0.462705 0.108683 0.055409
C45   C     C_R   0.218120 0.929643 0.890129 0.385124
C46   C     C_R   0.782112 0.441965 0.110761 0.383779
C47   C     C_R   0.323601 0.840818 0.684011 0.549682
C48   C     C_R   0.676191 0.338947 0.315452 0.548056
C49   C     C_R   0.422241 0.918315 0.761240 0.525157
C50   C     C_R   0.578106 0.428778 0.239724 0.526741
C51   C     C_R   0.112601 0.908808 0.811669 -0.247858
C52   C     C_R   0.887520 0.407261 0.188425 -0.247284
O11   O     O_R   0.950790 0.256670 0.090520 -0.556265
O12   O     O_R   0.049210 0.756670 0.909480 -0.557066
O13   O     O_R   0.927720 0.590370 0.921470 -0.483619
O14   O     O_R   0.072280 0.090370 0.078530 -0.483556
C53   C     C_R   0.912686 0.420695 0.891517 0.988911
C54   C     C_R   0.087303 0.920678 0.108497 0.990877
O15   O     O_R   0.943270 0.586180 0.090640 -0.538134
O16   O     O_R   0.056730 0.086180 0.909360 -0.537861
O17   O     O_R   0.064850 0.759970 0.079840 -0.518157
O18   O     O_R   0.935150 0.259970 0.920160 -0.518695
C55   C     C_R   0.928621 0.417035 0.117453 0.996242
C56   C     C_R   0.071390 0.917301 0.882551 0.996993
O19   O     O_3   0.039850 0.428050 0.996240 -0.270886
O20   O     O_3   0.960150 0.928050 0.003760 -0.270697
V3    V     V_3+5 0.992610 0.701540 0.000700 1.376575
V4    V     V_3+5 0.007390 0.201540 0.999300 1.376880
F1    F     F_    0.187750 0.193717 0.146441 -0.568320
F2    F     F_    0.812488 0.693846 0.853204 -0.568090
F3    F     F_    0.296577 0.753615 0.618102 -0.623394
F4    F     F_    0.702615 0.244354 0.379835 -0.623725
F5    F     F_    0.014523 0.888449 0.731791 -0.570161
F6    F     F_    0.985547 0.373829 0.267562 -0.572005
N1    N     N_R   0.210826 0.006478 0.598718 0.160836
O21   O     O_R   0.248345 0.153716 0.603865 -0.294252
O22   O     O_R   0.199070 0.927227 0.529000 -0.190996
N2    N     N_R   0.790451 0.489873 0.403349 0.160489
O23   O     O_R   0.754066 0.639499 0.401020 -0.292883
O24   O     O_R   0.801680 0.402864 0.471522 -0.190015
N3    N     N_R   0.075468 0.945246 0.591188 0.166774
O25   O     O_R   0.029590 0.826323 0.571496 -0.155710
O26   O     O_R   0.080821 0.099007 0.549180 -0.192685
N4    N     N_R   0.925285 0.419843 0.409290 0.167314
O27   O     O_R   0.970072 0.295949 0.426637 -0.156080
O28   O     O_R   0.921324 0.569257 0.454200 -0.193451
N5    N     N_R   0.188935 0.942597 0.964888 0.023245
O29   O     O_R   0.179464 0.110732 0.993054 -0.287845
O30   O     O_R   0.195363 0.800848 0.014323 -0.381018
N6    N     N_R   0.811160 0.455812 0.035922 0.025708
O31   O     O_R   0.820976 0.624128 0.007916 -0.281805
O32   O     O_R   0.804327 0.314649 0.986354 -0.384242
F7    F     F_    0.087987 0.615299 0.219715 -0.566626
F8    F     F_    0.911675 0.114847 0.780742 -0.564342
N7    N     N_R   0.312160 0.233540 0.175232 0.192032
O33   O     O_R   0.333263 0.395500 0.202463 -0.223074
O34   O     O_R   0.307931 0.204896 0.097991 -0.219472
N8    N     N_R   0.688093 0.733815 0.824363 0.192326
O35   O     O_R   0.666897 0.895573 0.797005 -0.223067
O36   O     O_R   0.692387 0.705294 0.901629 -0.221428
F9    F     F_    0.188799 0.530011 0.319382 -0.518701
F10   F     F_    0.810909 0.029824 0.681004 -0.518777
F11   F     F_    0.413734 0.130564 0.276415 -0.589767
F12   F     F_    0.586431 0.630588 0.723357 -0.588013
F13   F     F_    0.299549 0.604669 0.379287 -0.563116
F14   F     F_    0.700298 0.104745 0.620880 -0.562913
F15   F     F_    0.487161 0.944396 0.764999 -0.576376
F16   F     F_    0.513387 0.458553 0.236493 -0.578795
N9    N     N_R   0.421380 0.007520 0.902496 0.134993
O37   O     O_R   0.405583 0.162956 0.938177 -0.256578
O38   O     O_R   0.473719 0.919799 0.927166 -0.161088
N10   N     N_R   0.579619 0.533431 0.100369 0.135434
O39   O     O_R   0.596675 0.691639 0.067694 -0.258396
O40   O     O_R   0.526568 0.451557 0.074113 -0.162476

loop_
_geom_bond_atom_site_label_1
_geom_bond_atom_site_label_2
_geom_bond_distance
_ccdc_geom_bond_type
C1    C28   1.469402 S    
N5    O29   1.298772 A    
C15   C17   1.424306 A    
C30   C52   1.397873 A    
N3    O25   1.301178 A    
O11   C55   1.313598 A    
C27   C47   1.406526 A    
O2    C4    1.304121 A    
C2    O7    1.287754 A    
N6    O32   1.300073 A    
O3    V1    2.028361 S    
N9    O37   1.301464 A    
C33   C35   1.429189 A    
O5    C3    1.328409 A    
C48   F4    1.356499 S    
N10   O39   1.301585 A    
C6    C20   1.406798 A    
O12   V3    2.005760 S    
C14   F14   1.358980 S    
C34   C36   1.429239 A    
N7    O34   1.301219 A    
C53   O18   1.310747 A    
C35   C39   1.446379 A    
C43   C45   1.386561 A    
C44   C46   1.386290 A    
H1    C43   1.082707 S    
C19   F1    1.356582 S    
C37   C51   1.437119 A    
O13   C53   1.332074 A    
N6    O31   1.299035 A    
C38   C46   1.416062 A    
N9    O38   1.301341 A    
C26   N10   1.437961 S    
C25   N9    1.437835 S    
C39   C47   1.425282 A    
C8    C12   1.411198 A    
C35   C37   1.438693 A    
C2    C27   1.468643 S    
O1    C3    1.304161 A    
C36   C38   1.438889 A    
C23   F9    1.358364 S    
N1    O22   1.302081 A    
C28   C48   1.406851 A    
O6    C4    1.328275 A    
C31   C33   1.412028 A    
C32   N4    1.435804 S    
N5    O30   1.300266 A    
C21   F7    1.358047 S    
C33   N1    1.438217 S    
C5    C21   1.412124 A    
O16   V4    2.030244 S    
C54   O17   1.310647 A    
O14   V4    2.000067 S    
C13   F13   1.358972 S    
O15   V3    2.028304 S    
N8    O35   1.301194 A    
C25   C49   1.394096 A    
C30   C32   1.396590 A    
C26   C50   1.393846 A    
C39   C41   1.420534 A    
O12   C56   1.313785 A    
C20   F2    1.356393 S    
C40   C42   1.420683 A    
C3    C8    1.493738 S    
H2    C44   1.082688 S    
C45   N5    1.415439 S    
O20   V4    2.173087 S    
O18   V4    1.990784 S    
O19   V3    2.174909 S    
O17   V3    1.990696 S    
C40   C48   1.425830 A    
C15   C23   1.405598 A    
C9    C17   1.415437 A    
O4    V2    2.030304 S    
C7    C11   1.411175 A    
C29   C31   1.396483 A    
C29   C51   1.397757 A    
N2    O24   1.302160 A    
C49   F15   1.359922 S    
C46   N6    1.415500 S    
O1    V2    1.992029 S    
C36   C40   1.446696 A    
O2    V1    1.991938 S    
C6    C22   1.412144 A    
C47   F3    1.356546 S    
C5    C54   1.501086 S    
N8    O36   1.301174 A    
O4    C2    1.294656 A    
N4    O28   1.301290 A    
C41   C43   1.389247 A    
O16   C56   1.318094 A    
C5    C19   1.406829 A    
C10   C12   1.401963 A    
C37   C45   1.416210 A    
C27   C49   1.394218 A    
C24   F10   1.358375 S    
C28   C50   1.394719 A    
C38   C52   1.436965 A    
C6    C53   1.501233 S    
C52   C55   1.494509 S    
N10   O40   1.301324 A    
C51   C56   1.494458 S    
C10   C18   1.415451 A    
C14   C16   1.419727 A    
O20   V3    1.742237 S    
O3    C1    1.295460 A    
C11   F11   1.360115 S    
O19   V4    1.740943 S    
C9    N7    1.434977 S    
N3    O26   1.301287 A    
C13   C15   1.419861 A    
C12   F12   1.360062 S    
C22   F8    1.357797 S    
C9    C11   1.402006 A    
O7    V1    2.016458 S    
C29   F5    1.359556 S    
C16   C18   1.424324 A    
C17   C19   1.423851 A    
O8    V2    2.017587 S    
N7    O33   1.301129 A    
C18   C20   1.423807 A    
C8    C14   1.403413 A    
C50   F16   1.360038 S    
C4    C7    1.493865 S    
O5    V1    2.000005 S    
N2    O23   1.301583 A    
C21   C23   1.395995 A    
C42   C44   1.389187 A    
C22   C24   1.395851 A    
C7    C13   1.403537 A    
O13   V3    2.000018 S    
C25   C41   1.417130 A    
C32   C34   1.412181 A    
C1    O8    1.287434 A    
C26   C42   1.416805 A    
C16   C24   1.405452 A    
O11   V4    2.006762 S    
O6    V2    2.000053 S    
N4    O27   1.301263 A    
C34   N2    1.438181 S    
O9    V2    1.741154 S    
O15   C55   1.318473 A    
O10   V1    1.742448 S    
O14   C54   1.331915 A    
N1    O21   1.301527 A    
C30   F6    1.359820 S    
C10   N8    1.435008 S    
C31   N3    1.435821 S    
