data_mof_unit_20325.cif
_audit_creation_date              2012-12-10T20:51:45-0500
_audit_creation_method            fapswitch 2.2
_symmetry_space_group_name_H-M    P1
_symmetry_Int_Tables_number       1
_space_group_crystal_system       triclinic
_cell_length_a                    8.0896
_cell_length_b                    8.923549
_cell_length_c                    16.697512
_cell_angle_alpha                 89.610552
_cell_angle_beta                  93.951622
_cell_angle_gamma                 89.987033
_cell_volume                      1202.46532992

loop_
_atom_site_label
_atom_site_type_symbol
_atom_type_description
_atom_site_fract_x
_atom_site_fract_y
_atom_site_fract_z
_atom_type_partial_charge
C1    C     C_R   0.499982 0.217931 0.499986 0.930689
C2    C     C_R   0.609600 0.459155 0.136312 0.501517
C3    C     C_R   0.544621 0.358001 0.899844 -0.114593
C4    C     C_R   0.457537 0.473421 0.090793 -0.120241
C5    C     C_R   0.692510 0.386080 0.863245 0.323622
C6    C     C_R   0.313769 0.515118 0.128008 0.330495
C7    C     C_R   0.684373 0.444703 0.785174 0.313530
C8    C     C_R   0.320102 0.529608 0.211637 0.320044
C9    C     C_1   0.499986 0.065183 0.499962 -0.173399
C10   C     C_1   0.499976 0.934791 0.499946 -0.184947
C11   C     C_3   0.882032 0.224867 0.926297 0.292699
C12   C     C_R   0.500003 0.782055 0.499957 0.898429
C13   C     C_3   0.917496 0.131624 0.852664 -0.834800
C14   C     C_3   0.158067 0.657752 0.035677 0.180096
C15   C     C_3   0.980833 0.715322 0.024602 -0.728879
C16   C     C_3   0.847497 0.647841 0.770022 0.171381
C17   C     C_3   0.011408 0.702279 0.741121 -0.697511
C18   C     C_3   0.167100 0.718878 0.258946 0.151101
C19   C     C_3   0.005290 0.757103 0.295410 -0.671195
C20   C     C_R   0.520450 0.490849 0.654314 0.982972
C21   C     C_R   0.479647 0.503124 0.345463 0.987983
C22   C     C_R   0.530362 0.449295 0.739538 -0.498921
C23   C     C_R   0.470760 0.502152 0.257597 -0.508597
C24   C     C_R   0.386196 0.398627 0.774211 0.453334
C25   C     C_R   0.615613 0.471074 0.218675 0.468930
C26   C     C_R   0.393202 0.356591 0.854102 0.487198
F1    F     F_    0.763974 0.447147 0.260037 -0.577436
F2    F     F_    0.237114 0.391433 0.731698 -0.599279
F3    F     F_    0.753220 0.432365 0.101171 -0.585765
F4    F     F_    0.251296 0.321746 0.888733 -0.624690
H1    H     H_    0.783129 0.170604 0.959381 0.112346
H2    H     H_    0.899088 0.628331 0.995862 0.307107
H3    H     H_    0.848156 0.670142 0.835674 0.130530
H4    H     H_    0.745827 0.713568 0.737997 0.099676
H5    H     H_    0.018682 0.675966 0.676525 0.265973
H6    H     H_    0.022009 0.825410 0.749193 0.177897
H7    H     H_    0.115901 0.647336 0.776555 0.276849
H8    H     H_    0.170101 0.780328 0.200841 0.114145
H9    H     H_    0.271344 0.758527 0.300508 0.107042
H10   H     H_    0.997033 0.696229 0.353220 0.259248
H11   H     H_    0.999411 0.879456 0.306559 0.185887
H12   H     H_    0.995001 0.223928 0.968010 0.225897
H13   H     H_    0.898680 0.725147 0.253566 0.267430
H14   H     H_    0.005459 0.191214 0.815501 0.348794
H15   H     H_    0.972007 0.022083 0.872269 0.194371
H16   H     H_    0.800971 0.110176 0.815410 0.210372
H17   H     H_    0.199474 0.629497 0.975528 0.178123
H18   H     H_    0.237075 0.750517 0.061518 0.068665
H19   H     H_    0.934915 0.744305 0.083732 0.254347
H20   H     H_    0.976024 0.816921 0.985746 0.163831
N1    N     N_1   0.073640 0.500030 0.499990 -0.006705
N2    N     N_1   0.926360 0.499970 0.500010 -0.006451
N3    N     N_2   0.547914 0.360220 0.983939 -0.028840
N4    N     N_2   0.447509 0.453605 0.007121 -0.077252
O1    O     O_R   0.636850 0.285340 0.500000 -0.610530
O2    O     O_3   0.161673 0.527749 0.084823 -0.489583
O3    O     O_3   0.828844 0.493329 0.753639 -0.497427
O4    O     O_3   0.175721 0.562311 0.247836 -0.483623
O5    O     O_R   0.363150 0.714660 0.500000 -0.633328
O6    O     O_R   0.363100 0.285350 0.500000 -0.607587
O7    O     O_R   0.636900 0.714650 0.500000 -0.630497
O8    O     O_R   0.652140 0.498630 0.616140 -0.583636
O9    O     O_R   0.347860 0.501370 0.383860 -0.584449
O10   O     O_R   0.378390 0.498650 0.616130 -0.559573
O11   O     O_R   0.621610 0.501350 0.383870 -0.560757
O12   O     O_3   0.845345 0.376351 0.905869 -0.539900
Zn1   Zn    Zn3+2 0.682780 0.499990 0.500010 1.038902
Zn2   Zn    Zn3+2 0.317220 0.500010 0.499990 1.038936

loop_
_geom_bond_atom_site_label_1
_geom_bond_atom_site_label_2
_ccdc_geom_bond_type
C20   O10   A    
O1    Zn1   S    
C18   H9    S    
C14   H17   S    
C17   H6    S    
O5    Zn2   S    
C25   F1    S    
C7    C22   A    
C11   C13   S    
C9    C10   T    
O7    Zn1   S    
C2    C4    A    
C11   O12   S    
N1    Zn2   S    
C4    N4    S    
C3    C5    A    
C15   H19   S    
C18   H8    S    
C11   H1    S    
C15   H2    S    
C17   H7    S    
N3    N4    D    
C13   H14   S    
C14   O2    S    
C13   H15   S    
C12   O7    A    
C3    N3    S    
C8    O4    S    
N2    Zn1   S    
C10   C12   S    
O8    Zn1   S    
C2    F3    S    
O10   Zn2   S    
C1    O6    A    
C24   C26   A    
C19   H13   S    
C26   F4    S    
C2    C25   A    
C16   O3    S    
C23   C25   A    
C21   C23   S    
C20   O8    A    
C13   H16   S    
C16   H3    S    
C22   C24   A    
C1    O1    A    
C21   O9    A    
C19   H10   S    
N1    N2    T    
C24   F2    S    
C8    C23   A    
C1    C9    S    
O6    Zn2   S    
C11   H12   S    
C4    C6    A    
C18   C19   S    
C15   H20   S    
C6    O2    S    
C5    C7    A    
C14   H18   S    
C14   C15   S    
C5    O12   S    
C6    C8    A    
C17   H5    S    
C16   H4    S    
O9    Zn2   S    
C12   O5    A    
C21   O11   A    
C7    O3    S    
C3    C26   A    
C18   O4    S    
C19   H11   S    
C20   C22   S    
C16   C17   S    
O11   Zn1   S    
