data_mof_unit_19416.cif
_audit_creation_date              2012-12-10T16:51:10-0500
_audit_creation_method            fapswitch 2.2
_symmetry_space_group_name_H-M    P1
_symmetry_Int_Tables_number       1
_space_group_crystal_system       triclinic
_cell_length_a                    27.875024
_cell_length_b                    8.660841
_cell_length_c                    7.413835
_cell_angle_alpha                 103.105328
_cell_angle_beta                  93.959723
_cell_angle_gamma                 92.527701
_cell_volume                      1735.78570178

loop_
_atom_site_label
_atom_site_type_symbol
_atom_type_description
_atom_site_fract_x
_atom_site_fract_y
_atom_site_fract_z
_atom_type_partial_charge
C1    C     C_R   0.498538 0.199497 0.453014 0.892840
C2    C     C_R   0.501462 0.800503 0.546986 0.892839
C3    C     C_R   0.101811 0.505183 0.484870 -0.157419
C4    C     C_R   0.898189 0.494820 0.515126 -0.157418
C5    C     C_R   0.124328 0.363138 0.411203 -0.086856
C6    C     C_R   0.875672 0.636865 0.588793 -0.086857
C7    C     C_R   0.095293 0.223015 0.332216 0.456654
C8    C     C_R   0.904707 0.776988 0.667780 0.456655
C9    C     C_R   0.130321 0.649512 0.552287 -0.096847
C10   C     C_R   0.869679 0.350491 0.447709 -0.096848
C11   C     C_R   0.354223 0.499252 0.507728 -0.112822
C12   C     C_R   0.645777 0.500750 0.492271 -0.112823
C13   C     C_R   0.971653 0.354975 0.436186 0.015170
C14   C     C_R   0.028347 0.645028 0.563809 0.015170
C15   C     C_R   0.977588 0.641408 0.577040 0.023032
C16   C     C_R   0.022412 0.358595 0.422955 0.023032
C17   C     C_R   0.949263 0.497133 0.509049 0.080479
C18   C     C_R   0.050737 0.502870 0.490947 0.080479
C19   C     C_R   0.942587 0.212030 0.383098 -0.231863
C20   C     C_R   0.057413 0.787973 0.616897 -0.231864
C21   C     C_R   0.892835 0.208421 0.385378 0.472613
C22   C     C_R   0.107165 0.791582 0.614617 0.472613
C23   C     C_R   0.407346 0.499008 0.503138 0.803310
C24   C     C_R   0.592654 0.500993 0.496862 0.803311
C25   C     C_R   0.045661 0.222753 0.337731 -0.250588
C26   C     C_R   0.954339 0.777250 0.662265 -0.250588
C27   C     C_2   0.497783 0.031492 0.426481 -0.371446
C28   C     C_2   0.502217 0.968508 0.573519 -0.371446
C29   C     C_R   0.175071 0.367346 0.418702 0.616076
C30   C     C_R   0.824929 0.632657 0.581295 0.616076
C31   C     C_R   0.180897 0.645877 0.552742 0.605494
C32   C     C_R   0.819103 0.354126 0.447255 0.605494
C33   C     C_R   0.280118 0.524246 0.665894 -0.091490
C34   C     C_R   0.719882 0.475760 0.334105 -0.091487
C35   C     C_R   0.330317 0.520172 0.674705 0.219775
C36   C     C_R   0.669683 0.479835 0.325295 0.219778
C37   C     C_R   0.326253 0.481079 0.337562 -0.247522
C38   C     C_R   0.673747 0.518919 0.662436 -0.247524
C39   C     C_R   0.276393 0.484603 0.331617 -0.077403
C40   C     C_R   0.723607 0.515396 0.668381 -0.077404
C41   C     C_R   0.253227 0.506213 0.495494 0.273601
C42   C     C_R   0.746773 0.493789 0.504504 0.273603
Cu1   Cu    Cu3+1 0.505380 0.517380 0.684380 0.938762
Cu2   Cu    Cu3+1 0.494620 0.482620 0.315620 0.938764
H1    H     H_    0.342840 0.463575 0.207337 0.193762
H2    H     H_    0.657160 0.536420 0.792662 0.193766
H3    H     H_    0.463067 0.375266 0.947716 0.219362
H4    H     H_    0.536933 0.624734 0.052284 0.219362
H5    H     H_    0.255650 0.470282 0.199220 0.162851
H6    H     H_    0.744351 0.529714 0.800778 0.162850
H7    H     H_    0.738263 0.461071 0.207717 0.157188
H8    H     H_    0.261737 0.538939 0.792281 0.157190
H9    H     H_    0.957425 0.098014 0.341555 0.173633
H10   H     H_    0.042575 0.901989 0.658440 0.173633
H11   H     H_    0.026163 0.113082 0.268330 0.174495
H12   H     H_    0.973837 0.886921 0.731666 0.174495
H13   H     H_    0.493562 0.959384 0.284991 0.176117
H14   H     H_    0.506437 0.040615 0.715009 0.176117
N1    N     N_R   0.201717 0.506569 0.488665 -0.487901
N2    N     N_R   0.798283 0.493434 0.511332 -0.487901
N3    N     N_2   0.486510 0.456430 0.038510 -0.219107
N4    N     N_2   0.513490 0.543570 0.961490 -0.219108
O1    O     O_R   0.503500 0.286120 0.619780 -0.585507
O2    O     O_R   0.496500 0.713880 0.380220 -0.585507
O3    O     O_R   0.494410 0.256780 0.308360 -0.586428
O4    O     O_R   0.505590 0.743220 0.691640 -0.586429
O5    O     O_R   0.434810 0.514700 0.655690 -0.588747
O6    O     O_R   0.565190 0.485300 0.344310 -0.588745
O7    O     O_R   0.425720 0.485350 0.344280 -0.586251
O8    O     O_R   0.574280 0.514650 0.655720 -0.586252
O9    O     O_2   0.198174 0.233741 0.360760 -0.419655
O10   O     O_2   0.801826 0.766262 0.639238 -0.419655
O11   O     O_2   0.790437 0.220736 0.383117 -0.437702
O12   O     O_2   0.209563 0.779267 0.616878 -0.437703
Cl1   Cl    Cl    0.117536 0.042211 0.215384 -0.476566
Cl2   Cl    Cl    0.882464 0.957792 0.784612 -0.476566
N5    N     N_2   0.645042 0.467546 0.147745 -0.446833
H15   H     H_    0.619812 0.549598 0.140212 0.264186
C43   C     C_3   0.630998 0.307208 0.045252 -0.615727
H16   H     H_    0.613647 0.309601 0.906593 0.229232
H17   H     H_    0.605005 0.249885 0.120653 0.233408
H18   H     H_    0.663199 0.235974 0.024778 0.243531
N6    N     N_2   0.354958 0.532469 0.852256 -0.446832
H19   H     H_    0.380187 0.450417 0.859796 0.264187
C44   C     C_3   0.369002 0.692809 0.954739 -0.615727
H20   H     H_    0.386347 0.690424 0.093410 0.229231
H21   H     H_    0.336803 0.764051 0.975187 0.243533
H22   H     H_    0.395000 0.750118 0.879345 0.233408
Cl3   Cl    Cl    0.862726 0.018055 0.309482 -0.450895
Cl4   Cl    Cl    0.137274 0.981948 0.690513 -0.450895

loop_
_geom_bond_atom_site_label_1
_geom_bond_atom_site_label_2
_ccdc_geom_bond_type
C8    C26   A    
C23   O7    A    
C34   C42   A    
Cu1   O1    S    
C39   C41   A    
C21   Cl3   S    
N5    H15   S    
Cu2   O2    S    
C33   H8    S    
C34   H7    S    
C19   C21   A    
C36   N5    S    
C9    C22   A    
C31   N1    A    
C8    Cl2   S    
C3    C18   A    
C23   O5    A    
C11   C37   A    
C14   C18   A    
C29   N1    A    
C30   N2    A    
C1    O3    A    
C12   C36   A    
C19   H9    S    
C40   C42   A    
Cu2   O3    S    
C1    O1    A    
C2    O2    A    
C9    C31   A    
C5    C29   A    
N5    C43   S    
C10   C21   A    
C13   C19   A    
C44   H21   S    
C24   O8    A    
C14   C20   A    
C41   N1    S    
C4    C6    A    
C27   H13   S    
C42   N2    S    
C32   O11   S    
C5    C7    A    
C35   N6    S    
C15   C26   A    
C7    Cl1   S    
C2    O4    A    
C44   H20   S    
C6    C30   A    
Cu1   Cu2   S    
C3    C9    A    
H4    N4    S    
N6    H19   S    
C22   Cl4   S    
Cu2   O7    S    
C16   C18   A    
C4    C17   A    
C20   H10   S    
N6    C44   S    
C20   C22   A    
Cu1   O8    S    
Cu2   O6    S    
C32   N2    A    
C37   H1    S    
C43   H17   S    
C44   H22   S    
C16   C25   A    
C15   C17   A    
C39   H5    S    
C25   H11   S    
C30   O10   S    
C3    C5    A    
C26   H12   S    
H3    N3    S    
C43   H18   S    
C6    C8    A    
C28   H14   S    
Cu2   N3    S    
C12   C24   S    
C7    C25   A    
C13   C17   A    
C33   C41   A    
C11   C35   A    
C37   C39   A    
C38   C40   A    
Cu1   O4    S    
C40   H6    S    
C11   C23   S    
C33   C35   A    
C34   C36   A    
C12   C38   A    
N3    N4    D    
C31   O12   S    
C38   H2    S    
C24   O6    A    
C43   H16   S    
C10   C32   A    
Cu1   O5    S    
C13   C16   A    
C27   C28   D    
C1    C27   S    
C14   C15   A    
C2    C28   S    
C4    C10   A    
Cu1   N4    S    
C29   O9    S    
