data_mof_unit_43307.cif
_audit_creation_date              2012-12-10T17:08:09-0500
_audit_creation_method            fapswitch 2.2
_symmetry_space_group_name_H-M    P1
_symmetry_Int_Tables_number       1
_space_group_crystal_system       triclinic
_cell_length_a                    23.491098
_cell_length_b                    11.134475
_cell_length_c                    9.957593
_cell_angle_alpha                 111.796655
_cell_angle_beta                  97.880691
_cell_angle_gamma                 91.830426
_cell_volume                      2385.73633748

loop_
_atom_site_label
_atom_site_type_symbol
_atom_type_description
_atom_site_fract_x
_atom_site_fract_y
_atom_site_fract_z
_atom_type_partial_charge
C1    C     C_R   0.499051 0.254537 0.440761 0.778158
C2    C     C_R   0.505840 0.744939 0.559134 0.699059
C3    C     C_R   0.242277 0.606900 0.450814 -0.041563
C4    C     C_R   0.745318 0.437550 0.328710 -0.059532
C5    C     C_R   0.302594 0.607859 0.472917 0.358624
C6    C     C_R   0.688016 0.418439 0.347668 0.359025
C7    C     C_R   0.328870 0.505560 0.502082 -0.270406
C8    C     C_R   0.671396 0.478997 0.487803 -0.316675
C9    C     C_R   0.294628 0.407566 0.520544 -0.165274
C10   C     C_R   0.715271 0.530766 0.612739 -0.142857
C11   C     C_R   0.235105 0.418739 0.521411 0.435091
C12   C     C_R   0.773595 0.528343 0.595332 0.421044
C13   C     C_R   0.208327 0.514441 0.479009 0.054718
C14   C     C_R   0.788781 0.489481 0.453353 0.060285
C15   C     C_2   0.499272 0.114357 0.412264 0.202992
C16   C     C_2   0.524866 0.879352 0.587016 0.227072
C17   C     C_2   0.516736 0.075292 0.525138 -0.056051
C18   C     C_2   0.493789 0.946579 0.517945 -0.042342
C19   C     C_2   0.509103 0.495953 0.073581 0.009778
C20   C     C_2   0.493017 0.492379 0.918906 -0.011086
C21   C     C_R   0.391265 0.498051 0.500482 0.869867
C22   C     C_R   0.608891 0.493573 0.497183 0.814828
C23   C     C_R   0.880291 0.616328 0.497107 0.675724
C24   C     C_R   0.112749 0.409947 0.358122 0.670884
C25   C     C_R   0.873820 0.387090 0.367776 0.584127
C26   C     C_R   0.122080 0.620974 0.547002 0.587852
C27   C     C_R   0.931740 0.393593 0.346659 -0.114104
C28   C     C_R   0.061999 0.628498 0.522828 -0.112862
C29   C     C_R   0.966395 0.511406 0.425661 -0.129979
C30   C     C_R   0.026761 0.514615 0.431013 -0.127399
C31   C     C_R   0.940748 0.624789 0.502826 -0.118682
C32   C     C_R   0.052107 0.402987 0.347886 -0.115138
C33   C     C_R   0.956404 0.284622 0.254655 0.327414
C34   C     C_R   0.036247 0.744662 0.591514 0.327925
C35   C     C_R   0.016701 0.288367 0.257336 0.424160
C36   C     C_R   0.975721 0.742340 0.583985 0.429204
Cu1   Cu    Cu3+1 0.509980 0.521810 0.644910 1.061540
Cu2   Cu    Cu3+1 0.490020 0.478190 0.355090 1.084335
N1    N     N_R   0.848793 0.498017 0.436900 -0.465682
N2    N     N_R   0.146262 0.515285 0.460921 -0.468798
N3    N     N_2   0.475010 0.445410 0.137370 -0.280496
N4    N     N_2   0.524990 0.554590 0.862630 -0.290103
O1    O     O_R   0.505330 0.332340 0.577400 -0.562984
O2    O     O_R   0.494670 0.667660 0.422600 -0.511393
O3    O     O_R   0.488470 0.295500 0.332650 -0.596161
O4    O     O_R   0.511530 0.704500 0.667350 -0.581842
O5    O     O_R   0.426310 0.518390 0.622390 -0.588075
O6    O     O_R   0.573690 0.481610 0.377610 -0.577528
O7    O     O_R   0.409450 0.481550 0.377650 -0.509835
O8    O     O_R   0.590550 0.518450 0.622350 -0.533043
O9    O     O_2   0.853018 0.724273 0.554282 -0.400398
O10   O     O_2   0.138469 0.311965 0.268347 -0.404984
O11   O     O_2   0.843144 0.270854 0.324552 -0.483144
O12   O     O_2   0.156170 0.716507 0.657731 -0.476979
O13   O     O_3   0.922629 0.175234 0.157123 -0.664483
H1    H     H_    0.888304 0.204327 0.111936 0.372064
O14   O     O_3   0.068770 0.862581 0.661695 -0.664918
H2    H     H_    0.097954 0.866949 0.600158 0.371605
C37   C     C_2   0.546616 0.686121 0.949585 1.046697
O15   O     O_2   0.519895 0.756192 0.041670 -0.537324
O16   O     O_R   0.596678 0.737224 0.921796 -0.735898
H3    H     H_    0.607212 0.832029 0.987115 0.338249
C38   C     C_2   0.439977 0.327173 0.055061 1.034572
O17   O     O_2   0.461022 0.232902 0.975535 -0.547061
O18   O     O_R   0.382329 0.316966 0.072987 -0.700608
H4    H     H_    0.361991 0.227848 0.011020 0.345274
O19   O     O_3   0.042004 0.181234 0.173037 -0.626886
H5    H     H_    0.012867 0.106234 0.121311 0.386839
O20   O     O_3   0.949829 0.853379 0.655580 -0.626932
H6    H     H_    0.979259 0.926011 0.714945 0.385237
C39   C     C_2   0.215049 0.702590 0.396277 0.983228
O21   O     O_2   0.171435 0.668938 0.303998 -0.579971
O22   O     O_R   0.239443 0.831044 0.449687 -0.686665
H7    H     H_    0.217039 0.886453 0.404009 0.354427
C40   C     C_2   0.759301 0.403996 0.178062 0.998428
O23   O     O_2   0.796340 0.471199 0.156153 -0.581873
O24   O     O_R   0.729766 0.297030 0.060749 -0.647787
H8    H     H_    0.742941 0.285650 0.964287 0.350713
O25   O     O_3   0.334734 0.706558 0.457582 -0.656697
H9    H     H_    0.373359 0.719855 0.517574 0.312841
O26   O     O_3   0.648979 0.340676 0.227274 -0.608600
H10   H     H_    0.621728 0.292235 0.260861 0.341517
C41   C     C_2   0.319408 0.289300 0.531363 0.962393
O27   O     O_2   0.357168 0.240860 0.460461 -0.566033
O28   O     O_R   0.298551 0.231205 0.619915 -0.677743
H11   H     H_    0.318852 0.152077 0.618909 0.379489
C42   C     C_2   0.702872 0.586163 0.764592 1.036384
O29   O     O_2   0.679436 0.517191 0.815814 -0.545619
O30   O     O_R   0.722052 0.715399 0.852285 -0.675283
H12   H     H_    0.713930 0.740799 0.956213 0.362163
O31   O     O_3   0.203493 0.330536 0.556198 -0.634112
H13   H     H_    0.167287 0.366668 0.586758 0.340412
O32   O     O_3   0.814878 0.565574 0.720062 -0.653301
H14   H     H_    0.851445 0.528707 0.693784 0.336994
C43   C     C_2   0.433262 0.901129 0.443079 0.899890
O33   O     O_2   0.422747 0.804390 0.330018 -0.462109
O34   O     O_R   0.389019 0.976922 0.496443 -0.714819
H15   H     H_    0.350116 0.941389 0.432499 0.386233
C44   C     C_2   0.556253 0.161711 0.660073 0.985562
O35   O     O_2   0.545645 0.174174 0.781140 -0.475482
O36   O     O_R   0.605701 0.227386 0.647365 -0.750097
H16   H     H_    0.629490 0.280624 0.746181 0.382708
O37   O     O_3   0.579646 0.928526 0.664327 -0.682200
H17   H     H_    0.597387 0.862765 0.697838 0.357049
O38   O     O_3   0.476341 0.022294 0.275659 -0.645062
H18   H     H_    0.463324 0.066615 0.208667 0.367693
C45   C     C_2   0.435677 0.431875 0.838566 0.901428
O39   O     O_2   0.429857 0.321473 0.746261 -0.543133
O40   O     O_R   0.387590 0.499437 0.878294 -0.714308
H19   H     H_    0.349750 0.446626 0.825129 0.351131
C46   C     C_2   0.567061 0.558913 0.151488 0.929713
O41   O     O_2   0.609614 0.511772 0.102023 -0.534422
O42   O     O_R   0.573435 0.677370 0.270782 -0.701433
H20   H     H_    0.615363 0.711188 0.310848 0.331611

loop_
_geom_bond_atom_site_label_1
_geom_bond_atom_site_label_2
_ccdc_geom_bond_type
C24   O10   S    
C22   O6    A    
C42   O29   D    
C38   O18   S    
C33   O13   S    
O36   H16   S    
C27   C29   A    
O22   H7    S    
C43   O33   D    
O13   H1    S    
C1    O3    A    
C21   O7    A    
O34   H15   S    
Cu2   O7    S    
O24   H8    S    
C27   C33   A    
O32   H14   S    
C41   O27   D    
Cu1   Cu2   S    
C25   O11   S    
O28   H11   S    
C15   C17   D    
Cu1   N4    S    
C40   O24   S    
Cu2   O3    S    
C33   C35   A    
C14   N1    S    
C1    O1    A    
C19   C20   S    
C2    O2    A    
C13   N2    S    
C34   O14   S    
C8    C22   S    
C45   O39   D    
C1    C15   S    
Cu1   O5    S    
C2    C16   S    
Cu2   O6    S    
C3    C13   A    
C22   O8    A    
C20   C45   S    
C28   C34   A    
C37   O15   D    
C6    O26   S    
C18   C43   S    
C45   O40   S    
O20   H6    S    
C26   O12   S    
O26   H10   S    
C10   C42   S    
C37   O16   S    
O19   H5    S    
C32   C35   A    
Cu2   N3    S    
C4    C6    A    
O31   H13   S    
C39   O22   S    
C6    C8    A    
C7    C21   S    
C2    O4    A    
O25   H9    S    
C23   C31   A    
Cu1   O1    S    
C3    C39   S    
C40   O23   D    
C24   C32   A    
Cu2   O2    S    
C29   C30   A    
C17   C44   S    
C16   O37   S    
C23   O9    S    
C44   O35   D    
C35   O19   S    
C17   C18   S    
C46   O42   S    
C9    C11   A    
C10   C12   A    
C9    C41   S    
C16   C18   D    
C44   O36   S    
C12   C14   A    
C42   O30   S    
C12   O32   S    
C5    O25   S    
N3    C38   S    
C36   O20   S    
C5    C7    A    
O42   H20   S    
C7    C9    A    
C46   O41   D    
C41   O28   S    
C3    C5    A    
N4    C37   S    
C20   N4    D    
C43   O34   S    
C19   C46   S    
C25   C27   A    
O38   H18   S    
C26   C28   A    
C15   O38   S    
C28   C30   A    
Cu1   O4    S    
C39   O21   D    
C29   C31   A    
O40   H19   S    
C25   N1    A    
C30   C32   A    
Cu1   O8    S    
C11   C13   A    
C26   N2    A    
O14   H2    S    
C23   N1    A    
C24   N2    A    
C34   C36   A    
C4    C14   A    
O16   H3    S    
C38   O17   D    
C4    C40   S    
C11   O31   S    
C8    C10   A    
O18   H4    S    
O37   H17   S    
C31   C36   A    
O30   H12   S    
C19   N3    D    
C21   O5    A    
