data_mof_unit_50102.cif
_audit_creation_date              2012-12-11T17:08:24-0500
_audit_creation_method            fapswitch 2.2
_symmetry_space_group_name_H-M    P1
_symmetry_Int_Tables_number       1
_space_group_crystal_system       triclinic
_cell_length_a                    6.990964
_cell_length_b                    14.498346
_cell_length_c                    16.103178
_cell_angle_alpha                 89.965845
_cell_angle_beta                  90.026637
_cell_angle_gamma                 89.914978
_cell_volume                      1632.1742304

loop_
_atom_site_label
_atom_site_type_symbol
_atom_type_description
_atom_site_fract_x
_atom_site_fract_y
_atom_site_fract_z
_atom_type_partial_charge
O1    O     O_R   0.505700 0.583890 0.413310 -0.537690
O2    O     O_R   0.175960 0.594920 0.586080 -0.544543
O3    O     O_R   0.005660 0.416110 0.586690 -0.536140
C1    C     C_R   0.344712 0.617026 0.614634 0.693097
O4    O     O_R   0.175980 0.594920 0.413930 -0.544270
O5    O     O_R   0.005680 0.416110 0.413310 -0.539378
C2    C     C_R   0.344600 0.616953 0.385333 0.693891
O6    O     O_R   0.505680 0.583890 0.586690 -0.536690
O7    O     O_3   0.339200 0.441330 0.500000 -0.368741
V1    V     V_3+5 0.064350 0.510880 0.500000 1.386311
O8    O     O_R   0.675960 0.405080 0.413920 -0.539282
C3    C     C_R   0.845014 0.383234 0.385138 0.694268
O9    O     O_R   0.675940 0.405080 0.586070 -0.541267
C4    C     C_R   0.844731 0.383013 0.614659 0.698342
V2    V     V_3+5 0.564340 0.489120 0.500000 1.393789
O10   O     O_3   0.839360 0.558670 0.500000 -0.372210
C5    C     C_R   0.005524 0.250308 0.688198 0.091407
C6    C     C_R   0.852592 0.312415 0.681254 -0.101456
C7    C     C_R   0.702022 0.303169 0.738827 -0.179616
H1    H     H_    0.579956 0.348866 0.735635 0.122959
C8    C     C_R   0.713938 0.239424 0.804841 -0.155101
H2    H     H_    0.600090 0.237480 0.850244 0.119083
C9    C     C_R   0.876549 0.182937 0.815160 -0.110213
C10   C     C_R   0.017007 0.187040 0.753294 0.069419
C11   C     C_3   0.227936 0.198905 0.760996 -0.228656
C12   C     C_3   0.215719 0.267642 0.689425 -0.428596
H3    H     H_    0.270994 0.229811 0.821261 0.122484
H4    H     H_    0.286042 0.244801 0.630951 0.176661
H5    H     H_    0.249205 0.339550 0.708318 0.160734
C13   C     C_R   0.727061 0.183376 0.240739 0.104281
C14   C     C_R   0.881886 0.182363 0.185475 -0.112957
C15   C     C_R   0.033812 0.243410 0.201951 -0.180030
H6    H     H_    0.156771 0.245031 0.161388 0.134403
C16   C     C_R   0.022657 0.307582 0.267505 -0.177064
H7    H     H_    0.138007 0.356360 0.275580 0.128700
C17   C     C_R   0.858883 0.312942 0.318422 -0.111088
C18   C     C_R   0.715577 0.247131 0.305360 0.109173
C19   C     C_3   0.506247 0.260551 0.292802 -0.411527
C20   C     C_3   0.518628 0.190729 0.222688 -0.400824
H8    H     H_    0.471756 0.331453 0.271124 0.165357
H9    H     H_    0.421159 0.235788 0.346659 0.179202
H10   H     H_    0.490583 0.220942 0.160382 0.169425
H11   H     H_    0.441359 0.125450 0.236159 0.171044
C21   C     C_R   0.516366 0.689174 0.735409 0.049230
C22   C     C_R   0.353601 0.683012 0.684955 -0.088554
C23   C     C_R   0.200259 0.742659 0.702879 -0.183045
H12   H     H_    0.075464 0.742868 0.663479 0.134062
C24   C     C_R   0.212539 0.807218 0.768020 -0.159340
H13   H     H_    0.097178 0.855119 0.777995 0.126643
C25   C     C_R   0.378304 0.814997 0.816679 -0.057623
C26   C     C_R   0.530151 0.755567 0.798256 0.080567
C27   C     C_3   0.728269 0.780792 0.772411 0.012446
C28   C     C_3   0.716187 0.705101 0.707453 -0.385662
H14   H     H_    0.836001 0.768668 0.822038 0.109735
H15   H     H_    0.809327 0.644902 0.721669 0.137204
H16   H     H_    0.724254 0.729676 0.642058 0.183513
C29   C     C_R   0.514584 0.743031 0.307385 0.058744
C30   C     C_R   0.353035 0.687376 0.318641 -0.106141
C31   C     C_R   0.200317 0.699086 0.262596 -0.174420
H17   H     H_    0.075760 0.655512 0.267289 0.150575
C32   C     C_R   0.213233 0.762071 0.196115 -0.180142
H18   H     H_    0.098156 0.766703 0.151870 0.169158
C33   C     C_R   0.379299 0.814338 0.182858 -0.120387
C34   C     C_R   0.529051 0.803045 0.239615 0.056974
C35   C     C_3   0.731431 0.773845 0.224067 0.021896
C36   C     C_3   0.717669 0.713166 0.300700 -0.374885
H19   H     H_    0.835486 0.831396 0.229740 0.131679
H20   H     H_    0.804810 0.738898 0.353573 0.146663
H21   H     H_    0.732682 0.638013 0.288217 0.177695
O11   O     O_R   0.229000 0.916070 0.913330 -0.544343
O12   O     O_R   0.558770 0.905070 0.086080 -0.545714
O13   O     O_R   0.729000 0.083900 0.086690 -0.536707
C37   C     C_R   0.390101 0.882031 0.113908 0.688386
O14   O     O_R   0.558720 0.905070 0.913930 -0.542313
O15   O     O_R   0.728960 0.083900 0.913310 -0.533405
C38   C     C_R   0.390101 0.883927 0.884598 0.717357
O16   O     O_R   0.229050 0.916070 0.086710 -0.539112
O17   O     O_3   0.395460 0.058650 0.000020 -0.370679
V3    V     V_3+5 0.670340 0.989120 0.000000 1.389231
O18   O     O_R   0.058670 0.094960 0.913900 -0.543049
C39   C     C_R   0.889581 0.116927 0.885296 0.690426
O19   O     O_R   0.058720 0.094960 0.086050 -0.542779
C40   C     C_R   0.889926 0.116895 0.114744 0.693776
V4    V     V_3+5 0.170330 0.010930 0.999970 1.389585
O20   O     O_3   0.895340 0.941350 0.999980 -0.377305
N1    N     N_3   0.733444 0.873057 0.735109 -0.608928
H22   H     H_    0.769206 0.920360 0.781502 0.239226
H23   H     H_    0.842884 0.875681 0.691005 0.224545
N2    N     N_3   0.754610 0.718596 0.148288 -0.683554
H24   H     H_    0.638327 0.674074 0.140185 0.243112
H25   H     H_    0.758948 0.762869 0.097187 0.242992
C41   C     C_1   0.331393 0.113689 0.739832 0.354847
N3    N     N_1   0.412987 0.046683 0.723259 -0.348872

loop_
_geom_bond_atom_site_label_1
_geom_bond_atom_site_label_2
_ccdc_geom_bond_type
C36   H20   S    
C4    C6    S    
C7    H1    S    
C29   C36   S    
C1    O6    A    
O12   V3    S    
C22   C23   A    
C21   C22   A    
C35   N2    S    
O14   C38   A    
C5    C12   S    
C17   C18   A    
C7    C8    A    
C6    C7    A    
O13   V3    S    
O5    C3    A    
C19   C20   S    
N1    H23   S    
C36   H21   S    
V2    O10   S    
C14   C40   S    
C16   H7    S    
C32   C33   A    
O8    V2    S    
C21   C28   S    
C35   H19   S    
C9    C10   A    
O1    V2    S    
N2    H25   S    
O11   V4    S    
O7    V1    S    
C2    C30   S    
O18   V4    S    
C24   C25   A    
C31   H17   S    
O1    C2    A    
O9    C4    A    
C27   H14   S    
C25   C26   A    
C20   H10   S    
C1    C22   S    
C28   H15   S    
C23   C24   A    
C31   C32   A    
C5    C10   A    
C26   C27   S    
C10   C11   S    
C19   H9    S    
O4    C2    A    
O17   V3    S    
O15   C39   A    
C20   H11   S    
C33   C37   S    
O16   V4    S    
C30   C31   A    
C13   C18   A    
C15   C16   A    
O2    C1    A    
C18   C19   S    
C25   C38   S    
C14   C15   A    
C5    C6    A    
V4    O20   S    
O3    C4    A    
C21   C26   A    
C24   H13   S    
C35   C36   S    
O6    V2    S    
O19   V4    S    
O14   V3    S    
O9    V2    S    
O11   C38   A    
C3    C17   S    
O2    V1    S    
V3    O20   S    
C27   C28   S    
C29   C34   A    
O12   C37   A    
C28   H16   S    
C23   H12   S    
C11   C41   S    
C9    C39   S    
N1    H22   S    
O18   C39   A    
O5    V1    S    
O8    C3    A    
C11   H3    S    
C12   H4    S    
C15   H6    S    
C8    C9    A    
C11   C12   S    
O4    V1    S    
O3    V1    S    
V1    O10   S    
C34   C35   S    
C19   H8    S    
C29   C30   A    
C13   C14   A    
C27   N1    S    
C41   N3    T    
C13   C20   S    
C16   C17   A    
O7    V2    S    
C32   H18   S    
O13   C40   A    
C33   C34   A    
O17   V4    S    
C12   H5    S    
O19   C40   A    
C37   O16   A    
N2    H24   S    
C8    H2    S    
O15   V3    S    
