data_mof_unit_34594.cif
_audit_creation_date              2012-10-26T19:40:43-0400
_audit_creation_method            fapswitch 2.2
_symmetry_space_group_name_H-M    P1
_symmetry_Int_Tables_number       1
_space_group_crystal_system       triclinic
_cell_length_a                    9.709462
_cell_length_b                    10.902627
_cell_length_c                    13.46959
_cell_angle_alpha                 90.029285
_cell_angle_beta                  73.608499
_cell_angle_gamma                 90.22203
_cell_volume                      1367.90860713

loop_
_atom_site_label
_atom_site_type_symbol
_atom_type_description
_atom_site_fract_x
_atom_site_fract_y
_atom_site_fract_z
_atom_type_partial_charge
C1    C     C_R   0.502208 0.734838 0.494598 0.552837
C2    C     C_R   0.376640 0.467333 0.812711 -0.016459
C3    C     C_2   0.602407 0.066076 0.520439 -0.130192
C4    C     C_R   0.423623 0.487273 0.699121 0.543734
C5    C     C_2   0.489361 0.133790 0.516921 -0.086477
C6    C     C_2   0.589075 0.932456 0.529398 -0.121858
C7    C     C_2   0.509316 0.868034 0.480523 0.250164
C8    C     C_2   0.056504 0.575324 0.555320 -0.021715
C9    C     C_2   0.899862 0.572381 0.558072 -0.025150
C10   C     C_R   0.497879 0.265452 0.504354 0.540933
C11   C     C_R   0.575974 0.498543 0.300639 0.559558
C12   C     C_R   0.434934 0.469559 0.977848 0.021443
C13   C     C_R   0.779781 0.394726 0.035614 -0.125504
C14   C     C_R   0.617305 0.480811 0.188828 0.003132
C15   C     C_R   0.228850 0.470489 0.866506 0.260854
C16   C     C_R   0.186779 0.489238 0.973095 -0.120117
C17   C     C_R   0.288809 0.494571 0.027745 -0.174476
C18   C     C_3   0.323191 0.889473 0.403760 -0.007609
C19   C     C_3   0.261421 0.985502 0.346602 -0.383769
C20   C     C_3   0.118973 0.324396 0.794237 0.006826
C21   C     C_3   0.057302 0.305404 0.703073 -0.359348
C22   C     C_R   0.475656 0.445182 0.869988 -0.018446
C23   C     C_R   0.540531 0.460922 0.032220 0.039479
C24   C     C_R   0.676075 0.409003 0.982405 0.061173
C25   C     C_R   0.705186 0.368024 0.881018 -0.129382
C26   C     C_R   0.608680 0.388603 0.824376 -0.127129
C27   C     C_R   0.514994 0.499496 0.135170 -0.130123
C28   C     C_R   0.750834 0.430577 0.138183 -0.138459
Cu1   Cu    Cu3+1 0.361370 0.499980 0.499980 0.918145
Cu2   Cu    Cu3+1 0.638630 0.500020 0.500020 0.922025
H1    H     H_    0.830644 0.414301 0.178885 0.125937
H2    H     H_    0.325646 0.800705 0.362634 0.171064
H3    H     H_    0.329780 0.993991 0.265463 0.169111
H4    H     H_    0.151333 0.958148 0.346072 0.099918
H5    H     H_    0.256313 0.075865 0.385559 0.153450
H6    H     H_    0.089220 0.642982 0.603303 0.152387
H7    H     H_    0.122223 0.434552 0.457909 0.198934
H8    H     H_    0.828356 0.634958 0.610778 0.143876
H9    H     H_    0.913769 0.444428 0.448834 0.201986
H10   H     H_    0.049471 0.276591 0.862932 0.110906
H11   H     H_    0.225914 0.278483 0.774052 0.107098
H12   H     H_    0.385007 0.091574 0.526221 0.130200
H13   H     H_    0.973566 0.374376 0.703311 0.171659
H14   H     H_    0.143182 0.314265 0.629580 0.187712
H15   H     H_    0.010564 0.211878 0.706140 0.069263
H16   H     H_    0.074136 0.498053 0.014128 0.129452
H17   H     H_    0.703709 0.108470 0.520727 0.131881
H18   H     H_    0.644914 0.886877 0.578443 0.090717
H19   H     H_    0.802117 0.318005 0.846199 0.110357
H20   H     H_    0.882148 0.353174 0.998890 0.112241
H21   H     H_    0.415977 0.543855 0.175599 0.117871
H22   H     H_    0.248279 0.507802 0.110175 0.109237
H23   H     H_    0.635509 0.351029 0.747067 0.142224
H24   H     H_    0.250737 0.882782 0.484237 0.123127
N1    N     N_2   0.152660 0.501340 0.501130 -0.365492
N2    N     N_2   0.846520 0.501370 0.501160 -0.353657
O1    O     O_R   0.382960 0.678040 0.499980 -0.519384
O2    O     O_3   0.124616 0.451561 0.816003 -0.541971
O3    O     O_R   0.617100 0.678080 0.500020 -0.502226
O4    O     O_R   0.325800 0.499940 0.650950 -0.443402
O5    O     O_R   0.559930 0.499980 0.650990 -0.511881
O6    O     O_R   0.382900 0.321920 0.499980 -0.522750
O7    O     O_R   0.617040 0.321960 0.500020 -0.500341
O8    O     O_R   0.440070 0.500020 0.349010 -0.501831
O9    O     O_R   0.674200 0.500060 0.349050 -0.493510
O10   O     O_3   0.463926 0.924590 0.402185 -0.568254

loop_
_geom_bond_atom_site_label_1
_geom_bond_atom_site_label_2
_ccdc_geom_bond_type
C12   C17   A    
C2    C22   A    
C2    C4    S    
C5    H12   S    
C13   C28   A    
C6    C7    D    
C23   C27   A    
C14   C27   A    
C18   O10   S    
C21   H14   S    
H9    N2    S    
Cu1   O4    S    
C23   C24   A    
C3    C6    S    
Cu2   O3    S    
C4    O4    A    
C10   O7    A    
C20   H11   S    
Cu1   O8    S    
C5    C10   S    
C9    N2    D    
C19   H5    S    
Cu2   O7    S    
C20   C21   S    
C7    O10   S    
C2    C15   A    
C12   C23   A    
C10   O6    A    
C6    H18   S    
C11   O9    A    
C8    N1    D    
C3    H17   S    
C9    H8    S    
C11   C14   S    
Cu1   O1    S    
C11   O8    A    
C21   H15   S    
C1    O3    A    
C19   H3    S    
C20   H10   S    
C15   O2    S    
C25   H19   S    
Cu2   O9    S    
C18   H2    S    
C18   H24   S    
Cu1   Cu2   S    
C15   C16   A    
H7    N1    S    
C26   H23   S    
C12   C22   A    
C20   O2    S    
C24   C25   A    
C17   H22   S    
C18   C19   S    
C8    H6    S    
Cu2   O5    S    
C16   H16   S    
Cu1   O6    S    
C16   C17   A    
C22   C26   A    
Cu1   N1    S    
C14   C28   A    
C25   C26   A    
C1    C7    S    
Cu2   N2    S    
C4    O5    A    
C28   H1    S    
C21   H13   S    
C13   H20   S    
C13   C24   A    
C27   H21   S    
C8    C9    S    
C3    C5    D    
C19   H4    S    
C1    O1    A    
