data_mof_unit_52485.cif
_audit_creation_date              2012-12-10T16:59:57-0500
_audit_creation_method            fapswitch 2.2
_symmetry_space_group_name_H-M    P1
_symmetry_Int_Tables_number       1
_space_group_crystal_system       triclinic
_cell_length_a                    23.519122
_cell_length_b                    10.908082
_cell_length_c                    9.69907
_cell_angle_alpha                 89.803565
_cell_angle_beta                  89.571145
_cell_angle_gamma                 90.51079
_cell_volume                      2488.09819186

loop_
_atom_site_label
_atom_site_type_symbol
_atom_type_description
_atom_site_fract_x
_atom_site_fract_y
_atom_site_fract_z
_atom_type_partial_charge
C1    C     C_R   0.502858 0.265706 0.500063 0.692393
C2    C     C_R   0.969874 0.272484 0.445791 0.378094
C3    C     C_R   0.029601 0.272130 0.455645 0.419106
C4    C     C_R   0.060181 0.384108 0.469135 -0.195625
C5    C     C_R   0.030228 0.495749 0.470513 -0.086046
C6    C     C_R   0.060172 0.608234 0.479359 0.024679
C7    C     C_R   0.030221 0.718964 0.481716 -0.164972
C8    C     C_R   0.971117 0.718607 0.479146 -0.173612
C9    C     C_R   0.120071 0.388642 0.480040 0.590922
C10   C     C_R   0.119571 0.607472 0.487407 0.537960
C11   C     C_R   0.240847 0.550477 0.383990 -0.109811
C12   C     C_R   0.391024 0.499086 0.500397 0.797050
C13   C     C_R   0.299995 0.549813 0.387460 -0.288761
C14   C     C_R   0.328477 0.498035 0.500014 -0.161072
C15   C     C_R   0.296560 0.444218 0.608946 0.449165
C16   C     C_R   0.237157 0.449441 0.606686 -0.172425
C17   C     C_R   0.209168 0.500680 0.493601 0.271766
C18   C     C_R   0.763842 0.521037 0.608853 -0.187679
C19   C     C_R   0.704263 0.519291 0.617728 0.467128
C20   C     C_R   0.671987 0.498926 0.497139 -0.141741
C21   C     C_R   0.700397 0.475797 0.371760 -0.306065
C22   C     C_R   0.759528 0.474200 0.365420 -0.121756
C23   C     C_R   0.497179 0.734292 0.499959 0.708898
C24   C     C_R   0.791325 0.497409 0.483609 0.296770
C25   C     C_2   0.502257 0.933944 0.392348 -0.243080
C26   C     C_2   0.486550 0.865024 0.501187 0.422735
C27   C     C_2   0.496285 0.066866 0.393306 -0.255929
C28   C     C_2   0.513537 0.134871 0.500536 0.420090
C29   C     C_2   0.460612 0.446845 0.923475 -0.017822
C30   C     C_2   0.466606 0.430472 0.077710 0.078055
C31   C     C_R   0.609147 0.500218 0.499518 0.810719
C32   C     C_R   0.881133 0.605938 0.475971 0.540081
C33   C     C_R   0.879766 0.387106 0.471734 0.569017
C34   C     C_R   0.939653 0.383702 0.460367 -0.211408
C35   C     C_R   0.970174 0.495486 0.467198 -0.074686
C36   C     C_R   0.940663 0.607582 0.473604 0.025161
Cu1   Cu    Cu3+1 0.500010 0.500020 0.638630 0.991095
Cu2   Cu    Cu3+1 0.499990 0.499980 0.361370 0.953761
H1    H     H_    0.676924 0.458325 0.278112 0.167991
H2    H     H_    0.780747 0.455886 0.268273 0.138578
H3    H     H_    0.518536 0.892154 0.298660 0.140277
H4    H     H_    0.478466 0.109474 0.302086 0.131970
H5    H     H_    0.422944 0.409544 0.875034 0.162383
H6    H     H_    0.538561 0.511317 0.890622 0.236571
H7    H     H_    0.441948 0.358031 0.127214 0.084199
H8    H     H_    0.052306 0.806363 0.487498 0.197819
H9    H     H_    0.949372 0.805612 0.483691 0.198028
H10   H     H_    0.219519 0.589525 0.295784 0.157893
H11   H     H_    0.323528 0.590433 0.302148 0.186868
H12   H     H_    0.212643 0.410860 0.691546 0.164503
H13   H     H_    0.788888 0.540813 0.699477 0.148760
N1    N     N_R   0.852169 0.496880 0.476425 -0.460141
N2    N     N_R   0.148163 0.498931 0.487855 -0.459443
N3    N     N_2   0.499380 0.498660 0.846910 -0.257578
N4    N     N_2   0.499370 0.498630 0.153040 -0.009310
O1    O     O_R   0.500010 0.321960 0.617040 -0.561716
O2    O     O_2   0.849204 0.282198 0.482213 -0.501790
O3    O     O_2   0.150351 0.284254 0.481422 -0.515113
O4    O     O_2   0.148617 0.714394 0.496601 -0.541402
O5    O     O_R   0.499990 0.321920 0.382900 -0.620203
O6    O     O_R   0.417890 0.499980 0.617100 -0.548573
O7    O     O_R   0.417870 0.499940 0.382950 -0.577448
O8    O     O_R   0.500010 0.678080 0.617100 -0.528474
O9    O     O_R   0.499990 0.678040 0.382960 -0.593332
O10   O     O_R   0.582130 0.500060 0.617050 -0.539387
O11   O     O_R   0.582110 0.500020 0.382900 -0.619535
O12   O     O_2   0.852295 0.712347 0.479052 -0.538647
O13   O     O_3   0.941831 0.161661 0.427654 -0.510339
C37   C     C_3   0.927226 0.149725 0.286882 0.093884
H14   H     H_    0.964286 0.167130 0.217173 0.094558
H15   H     H_    0.893171 0.214876 0.258310 0.163490
C38   C     C_3   0.905425 0.020156 0.261292 -0.704472
H16   H     H_    0.868039 0.000288 0.328633 0.278993
H17   H     H_    0.892609 0.010517 0.151879 0.194727
H18   H     H_    0.939342 0.952941 0.283541 0.229122
O14   O     O_3   0.677805 0.547265 0.741401 -0.565477
C39   C     C_3   0.683279 0.446885 0.832283 -0.311181
H19   H     H_    0.728097 0.435434 0.865273 0.158180
H20   H     H_    0.666775 0.360465 0.785866 0.153748
H21   H     H_    0.657539 0.464887 0.926065 0.171798
O15   O     O_3   0.461026 0.916647 0.616397 -0.514778
C40   C     C_3   0.402456 0.888046 0.615048 -0.292429
H22   H     H_    0.394653 0.787513 0.623395 0.161141
H23   H     H_    0.381839 0.925470 0.521087 0.148058
H24   H     H_    0.382133 0.931401 0.705906 0.190826
O16   O     O_3   0.541209 0.082167 0.611658 -0.515685
C41   C     C_3   0.598780 0.119552 0.609125 -0.293807
H25   H     H_    0.603366 0.219159 0.630798 0.146328
H26   H     H_    0.619578 0.096679 0.509026 0.151307
H27   H     H_    0.621569 0.069402 0.691299 0.198127
O17   O     O_3   0.057134 0.160685 0.465238 -0.514264
C42   C     C_3   0.071860 0.118237 0.332292 -0.180002
H28   H     H_    0.112996 0.069686 0.339063 0.206953
H29   H     H_    0.077293 0.192335 0.253496 0.113726
H30   H     H_    0.039845 0.050166 0.297398 0.152766
O18   O     O_3   0.512418 0.608731 0.095858 -0.481079
C43   C     C_3   0.570649 0.633163 0.118437 0.173778
H31   H     H_    0.597004 0.549621 0.104971 0.105425
H32   H     H_    0.577413 0.671171 0.222536 0.186961
C44   C     C_3   0.591508 0.730295 0.016328 -0.817132
H33   H     H_    0.566402 0.815376 0.028766 0.255565
H34   H     H_    0.636992 0.751798 0.035660 0.214213
H35   H     H_    0.587297 0.697291 0.908782 0.276621
O19   O     O_3   0.322754 0.388102 0.719419 -0.591752
C45   C     C_3   0.336984 0.266143 0.684003 0.067313
H36   H     H_    0.374811 0.239848 0.744801 0.174044
H37   H     H_    0.349207 0.254621 0.573389 0.117970
C46   C     C_3   0.288586 0.177821 0.721515 -0.793240
H38   H     H_    0.251274 0.194293 0.654833 0.267900
H39   H     H_    0.302597 0.081953 0.706022 0.206415
H40   H     H_    0.276015 0.189942 0.831183 0.255793

loop_
_geom_bond_atom_site_label_1
_geom_bond_atom_site_label_2
_ccdc_geom_bond_type
C24   N1    S    
C31   O11   A    
C41   H25   S    
C30   H7    S    
C19   C20   A    
C43   H31   S    
C7    C8    A    
C39   H19   S    
C33   N1    A    
C45   H37   S    
Cu1   Cu2   S    
C18   C24   A    
C32   C36   A    
C19   O14   S    
C1    O1    A    
C16   H12   S    
C18   C19   A    
C2    O13   S    
C5    C6    A    
C29   N3    D    
C15   C16   A    
C46   H38   S    
C3    O17   S    
C34   C35   A    
C8    C36   A    
C23   C26   S    
C37   H15   S    
C10   N2    A    
C32   N1    A    
C43   H32   S    
O13   C37   S    
Cu1   O1    S    
C11   C17   A    
Cu2   N4    S    
Cu2   O11   S    
C16   C17   A    
Cu1   O10   S    
C1    C28   S    
C15   O19   S    
C2    C34   A    
C23   O8    A    
C21   C22   A    
C29   H5    S    
C11   H10   S    
C38   H18   S    
C44   H34   S    
O19   C45   S    
Cu1   O8    S    
C18   H13   S    
O15   C40   S    
Cu2   O9    S    
C39   H20   S    
C45   C46   S    
C7    H8    S    
O14   C39   S    
C38   H17   S    
C1    O5    A    
C25   H3    S    
O17   C42   S    
O16   C41   S    
C38   H16   S    
C25   C26   D    
C44   H35   S    
C35   C36   A    
C37   C38   S    
C29   C30   S    
C12   O7    A    
C21   H1    S    
C22   H2    S    
O18   C43   S    
C42   H29   S    
C33   C34   A    
C13   H11   S    
C32   O12   S    
Cu2   O5    S    
Cu1   N3    S    
C23   O9    A    
C12   C14   S    
C26   O15   S    
C40   H23   S    
C41   H26   S    
C28   O16   S    
C22   C24   A    
C9    N2    A    
C3    C4    A    
C17   N2    S    
C43   C44   S    
C45   H36   S    
C39   H21   S    
C31   O10   A    
C9    O3    S    
C33   O2    S    
N4    O18   S    
C6    C10   A    
Cu1   O6    S    
C6    C7    A    
C25   C27   S    
C40   H24   S    
C30   N4    D    
C46   H40   S    
C2    C3    A    
C8    H9    S    
C12   O6    A    
C11   C13   A    
C27   H4    S    
C5    C35   A    
C42   H28   S    
C46   H39   S    
C10   O4    S    
C42   H30   S    
C37   H14   S    
H6    N3    S    
C4    C5    A    
C20   C21   A    
C40   H22   S    
C41   H27   S    
C27   C28   D    
C14   C15   A    
C44   H33   S    
C4    C9    A    
C13   C14   A    
Cu2   O7    S    
C20   C31   S    
