data_mof_unit_40061.cif
_audit_creation_date              2012-12-10T19:29:27-0500
_audit_creation_method            fapswitch 2.2
_symmetry_space_group_name_H-M    P1
_symmetry_Int_Tables_number       1
_space_group_crystal_system       triclinic
_cell_length_a                    22.274459
_cell_length_b                    22.271497
_cell_length_c                    14.97197
_cell_angle_alpha                 89.996768
_cell_angle_beta                  90.113108
_cell_angle_gamma                 89.999333
_cell_volume                      7427.36343911

loop_
_atom_site_label
_atom_site_type_symbol
_atom_type_description
_atom_site_fract_x
_atom_site_fract_y
_atom_site_fract_z
_atom_type_partial_charge
C1    C     C_R   0.418776 0.918815 0.499924 0.893889
C2    C     C_1   0.663585 0.837279 0.500556 0.099690
C3    C     C_3   0.566888 0.143741 0.997580 -0.250206
C4    C     C_3   0.104709 0.380945 0.997778 -0.256048
C5    C     C_3   0.895291 0.619055 0.002222 -0.256048
C6    C     C_3   0.949225 0.349812 0.002498 -0.249131
C7    C     C_3   0.050775 0.650187 0.997502 -0.249129
C8    C     C_1   0.663584 0.162721 0.500533 0.099785
C9    C     C_1   0.336416 0.837279 0.499467 0.099785
C10   C     C_1   0.836396 0.662701 0.499453 0.099660
C11   C     C_1   0.163604 0.337298 0.500547 0.099660
C12   C     C_1   0.163607 0.662699 0.500541 0.099813
C13   C     C_1   0.836393 0.337301 0.499459 0.099813
C14   C     C_1   0.500008 1.000000 0.189984 0.291065
C15   C     C_1   0.499992 0.000000 0.810016 0.291067
C16   C     C_1   0.000007 0.500002 0.189984 0.291093
C17   C     C_R   0.581224 0.081185 0.500076 0.893888
C18   C     C_1   0.999993 0.499998 0.810016 0.291091
C19   C     C_3   0.473936 0.949340 0.970418 0.329760
C20   C     C_3   0.526064 0.050660 0.029582 0.329759
C21   C     C_3   0.530833 0.952091 0.029604 0.329893
C22   C     C_3   0.469167 0.047908 0.970395 0.329894
C23   C     C_3   0.979630 0.446793 0.970440 0.329579
C24   C     C_3   0.020370 0.553207 0.029560 0.329580
C25   C     C_3   0.035884 0.455751 0.029625 0.330230
C26   C     C_3   0.964116 0.544249 0.970375 0.330229
C27   C     C_3   0.701064 0.728816 0.539861 0.488943
C28   C     C_R   0.581224 0.918815 0.500080 0.893890
C29   C     C_3   0.298941 0.271189 0.460160 0.488943
C30   C     C_3   0.298928 0.728834 0.460106 0.489043
C31   C     C_3   0.701074 0.271164 0.539902 0.489042
C32   C     C_3   0.201083 0.228837 0.539822 0.488807
C33   C     C_3   0.798911 0.771157 0.460156 0.488807
C34   C     C_3   0.798895 0.228865 0.460084 0.489123
C35   C     C_3   0.201103 0.771137 0.539908 0.489121
C36   C     C_3   0.228362 0.201040 0.454346 -0.495763
C37   C     C_3   0.771644 0.798966 0.545632 -0.495764
C38   C     C_3   0.771657 0.201011 0.545552 -0.495136
C39   C     C_R   0.418776 0.081185 0.499920 0.893891
C40   C     C_3   0.228345 0.798986 0.454439 -0.495134
C41   C     C_3   0.728332 0.701006 0.454385 -0.495647
C42   C     C_3   0.271662 0.298987 0.545637 -0.495646
C43   C     C_3   0.271685 0.700984 0.545575 -0.495171
C44   C     C_3   0.728312 0.299018 0.454433 -0.495171
C45   C     C_1   0.374188 0.125349 0.499709 -0.158539
C46   C     C_1   0.625812 0.874651 0.500291 -0.158539
C47   C     C_1   0.625811 0.125349 0.500277 -0.158546
C48   C     C_1   0.374189 0.874651 0.499723 -0.158546
C49   C     C_1   0.874178 0.625338 0.499712 -0.158531
C50   C     C_R   0.918774 0.418816 0.499924 0.893885
C51   C     C_1   0.125822 0.374662 0.500288 -0.158530
C52   C     C_1   0.125824 0.625337 0.500279 -0.158533
C53   C     C_1   0.874176 0.374663 0.499721 -0.158534
C54   C     C_3   0.262971 0.235035 0.583825 0.489316
C55   C     C_3   0.737017 0.764953 0.416174 0.489317
C56   C     C_3   0.736985 0.235091 0.416154 0.488728
C57   C     C_3   0.263010 0.764913 0.583846 0.488728
C58   C     C_3   0.762959 0.735020 0.583843 0.489104
C59   C     C_3   0.237052 0.264991 0.416157 0.489104
C60   C     C_3   0.237021 0.735058 0.416168 0.489099
C61   C     C_R   0.081226 0.581184 0.500076 0.893886
C62   C     C_3   0.762983 0.264938 0.583832 0.489099
C63   C     C_3   0.290889 0.207893 0.499187 -0.086840
C64   C     C_3   0.709111 0.792107 0.500813 -0.086840
C65   C     C_3   0.709109 0.207894 0.500787 -0.086849
C66   C     C_3   0.290891 0.792106 0.499213 -0.086850
C67   C     C_3   0.790865 0.707867 0.499203 -0.086866
C68   C     C_3   0.209135 0.292133 0.500797 -0.086867
C69   C     C_3   0.209139 0.707865 0.500800 -0.086890
C70   C     C_3   0.790861 0.292135 0.499200 -0.086890
C71   C     C_3   0.443098 0.997247 0.029328 0.328686
C72   C     C_R   0.081225 0.418816 0.500079 0.893896
C73   C     C_3   0.556902 0.002752 0.970672 0.328687
C74   C     C_3   0.943739 0.491045 0.029329 0.328620
C75   C     C_3   0.056261 0.508955 0.970671 0.328619
C76   C     C_3   0.499994 0.999999 0.090046 -0.289668
C77   C     C_3   0.500005 0.000000 0.909954 -0.289669
C78   C     C_3   0.999992 0.500003 0.090046 -0.289666
C79   C     C_3   0.000007 0.499997 0.909954 -0.289665
C80   C     C_3   0.657894 0.013978 0.003159 -0.262448
C81   C     C_3   0.342106 0.986022 0.996841 -0.262445
C82   C     C_3   0.155419 0.531168 0.003149 -0.261884
C83   C     C_R   0.918775 0.581184 0.499921 0.893895
C84   C     C_3   0.844580 0.468832 0.996851 -0.261888
C85   C     C_3   0.648884 0.649867 0.601101 -0.283348
C86   C     C_3   0.351130 0.350147 0.398961 -0.283345
C87   C     C_3   0.351091 0.649913 0.398761 -0.284327
C88   C     C_3   0.648915 0.350082 0.601264 -0.284328
C89   C     C_3   0.148896 0.149878 0.601024 -0.283162
C90   C     C_3   0.851090 0.850107 0.398915 -0.283159
C91   C     C_3   0.851054 0.149947 0.398723 -0.284504
C92   C     C_3   0.148941 0.850059 0.601253 -0.284504
C93   C     C_3   0.746444 0.748000 0.265334 -0.282280
C94   C     C_1   0.336415 0.162721 0.499444 0.099689
C95   C     C_3   0.253523 0.251968 0.734668 -0.282282
C96   C     C_3   0.253627 0.747891 0.734676 -0.279689
C97   C     C_3   0.746360 0.252122 0.265325 -0.279691
C98   C     C_3   0.246503 0.248074 0.265311 -0.281086
C99   C     C_3   0.753529 0.751958 0.734687 -0.281086
C100  C     C_3   0.753594 0.247907 0.734659 -0.282111
C101  C     C_3   0.246418 0.752080 0.265341 -0.282111
C102  C     C_3   0.591077 0.870222 0.997707 -0.254361
C103  C     C_3   0.408923 0.129778 0.002293 -0.254364
C104  C     C_3   0.433112 0.856259 0.002420 -0.250206
H1    H     H_    0.212526 0.160596 0.417967 0.175710
H2    H     H_    0.660960 0.062292 0.020317 0.195718
H3    H     H_    0.702602 0.999902 0.978294 0.166491
H4    H     H_    0.339040 0.937708 0.979683 0.195718
H5    H     H_    0.351537 0.012718 0.935609 0.190977
H6    H     H_    0.297398 0.000098 0.021705 0.166492
H7    H     H_    0.148966 0.503606 0.064395 0.190808
H8    H     H_    0.153182 0.579529 0.020279 0.195851
H9    H     H_    0.201400 0.522069 0.978289 0.166285
H10   H     H_    0.846818 0.420471 0.979720 0.195851
H11   H     H_    0.851033 0.496394 0.935605 0.190807
H12   H     H_    0.787485 0.839415 0.581994 0.175710
H13   H     H_    0.798600 0.477931 0.021711 0.166285
H14   H     H_    0.689067 0.637096 0.641033 0.188035
H15   H     H_    0.646907 0.623369 0.538257 0.159919
H16   H     H_    0.608688 0.638091 0.641045 0.187151
H17   H     H_    0.353099 0.376635 0.461814 0.159918
H18   H     H_    0.310952 0.362924 0.359022 0.188034
H19   H     H_    0.391331 0.361928 0.359033 0.187151
H20   H     H_    0.310898 0.637164 0.358838 0.187436
H21   H     H_    0.353082 0.623383 0.461578 0.160239
H22   H     H_    0.391277 0.638155 0.358784 0.186987
H23   H     H_    0.787511 0.160544 0.581862 0.175825
H24   H     H_    0.646921 0.376615 0.538450 0.160239
H25   H     H_    0.689109 0.362828 0.641184 0.187436
H26   H     H_    0.608731 0.361837 0.641246 0.186986
H27   H     H_    0.189074 0.137102 0.640963 0.187721
H28   H     H_    0.146927 0.123390 0.538171 0.159828
H29   H     H_    0.108695 0.138097 0.640952 0.187268
H30   H     H_    0.853067 0.876605 0.461759 0.159827
H31   H     H_    0.810907 0.862878 0.358984 0.187721
H32   H     H_    0.891286 0.861884 0.358971 0.187266
H33   H     H_    0.810858 0.137199 0.358807 0.187627
H34   H     H_    0.212493 0.839452 0.418123 0.175825
H35   H     H_    0.853051 0.123415 0.461538 0.160290
H36   H     H_    0.891236 0.138192 0.358738 0.186864
H37   H     H_    0.146946 0.876586 0.538434 0.160290
H38   H     H_    0.189135 0.862809 0.641171 0.187627
H39   H     H_    0.108756 0.861816 0.641232 0.186865
H40   H     H_    0.725736 0.702612 0.267099 0.161384
H41   H     H_    0.796024 0.744710 0.272896 0.188964
H42   H     H_    0.737232 0.767429 0.198482 0.183344
H43   H     H_    0.203944 0.255259 0.727092 0.188966
H44   H     H_    0.274232 0.297356 0.732922 0.161383
H45   H     H_    0.712492 0.660557 0.418025 0.175580
H46   H     H_    0.262726 0.232529 0.801516 0.183344
H47   H     H_    0.274339 0.702504 0.732860 0.162616
H48   H     H_    0.204046 0.744602 0.727140 0.189118
H49   H     H_    0.262856 0.767291 0.801537 0.182662
H50   H     H_    0.795942 0.255410 0.272855 0.189119
H51   H     H_    0.725648 0.297508 0.267148 0.162616
H52   H     H_    0.737128 0.232725 0.198462 0.182662
H53   H     H_    0.225808 0.202678 0.267057 0.161516
H54   H     H_    0.296083 0.244799 0.272878 0.188774
H55   H     H_    0.237287 0.267512 0.198466 0.183222
H56   H     H_    0.287497 0.339431 0.582014 0.175581
H57   H     H_    0.703948 0.755231 0.727136 0.188773
H58   H     H_    0.774222 0.797354 0.732921 0.161516
H59   H     H_    0.762755 0.732529 0.801536 0.183222
H60   H     H_    0.774303 0.202520 0.732842 0.162802
H61   H     H_    0.704013 0.244622 0.727117 0.189150
H62   H     H_    0.762819 0.267304 0.801523 0.182451
H63   H     H_    0.295999 0.755367 0.272888 0.189150
H64   H     H_    0.225708 0.797467 0.267149 0.162802
H65   H     H_    0.237198 0.732679 0.198477 0.182451
H66   H     H_    0.634404 0.891777 0.980601 0.191146
H67   H     H_    0.287537 0.660518 0.581891 0.175895
H68   H     H_    0.563229 0.864938 0.936406 0.185655
H69   H     H_    0.601337 0.824504 0.022836 0.170814
H70   H     H_    0.436771 0.135062 0.063594 0.185653
H71   H     H_    0.365596 0.108222 0.019399 0.191146
H72   H     H_    0.398663 0.175496 0.977164 0.170814
H73   H     H_    0.414647 0.877766 0.063585 0.182950
H74   H     H_    0.473414 0.829468 0.019774 0.195294
H75   H     H_    0.398604 0.824560 0.977248 0.169352
H76   H     H_    0.526586 0.170532 0.980226 0.195294
H77   H     H_    0.585353 0.122234 0.936415 0.182951
H78   H     H_    0.712458 0.339486 0.418125 0.175895
H79   H     H_    0.601396 0.175440 0.022752 0.169352
H80   H     H_    0.145412 0.407113 0.980637 0.191441
H81   H     H_    0.077600 0.372626 0.936492 0.185140
H82   H     H_    0.119916 0.336633 0.022948 0.170304
H83   H     H_    0.922400 0.627374 0.063508 0.185142
H84   H     H_    0.854588 0.592887 0.019363 0.191441
H85   H     H_    0.880083 0.663367 0.977052 0.170304
H86   H     H_    0.928538 0.369182 0.063663 0.183533
H87   H     H_    0.992210 0.327575 0.019842 0.195295
H88   H     H_    0.918372 0.314539 0.977358 0.169932
H89   H     H_    0.648463 0.987282 0.064391 0.190976
H90   H     H_    0.007790 0.672425 0.980158 0.195295
H91   H     H_    0.071462 0.630818 0.936337 0.183533
H92   H     H_    0.081628 0.685461 0.022642 0.169932
N1    N     N_1   0.500020 0.000000 0.268010 -0.098659
N2    N     N_1   0.499980 1.000000 0.731990 -0.098659
N3    N     N_1   0.000020 0.500000 0.268010 -0.098660
N4    N     N_1   0.999980 0.500000 0.731990 -0.098660
O1    O     O_R   0.438390 0.938390 0.574460 -0.600467
O2    O     O_R   0.561600 0.061610 0.574480 -0.612198
O3    O     O_R   0.561600 0.938390 0.574480 -0.612287
O4    O     O_R   0.438400 0.061610 0.425520 -0.612289
O5    O     O_R   0.938400 0.438390 0.425520 -0.612015
O6    O     O_R   0.061600 0.561610 0.574480 -0.612015
O7    O     O_R   0.061600 0.438390 0.574480 -0.612403
O8    O     O_R   0.938400 0.561610 0.425520 -0.612401
O9    O     O_3   0.615386 0.004689 0.934522 -0.609144
O10   O     O_3   0.384614 0.995311 0.065478 -0.609145
O11   O     O_3   0.114184 0.517274 0.934520 -0.609204
O12   O     O_R   0.561610 0.061610 0.425540 -0.600469
O13   O     O_3   0.885816 0.482726 0.065480 -0.609203
O14   O     O_3   0.647430 0.711895 0.583036 -0.594098
O15   O     O_3   0.352581 0.288116 0.417007 -0.594098
O16   O     O_3   0.352551 0.711932 0.416884 -0.594073
O17   O     O_3   0.647454 0.288063 0.583132 -0.594073
O18   O     O_3   0.147444 0.211910 0.582977 -0.593878
O19   O     O_3   0.852545 0.788079 0.416980 -0.593879
O20   O     O_3   0.852514 0.211966 0.416851 -0.594148
O21   O     O_3   0.147481 0.788039 0.583132 -0.594147
O22   O     O_3   0.720845 0.785721 0.330415 -0.592665
O23   O     O_R   0.561610 0.938390 0.425540 -0.600391
O24   O     O_3   0.279132 0.214255 0.669583 -0.592667
O25   O     O_3   0.279206 0.785643 0.669611 -0.593844
O26   O     O_3   0.720784 0.214366 0.330388 -0.593844
O27   O     O_3   0.220888 0.285776 0.330404 -0.592504
O28   O     O_3   0.779135 0.714248 0.669598 -0.592504
O29   O     O_3   0.779181 0.285660 0.669601 -0.594093
O30   O     O_3   0.220828 0.714331 0.330400 -0.594093
O31   O     O_3   0.561742 0.902412 0.066076 -0.599004
O32   O     O_3   0.438258 0.097588 0.933924 -0.599002
O33   O     O_3   0.446368 0.897730 0.933976 -0.599809
O34   O     O_R   0.438390 0.061610 0.574460 -0.600389
O35   O     O_3   0.553632 0.102270 0.066024 -0.599810
O36   O     O_3   0.072033 0.409749 0.066126 -0.598538
O37   O     O_3   0.927967 0.590251 0.933874 -0.598540
O38   O     O_3   0.957868 0.392475 0.934028 -0.600471
O39   O     O_3   0.042131 0.607525 0.065972 -0.600470
O40   O     O_R   0.938390 0.438390 0.574460 -0.600650
O41   O     O_R   0.061610 0.561610 0.425540 -0.600649
O42   O     O_R   0.061610 0.438390 0.425540 -0.600277
O43   O     O_R   0.938390 0.561610 0.574460 -0.600279
O44   O     O_R   0.438400 0.938390 0.425520 -0.612199
Zn1   Zn    Zn3+2 0.500000 1.000000 0.599450 1.014877
Zn2   Zn    Zn3+2 0.500000 1.000000 0.400550 1.014874
Zn3   Zn    Zn3+2 1.000000 0.500000 0.599450 1.014878
Zn4   Zn    Zn3+2 1.000000 0.500000 0.400550 1.014881

loop_
_geom_bond_atom_site_label_1
_geom_bond_atom_site_label_2
_ccdc_geom_bond_type
C102  H66   S    
C12   C69   S    
C29   C63   S    
C33   C55   S    
C40   C60   S    
C26   C79   S    
C83   O43   A    
C29   C42   S    
C85   H16   S    
O41   Zn4   S    
C17   C47   S    
C19   C71   S    
C88   H26   S    
C57   C66   S    
C36   C59   S    
C1    O1    A    
C81   H6    S    
C38   H23   S    
C58   O28   S    
C41   C67   S    
C37   H12   S    
C15   C77   S    
C10   C67   S    
C2    C46   T    
C102  H69   S    
C34   C56   S    
C80   H89   S    
C6    O38   S    
C21   C76   S    
C28   C46   S    
C89   H28   S    
C5    O37   S    
C60   O30   S    
C32   C36   S    
C73   O9    S    
C92   O21   S    
C19   C21   S    
C24   C26   S    
C98   O27   S    
C38   C62   S    
C52   C61   S    
C35   O21   S    
O34   Zn1   S    
C87   H20   S    
C90   H30   S    
C34   O20   S    
C82   H7    S    
C29   O15   S    
C104  H75   S    
C41   H45   S    
C54   C63   S    
N2    Zn1   S    
C56   C65   S    
C21   O31   S    
C80   H2    S    
N1    Zn2   S    
C88   O17   S    
C62   C70   S    
C101  H63   S    
C97   H52   S    
C4    H82   S    
C91   O20   S    
C19   C77   S    
C92   H39   S    
C44   C56   S    
C86   O15   S    
C41   C55   S    
C3    O35   S    
C89   O18   S    
C99   H57   S    
C104  H74   S    
C29   C59   S    
C25   O36   S    
C84   H13   S    
C30   C60   S    
C6    H87   S    
C86   H18   S    
C27   O14   S    
C87   O16   S    
C98   H53   S    
C93   H41   S    
C101  O30   S    
C7    H90   S    
C36   C63   S    
C59   O27   S    
C34   C70   S    
C74   C78   S    
C37   C58   S    
C61   O6    A    
C39   C45   S    
C93   O22   S    
C57   O25   S    
O5    Zn4   S    
C20   C76   S    
C23   C25   S    
C81   O10   S    
C81   H4    S    
O3    Zn1   S    
C43   C69   S    
C40   C66   S    
C39   O4    A    
C24   C75   S    
C42   C68   S    
C4    O36   S    
C31   C62   S    
C85   H14   S    
C88   H25   S    
C45   C94   T    
C19   O33   S    
N4    Zn3   S    
C32   C54   S    
C12   C52   T    
C2    C64   S    
C72   O7    A    
C13   C53   T    
C33   O19   S    
O23   Zn2   S    
C61   O41   A    
C14   N1    T    
C21   C73   S    
C50   C53   S    
C89   H29   S    
C31   C44   S    
C35   C40   S    
C25   C78   S    
C98   H54   S    
C95   H43   S    
C82   H9    S    
O12   Zn2   S    
C23   O38   S    
C43   H67   S    
C11   C68   S    
C18   C79   S    
C96   H47   S    
C103  H70   S    
O42   Zn4   S    
C40   H34   S    
C100  H61   S    
C25   C75   S    
C85   H15   S    
C82   H8    S    
C4    H81   S    
C101  H64   S    
C3    H76   S    
O8    Zn4   S    
C83   O8    A    
C1    O44   A    
C72   O42   A    
C59   C68   S    
O40   Zn3   S    
C99   H58   S    
C90   H32   S    
C27   C41   S    
C54   O24   S    
C104  H73   S    
C63   C94   S    
C38   C65   S    
C62   O29   S    
C75   O11   S    
C55   C64   S    
C6    H86   S    
C86   H17   S    
C103  H71   S    
C93   H42   S    
C100  H60   S    
C95   H46   S    
O4    Zn2   S    
C97   H50   S    
C4    H80   S    
C100  H62   S    
C44   C70   S    
C92   H37   S    
C3    H77   S    
C90   O19   S    
C30   C66   S    
C16   N3    T    
N3    Zn4   S    
C55   O22   S    
C99   H59   S    
C24   C78   S    
C104  O33   S    
C7    O39   S    
C84   H11   S    
O43   Zn3   S    
C74   O13   S    
C18   N4    T    
C102  O31   S    
C91   H35   S    
C30   C43   S    
C51   C72   S    
C5    H83   S    
C23   C74   S    
C7    H91   S    
C44   H78   S    
C22   C71   S    
C87   H21   S    
C37   C64   S    
C92   H38   S    
C84   O13   S    
C33   C67   S    
C33   C37   S    
C82   O11   S    
C15   N2    T    
C103  O32   S    
C31   C65   S    
O2    Zn1   S    
C100  O29   S    
C84   H10   S    
C36   H1    S    
C34   C38   S    
C28   O3    A    
C42   H56   S    
C95   H44   S    
C99   O28   S    
C22   C77   S    
C20   C22   S    
C27   C58   S    
O7    Zn3   S    
C39   O34   A    
C1    C48   S    
C96   H49   S    
C71   O10   S    
O1    Zn1   S    
C81   H5    S    
C95   O24   S    
C89   H27   S    
C56   O26   S    
C35   C57   S    
C96   O25   S    
C49   C83   S    
C50   O40   A    
O6    Zn3   S    
C8    C47   T    
C5    H85   S    
C88   H24   S    
C85   O14   S    
C9    C66   S    
C32   C68   S    
C80   H3    S    
C90   H31   S    
C42   C54   S    
C26   O37   S    
C71   C76   S    
C75   C79   S    
C60   C69   S    
C28   O23   A    
C91   H33   S    
C93   H40   S    
C103  H72   S    
C26   C74   S    
O44   Zn2   S    
C20   C73   S    
C97   O26   S    
C16   C78   S    
C97   H51   S    
C101  H65   S    
C17   O2    A    
C17   O12   A    
C24   O39   S    
C11   C51   T    
C27   C64   S    
C43   C57   S    
C30   O16   S    
C91   H36   S    
C50   O5    A    
C58   C67   S    
C8    C65   S    
C22   O32   S    
C98   H55   S    
C35   C69   S    
C9    C48   T    
C13   C70   S    
C6    H88   S    
C86   H19   S    
C73   C77   S    
C5    H84   S    
C23   C79   S    
C7    H92   S    
C102  H68   S    
C10   C49   T    
C3    H79   S    
C87   H22   S    
C32   O18   S    
C20   O35   S    
C14   C76   S    
C80   O9    S    
C31   O17   S    
C96   H48   S    
