data_mof_unit_5622.cif
_audit_creation_date              2013-03-05T15:52:54-0500
_audit_creation_method            fapswitch 2.2
_symmetry_space_group_name_H-M    P1
_symmetry_Int_Tables_number       1
_space_group_crystal_system       triclinic
_cell_length_a                    14.967946
_cell_length_b                    10.643848
_cell_length_c                    9.999902
_cell_angle_alpha                 94.065115
_cell_angle_beta                  89.822719
_cell_angle_gamma                 91.350405
_cell_volume                      1588.69866889

loop_
_atom_site_label
_atom_site_type_symbol
_atom_site_description
_atom_site_fract_x
_atom_site_fract_y
_atom_site_fract_z
_atom_type_partial_charge
O1    O     O_R   0.500000 0.316780 0.614690 -0.602367
O2    O     O_R   0.499990 0.316750 0.385360 -0.574228
C1    C     C_R   0.506193 0.260432 0.496591 0.940102
O3    O     O_R   0.367850 0.499980 0.614680 -0.576563
O4    O     O_R   0.367840 0.499960 0.385350 -0.638995
C2    C     C_R   0.327404 0.500341 0.500242 0.991296
Zn1   Zn    Zn3+2 0.500010 0.500020 0.653130 1.097217
Zn2   Zn    Zn3+2 0.499990 0.499980 0.346870 1.120844
O5    O     O_R   0.500010 0.683250 0.614640 -0.565900
O6    O     O_R   0.500000 0.683220 0.385310 -0.557840
O7    O     O_R   0.632160 0.500040 0.614650 -0.589638
O8    O     O_R   0.632150 0.500020 0.385320 -0.547129
C3    C     C_R   0.493104 0.739839 0.505774 0.962858
C4    C     C_R   0.672275 0.498072 0.499399 0.979903
C5    C     C_R   0.813865 0.611740 0.527665 0.378449
C6    C     C_R   0.767499 0.498347 0.496992 -0.253111
C7    C     C_R   0.810801 0.386169 0.460470 0.250457
C8    C     C_R   0.903811 0.389183 0.444266 -0.093337
C9    C     C_R   0.952437 0.499560 0.491008 -0.055780
C10   C     C_R   0.907199 0.610459 0.539122 -0.053942
C11   C     C_R   0.949364 0.286490 0.380801 0.361622
C12   C     C_R   0.042367 0.283205 0.386340 0.227779
C13   C     C_R   0.091822 0.387748 0.445699 -0.132835
C14   C     C_R   0.046296 0.499102 0.489698 -0.008697
C15   C     C_R   0.094594 0.609661 0.535408 -0.005235
C16   C     C_R   0.049470 0.715803 0.587636 -0.135330
C17   C     C_R   0.957054 0.716244 0.594207 0.310299
C18   C     C_R   0.185245 0.386439 0.461735 0.328182
C19   C     C_R   0.231617 0.498750 0.500141 -0.262353
C20   C     C_R   0.187705 0.610602 0.534251 0.219272
H1    H     H_    0.085815 0.797395 0.632033 0.236159
H2    H     H_    0.421574 0.101438 0.327866 0.254743
C21   C     C_R   0.611784 0.134800 0.690165 -0.169494
H3    H     H_    0.642154 0.223558 0.665795 0.204067
C22   C     C_R   0.632552 0.088992 0.812781 0.349045
C23   C     C_R   0.586814 0.982277 0.853703 0.361626
C24   C     C_R   0.527795 0.914080 0.764342 0.350677
C25   C     C_R   0.519729 0.949048 0.629600 -0.082444
C26   C     C_R   0.550101 0.069812 0.602347 -0.002641
C27   C     C_R   0.511846 0.126167 0.493274 -0.065724
C28   C     C_R   0.457365 0.056928 0.402387 -0.078294
C29   C     C_R   0.444487 0.930369 0.410703 0.422447
C30   C     C_R   0.480083 0.873772 0.520668 -0.129248
C31   C     C_R   0.359691 0.381953 0.128361 0.362643
C32   C     C_R   0.274507 0.399444 0.076341 -0.210409
H4    H     H_    0.215637 0.370620 0.130203 0.224654
C33   C     C_R   0.267780 0.409145 0.938537 -0.183170
H5    H     H_    0.203813 0.387396 0.890897 0.213489
C34   C     C_R   0.346414 0.405881 0.862159 0.467227
C35   C     C_R   0.427387 0.449302 0.925462 -0.009004
C36   C     C_R   0.429416 0.447104 0.068265 -0.039664
N1    N     N_R   0.499150 0.498800 0.142780 -0.162975
C37   C     C_R   0.565476 0.559781 0.075657 0.425098
C38   C     C_R   0.566204 0.558164 0.932868 0.398484
N2    N     N_R   0.499120 0.498720 0.857170 -0.159784
Cl1   Cl    Cl    0.752981 0.753844 0.535042 -0.428574
Cl2   Cl    Cl    0.707644 0.176736 0.919911 -0.359917
Cl3   Cl    Cl    0.598235 0.940772 0.020643 -0.293791
Cl4   Cl    Cl    0.444839 0.819653 0.837584 -0.392560
Cl5   Cl    Cl    0.378446 0.849140 0.284472 -0.384635
Cl6   Cl    Cl    0.648138 0.649494 0.166507 -0.356321
N3    N     N_R   0.378453 0.256852 0.163677 0.207695
O9    O     O_R   0.312556 0.176712 0.177452 -0.266106
O10   O     O_R   0.457249 0.211883 0.136383 -0.341071
Cl7   Cl    Cl    0.344958 0.274120 0.746943 -0.473566
N4    N     N_R   0.760835 0.268886 0.451804 0.199394
O11   O     O_R   0.784339 0.178091 0.523940 -0.293861
O12   O     O_R   0.697357 0.248536 0.363803 -0.319998
Cl8   Cl    Cl    0.650653 0.644632 0.854934 -0.400553
Cl9   Cl    Cl    0.894250 0.169373 0.273202 -0.285367
N5    N     N_R   0.085225 0.176882 0.320451 0.283986
O13   O     O_R   0.115891 0.184239 0.199405 -0.284849
O14   O     O_R   0.076768 0.067003 0.369101 -0.209150
Cl10  Cl    Cl    0.246039 0.245081 0.451505 -0.444883
N6    N     N_R   0.238103 0.723829 0.572163 0.184167
O15   O     O_R   0.278739 0.734771 0.687152 -0.311087
O16   O     O_R   0.230934 0.822371 0.503416 -0.281547
N7    N     N_R   0.916581 0.818774 0.671141 0.254388
O17   O     O_R   0.868671 0.796103 0.775968 -0.243599
O18   O     O_R   0.941826 0.934268 0.653427 -0.250703

loop_
_geom_bond_atom_site_label_1
_geom_bond_atom_site_label_2
_geom_bond_distance
_ccdc_geom_bond_type
N4    O12   1.300969 A    
C8    C11   1.412974 A    
C28   C29   1.364633 A    
C9    C10   1.427749 A    
Zn1   N2    2.041408 S    
C17   N7    1.434951 S    
C18   Cl10  1.773259 S    
C33   C34   1.400891 A    
C37   C38   1.426769 A    
N1    C37   1.372842 A    
Zn1   O7    2.013924 S    
C7    N4    1.437443 S    
C21   C26   1.410990 A    
C34   Cl7   1.750539 S    
C18   C19   1.398481 A    
C24   C25   1.429273 A    
C23   Cl3   1.766666 S    
C25   C26   1.398042 A    
O7    C4    1.296961 A    
N7    O18   1.301503 A    
C5    C6    1.393478 A    
C8    C9    1.418592 A    
O5    C3    1.286554 A    
N3    O10   1.304112 A    
C37   Cl6   1.759629 S    
C22   C23   1.397793 A    
C6    C7    1.397246 A    
C13   C14   1.423030 A    
C19   C20   1.394146 A    
Zn2   N1    2.040104 S    
N4    O11   1.301729 A    
C16   H1    1.082512 S    
C11   C12   1.394700 A    
O3    Zn1   2.016335 S    
C21   H3    1.081774 S    
C32   C33   1.393296 A    
C5    C10   1.402519 A    
C36   N1    1.366416 A    
C14   C15   1.414940 A    
O3    C2    1.296582 A    
C29   Cl5   1.769388 S    
C26   C27   1.410726 A    
N5    O14   1.301471 A    
N7    O17   1.301681 A    
C35   C36   1.430293 A    
C15   C16   1.398365 A    
C32   H4    1.080940 S    
O1    C1    1.290171 A    
N6    O15   1.299127 A    
N3    O9    1.302162 A    
C33   H5    1.083503 S    
Zn2   O8    2.016337 S    
C7    C8    1.400956 A    
C16   C17   1.384735 A    
C13   C18   1.408510 A    
N6    O16   1.300863 A    
C24   Cl4   1.768705 S    
C31   C36   1.397249 A    
C27   C28   1.383989 A    
O8    C4    1.292558 A    
C1    C27   1.431619 S    
C4    C6    1.425372 S    
C29   C30   1.403093 A    
H2    C28   1.063597 S    
C12   N5    1.432565 S    
C3    C30   1.440564 S    
C31   C32   1.400002 A    
C15   C20   1.393500 A    
Zn1   O5    2.014480 S    
C38   N2    1.374201 A    
C23   C24   1.410149 A    
O1    Zn1   1.960977 S    
O2    Zn2   2.014480 S    
O6    C3    1.313090 A    
O4    Zn2   2.013924 S    
C10   C17   1.415300 A    
C35   N2    1.384067 A    
C11   Cl9   1.777374 S    
C22   Cl2   1.760501 S    
C31   N3    1.435802 S    
C5    Cl1   1.781127 S    
O2    C1    1.304973 A    
N5    O13   1.300122 A    
C20   N6    1.435047 S    
O4    C2    1.296721 A    
C38   Cl8   1.758676 S    
C21   C22   1.389991 A    
C9    C14   1.405004 A    
C25   C30   1.427781 A    
C2    C19   1.433425 S    
Zn2   O6    1.960977 S    
C34   C35   1.421307 A    
C12   C13   1.417300 A    
