data_mof_unit_11126.cif
_audit_creation_date              2012-12-10T17:14:41-0500
_audit_creation_method            fapswitch 2.2
_symmetry_space_group_name_H-M    P1
_symmetry_Int_Tables_number       1
_space_group_crystal_system       triclinic
_cell_length_a                    10.649068
_cell_length_b                    12.899672
_cell_length_c                    11.898567
_cell_angle_alpha                 97.614113
_cell_angle_beta                  90.941266
_cell_angle_gamma                 95.195375
_cell_volume                      1612.76361104

loop_
_atom_site_label
_atom_site_type_symbol
_atom_type_description
_atom_site_fract_x
_atom_site_fract_y
_atom_site_fract_z
_atom_type_partial_charge
C1    C     C_R   0.496462 0.300148 0.480221 0.789149
C2    C     C_R   0.503537 0.699852 0.519779 0.789154
C3    C     C_R   0.561942 0.138375 0.540594 -0.273746
C4    C     C_R   0.438058 0.861626 0.459406 -0.273821
C5    C     C_R   0.545724 0.030020 0.537801 0.178299
C6    C     C_R   0.454276 0.969980 0.462200 0.178263
C7    C     C_R   0.373104 0.398841 0.037312 0.293718
C8    C     C_R   0.626898 0.601154 0.962689 0.293724
C9    C     C_R   0.391421 0.407964 0.154940 -0.042306
C10   C     C_R   0.608592 0.592025 0.845057 -0.042334
C11   C     C_R   0.551294 0.548586 0.151193 0.210168
C12   C     C_R   0.448702 0.451416 0.848807 0.210161
C13   C     C_R   0.545743 0.538104 0.029029 -0.077884
C14   C     C_R   0.454257 0.461893 0.970970 -0.077889
C15   C     C_R   0.259766 0.495883 0.502068 0.776176
C16   C     C_R   0.740233 0.504119 0.497932 0.776158
C17   C     C_3   0.033321 0.481749 0.604222 0.126308
C18   C     C_3   0.966680 0.518256 0.395777 0.126470
C19   C     C_3   0.940512 0.408645 0.521361 -0.246047
C20   C     C_3   0.059488 0.591361 0.478639 -0.245928
C21   C     C_3   0.877424 0.505871 0.494394 -0.104129
C22   C     C_3   0.122574 0.494133 0.505606 -0.104133
C23   C     C_3   0.969438 0.578196 0.577350 0.119205
C24   C     C_3   0.030559 0.421810 0.422648 0.119281
C25   C     C_R   0.513558 0.812992 0.529389 -0.032889
C26   C     C_R   0.486441 0.187009 0.470611 -0.032935
C27   C     C_R   0.381389 0.019197 0.390041 -0.219495
C28   C     C_R   0.618610 0.980803 0.609960 -0.219483
C29   C     C_R   0.397695 0.127658 0.394097 -0.214366
C30   C     C_R   0.602303 0.872343 0.605905 -0.214378
Cu1   Cu    Cu3+1 0.509400 0.507730 0.615930 0.902240
Cu2   Cu    Cu3+1 0.490600 0.492270 0.384070 0.902250
H1    H     H_    0.889243 0.333798 0.538721 0.130266
H2    H     H_    0.110764 0.666202 0.461269 0.130144
H3    H     H_    0.367530 0.814984 0.402586 0.128120
H4    H     H_    0.632471 0.185016 0.597413 0.128134
H5    H     H_    0.661064 0.834447 0.660267 0.142318
H6    H     H_    0.338931 0.165554 0.339737 0.142408
H7    H     H_    0.311526 0.974093 0.331483 0.135636
H8    H     H_    0.688471 0.025908 0.668519 0.135605
H9    H     H_    0.665095 0.642073 0.795584 0.121865
H10   H     H_    0.334943 0.357898 0.204409 0.121789
N1    N     N_R   0.523540 0.519360 0.790140 -0.216893
N2    N     N_R   0.476460 0.480640 0.209860 -0.216887
O1    O     O_R   0.506670 0.354460 0.582000 -0.597435
O2    O     O_R   0.493330 0.645540 0.418000 -0.597437
O3    O     O_R   0.490800 0.341410 0.386200 -0.578077
O4    O     O_R   0.509200 0.658590 0.613800 -0.578072
O5    O     O_R   0.324790 0.506500 0.597880 -0.606451
O6    O     O_R   0.675210 0.493500 0.402120 -0.606423
O7    O     O_R   0.308910 0.493440 0.402080 -0.584157
O8    O     O_R   0.691090 0.506560 0.597920 -0.584151
C31   C     C_3   0.068806 0.449053 0.718142 -0.416146
C32   C     C_3   0.956469 0.443342 0.796950 -0.345361
C33   C     C_3   0.985753 0.385509 0.896736 -0.842234
H11   H     H_    0.004315 0.303316 0.866077 0.261196
H12   H     H_    0.069627 0.426099 0.945886 0.286120
H13   H     H_    0.904051 0.383906 0.953498 0.240411
H14   H     H_    0.934604 0.523869 0.830633 0.222571
H15   H     H_    0.871612 0.401478 0.749992 0.230979
H16   H     H_    0.101897 0.369663 0.698920 0.189692
H17   H     H_    0.146637 0.504501 0.760064 0.198487
C34   C     C_3   0.931212 0.550939 0.281851 -0.416297
C35   C     C_3   0.043570 0.556660 0.203073 -0.345376
C36   C     C_3   0.014213 0.614316 0.103167 -0.842330
H18   H     H_    0.930349 0.573631 0.054078 0.286054
H19   H     H_    0.995593 0.696520 0.133700 0.261215
H20   H     H_    0.095902 0.615880 0.046392 0.240517
H21   H     H_    0.128347 0.598669 0.250014 0.230961
H22   H     H_    0.065589 0.476145 0.169537 0.222562
H23   H     H_    0.853401 0.495477 0.239925 0.198532
H24   H     H_    0.898107 0.630324 0.301051 0.189696
C37   C     C_3   0.932790 0.671817 0.658970 -0.413728
C38   C     C_3   0.048542 0.734177 0.721313 -0.332885
C39   C     C_3   0.010786 0.828400 0.800669 -0.858784
H25   H     H_    0.961608 0.881435 0.752131 0.251313
H26   H     H_    0.947681 0.801753 0.866656 0.246966
H27   H     H_    0.096518 0.872987 0.843232 0.247346
H28   H     H_    0.097777 0.683039 0.772069 0.222370
H29   H     H_    0.115311 0.762910 0.658971 0.219558
H30   H     H_    0.883254 0.723811 0.609332 0.181685
H31   H     H_    0.866533 0.643189 0.721159 0.192872
C40   C     C_3   0.067207 0.328152 0.341084 -0.413963
C41   C     C_3   0.951543 0.266064 0.278319 -0.333212
C42   C     C_3   0.989171 0.171243 0.199862 -0.859224
H32   H     H_    0.053562 0.197132 0.134469 0.247055
H33   H     H_    0.036842 0.118030 0.249242 0.251463
H34   H     H_    0.903577 0.127129 0.156562 0.247395
H35   H     H_    0.883960 0.238030 0.340373 0.219916
H36   H     H_    0.903301 0.317164 0.226822 0.222310
H37   H     H_    0.133807 0.356699 0.279118 0.192727
H38   H     H_    0.116338 0.276014 0.390847 0.182027
C43   C     C_3   0.362945 0.362583 0.783719 -0.291410
C44   C     C_3   0.412732 0.254633 0.788246 -0.304085
C45   C     C_3   0.318693 0.165868 0.731826 -0.830632
H39   H     H_    0.229599 0.163879 0.779087 0.262365
H40   H     H_    0.297420 0.176998 0.642791 0.247140
H41   H     H_    0.359000 0.089440 0.731885 0.248754
H42   H     H_    0.504032 0.251725 0.745492 0.216346
H43   H     H_    0.432121 0.240644 0.876507 0.242263
H44   H     H_    0.266171 0.365034 0.813450 0.218996
H45   H     H_    0.346442 0.372317 0.696082 0.221874
C46   C     C_3   0.637051 0.637418 0.216282 -0.291383
C47   C     C_3   0.587270 0.745369 0.211751 -0.304120
C48   C     C_3   0.681314 0.834133 0.268165 -0.830593
H46   H     H_    0.702601 0.823000 0.357196 0.247140
H47   H     H_    0.770401 0.836126 0.220893 0.262356
H48   H     H_    0.641003 0.910560 0.268114 0.248780
H49   H     H_    0.567879 0.759356 0.123490 0.242260
H50   H     H_    0.495974 0.748282 0.254508 0.216353
H51   H     H_    0.653555 0.627684 0.303919 0.221870
H52   H     H_    0.733825 0.634961 0.186553 0.218992
O9    O     O_3   0.274753 0.329220 0.989048 -0.784004
H53   H     H_    0.228398 0.294624 0.047656 0.310532
O10   O     O_3   0.725247 0.670774 0.010956 -0.784030
H54   H     H_    0.771528 0.705441 0.952361 0.310515

loop_
_geom_bond_atom_site_label_1
_geom_bond_atom_site_label_2
_ccdc_geom_bond_type
C33   H11   S    
C43   C44   S    
C27   C29   A    
C18   C21   S    
C37   C38   S    
C45   H39   S    
Cu1   O8    S    
C4    C25   A    
C45   H41   S    
C15   C22   S    
C32   H15   S    
C31   C32   S    
C2    O2    A    
C40   H38   S    
C48   H47   S    
C9    H10   S    
C16   C21   S    
Cu1   N1    S    
C40   C41   S    
C18   C24   S    
C3    H4    S    
C19   C21   S    
C24   C40   S    
C23   C37   S    
C12   N1    A    
C47   H49   S    
C18   C34   S    
C28   H8    S    
O10   H54   S    
C46   H51   S    
C8    O10   S    
C31   H16   S    
C7    C14   A    
Cu1   Cu2   S    
C27   H7    S    
C36   H19   S    
C29   H6    S    
C15   O7    A    
C20   H2    S    
C4    H3    S    
C38   H29   S    
C13   C14   A    
C10   H9    S    
C41   H36   S    
Cu1   O5    S    
C37   H30   S    
C47   C48   S    
C32   H14   S    
C42   H33   S    
C48   H48   S    
C38   C39   S    
C41   C42   S    
C4    C6    A    
C19   H1    S    
C43   H44   S    
C1    O3    A    
C2    O4    A    
C42   H32   S    
C30   H5    S    
C46   H52   S    
C39   H25   S    
Cu2   O7    S    
C5    C28   A    
C31   H17   S    
C6    C27   A    
C20   C23   S    
C44   H43   S    
C36   H20   S    
Cu2   N2    S    
C11   N2    A    
C17   C23   S    
C35   H21   S    
C39   H26   S    
Cu2   O6    S    
C20   C22   S    
C35   H22   S    
Cu1   O4    S    
C33   H12   S    
C1    C26   S    
Cu2   O3    S    
C22   C24   S    
C12   C43   S    
C41   H35   S    
C17   C31   S    
C37   H31   S    
O9    H53   S    
C42   H34   S    
C25   C30   A    
C7    C9    A    
C32   C33   S    
C9    N2    A    
C10   N1    A    
Cu2   O2    S    
C3    C26   A    
C16   O8    A    
C34   H23   S    
C3    C5    A    
C43   H45   S    
C45   H40   S    
C40   H37   S    
C48   H46   S    
C17   C22   S    
C38   H28   S    
C35   C36   S    
C7    O9    S    
C21   C23   S    
C19   C24   S    
C12   C14   A    
C47   H50   S    
C11   C13   A    
C1    O1    A    
C5    C6    A    
C44   H42   S    
C28   C30   A    
C17   C19   S    
C2    C25   S    
C18   C20   S    
C15   O5    A    
C44   C45   S    
C16   O6    A    
C39   H27   S    
C34   C35   S    
C8    C13   A    
C34   H24   S    
C26   C29   A    
C8    C10   A    
C36   H18   S    
Cu1   O1    S    
C33   H13   S    
C46   C47   S    
C11   C46   S    
