data_mof_unit_29995.cif
_audit_creation_date              2012-10-26T19:07:18-0400
_audit_creation_method            fapswitch 2.2
_symmetry_space_group_name_H-M    P1
_symmetry_Int_Tables_number       1
_space_group_crystal_system       triclinic
_cell_length_a                    15.113135
_cell_length_b                    14.006834
_cell_length_c                    10.683194
_cell_angle_alpha                 89.209204
_cell_angle_beta                  87.150637
_cell_angle_gamma                 90.663992
_cell_volume                      2258.31347473

loop_
_atom_site_label
_atom_site_type_symbol
_atom_type_description
_atom_site_fract_x
_atom_site_fract_y
_atom_site_fract_z
_atom_type_partial_charge
C1    C     C_R   0.329331 0.499898 0.501008 0.576239
C2    C     C_R   0.966085 0.509550 0.264942 0.075328
C3    C     C_R   0.437201 0.792827 0.571388 0.186118
C4    C     C_R   0.564306 0.207047 0.431537 0.182496
C5    C     C_R   0.562593 0.796412 0.430122 0.178960
C6    C     C_R   0.435607 0.203882 0.567607 0.172700
C7    C     C_R   0.558875 0.898681 0.418664 -0.046094
C8    C     C_R   0.438619 0.101341 0.578481 -0.046285
C9    C     C_R   0.440846 0.895380 0.581405 -0.044150
C10   C     C_R   0.560696 0.104582 0.420260 -0.046216
C11   C     C_R   0.499445 0.948662 0.499322 0.002685
C12   C     C_R   0.670954 0.499722 0.498154 0.596436
C13   C     C_R   0.499574 0.051488 0.499320 0.003697
C14   C     C_R   0.613774 0.952470 0.330183 0.039150
C15   C     C_R   0.383559 0.046927 0.666871 0.040014
C16   C     C_R   0.387940 0.946124 0.671644 0.041537
C17   C     C_R   0.616201 0.053324 0.332681 0.040649
C18   C     C_R   0.500040 0.500383 0.259815 0.617969
C19   C     C_R   0.499821 0.499538 0.740149 0.645665
C20   C     C_3   0.485243 0.588239 0.039664 0.097172
C21   C     C_3   0.515332 0.411064 0.959999 0.106397
C22   C     C_3   0.564097 0.558680 0.952349 0.101539
C23   C     C_R   0.954094 0.477922 0.490279 0.019104
C24   C     C_3   0.436487 0.440570 0.047465 0.103016
C25   C     C_3   0.421096 0.528798 0.962959 -0.105136
C26   C     C_3   0.579517 0.470414 0.036816 -0.109441
C27   C     C_3   0.500323 0.499032 0.877010 0.006398
C28   C     C_3   0.500204 0.500394 0.122842 -0.003609
C29   C     C_R   0.819568 0.517905 0.383625 0.012667
C30   C     C_R   0.181362 0.478228 0.612858 0.013656
C31   C     C_R   0.768471 0.495142 0.495254 -0.024752
C32   C     C_R   0.232376 0.499678 0.501699 -0.034015
C33   C     C_R   0.809376 0.452401 0.597834 0.054338
C34   C     C_R   0.047677 0.480606 0.493655 0.015500
C35   C     C_R   0.190873 0.522926 0.390836 0.042207
C36   C     C_R   0.902532 0.451098 0.599040 -0.006846
C37   C     C_R   0.098861 0.509516 0.385164 -0.015841
C38   C     C_2   0.776443 0.561311 0.275076 0.599598
C39   C     C_2   0.219432 0.499221 0.735346 0.604915
C40   C     C_2   0.755253 0.404072 0.700656 0.585630
C41   C     C_2   0.240166 0.580052 0.292005 0.572982
C42   C     C_2   0.075112 0.369586 0.818230 0.627764
C43   C     C_2   0.931882 0.493976 0.138695 0.650497
C44   C     C_2   0.359003 0.740808 0.626759 0.640874
C45   C     C_R   0.912398 0.501687 0.377984 -0.002950
C46   C     C_2   0.643322 0.259171 0.380327 0.642488
C47   C     C_2   0.642041 0.748698 0.382953 0.638328
C48   C     C_2   0.356490 0.252970 0.615649 0.648412
C49   C     C_2   0.662862 0.906146 0.223702 0.612026
C50   C     C_2   0.327397 0.092656 0.766499 0.615211
C51   C     C_2   0.347126 0.896714 0.784501 0.608158
C52   C     C_2   0.671924 0.102354 0.232409 0.608150
C53   C     C_R   0.089444 0.459021 0.606732 -0.013697
C54   C     C_R   0.945112 0.421907 0.706890 -0.069947
C55   C     C_R   0.057458 0.520484 0.271391 -0.086231
C56   C     C_R   0.037184 0.420575 0.710214 0.078102
Cu1   Cu    Cu3+1 0.500000 0.597420 0.500000 1.138429
Cu2   Cu    Cu3+1 0.500000 0.402580 0.500000 1.139181
H1    H     H_    0.356580 0.556295 0.935159 0.207467
H2    H     H_    0.849846 0.419102 0.032208 0.351070
H3    H     H_    0.227510 0.716122 0.621672 0.361715
H4    H     H_    0.700434 0.339637 0.240657 0.363062
H5    H     H_    0.773171 0.729558 0.403799 0.370903
H6    H     H_    0.227876 0.281557 0.590830 0.376428
H7    H     H_    0.780647 0.864853 0.147151 0.368340
H8    H     H_    0.320604 0.153865 0.936029 0.370772
H9    H     H_    0.235624 0.856572 0.883713 0.363584
H10   H     H_    0.677557 0.171034 0.065989 0.361217
H11   H     H_    0.644772 0.443657 0.063166 0.203219
H12   H     H_    0.906884 0.398402 0.790165 0.174183
H13   H     H_    0.096724 0.531371 0.184772 0.193359
H14   H     H_    0.781917 0.661177 0.136520 0.382123
H15   H     H_    0.202217 0.561733 0.904119 0.361638
H16   H     H_    0.734411 0.284390 0.806024 0.355727
H17   H     H_    0.284288 0.711072 0.237292 0.362020
H18   H     H_    0.169093 0.281842 0.880024 0.379891
I1    I     I_    0.456733 0.730589 0.096213 -0.081985
I2    I     I_    0.541932 0.268711 0.900485 -0.131776
I3    I     I_    0.665407 0.656331 0.881803 -0.114047
I4    I     I_    0.337470 0.340476 0.118898 -0.139098
N1    N     N_R   0.500000 0.743810 0.500000 -0.297669
N2    N     N_R   0.500000 0.256190 0.500000 -0.298160
O1    O     O_R   0.370260 0.582280 0.500030 -0.480764
O2    O     O_R   0.815840 0.640127 0.211382 -0.671868
O3    O     O_2   0.292798 0.470859 0.758858 -0.476015
O4    O     O_R   0.170839 0.553205 0.823328 -0.657293
O5    O     O_2   0.696613 0.446901 0.757886 -0.532788
O6    O     O_R   0.772230 0.308786 0.731217 -0.644082
O7    O     O_2   0.261418 0.545110 0.191104 -0.536005
O8    O     O_R   0.258193 0.676149 0.314218 -0.621700
O9    O     O_2   0.038965 0.374323 0.922888 -0.457566
O10   O     O_R   0.149955 0.312885 0.799611 -0.657206
O11   O     O_2   0.960975 0.541779 0.048814 -0.444825
O12   O     O_R   0.629740 0.417720 0.499970 -0.481390
O13   O     O_R   0.868144 0.422659 0.122078 -0.663744
O14   O     O_2   0.364904 0.690381 0.720064 -0.476764
O15   O     O_R   0.276686 0.754225 0.575448 -0.625046
O16   O     O_2   0.713137 0.251383 0.432656 -0.450400
O17   O     O_R   0.640264 0.312437 0.269285 -0.650734
O18   O     O_2   0.640794 0.703493 0.286397 -0.449551
O19   O     O_R   0.720137 0.761057 0.446138 -0.649090
O20   O     O_2   0.357781 0.297433 0.712970 -0.419159
O21   O     O_R   0.278712 0.244707 0.550827 -0.646078
O22   O     O_2   0.622952 0.879006 0.133876 -0.426929
O23   O     O_R   0.629740 0.582280 0.499970 -0.481003
O24   O     O_R   0.754835 0.897064 0.224895 -0.608081
O25   O     O_2   0.247342 0.097502 0.756150 -0.412671
O26   O     O_R   0.365790 0.125835 0.874061 -0.620680
O27   O     O_2   0.394756 0.861207 0.861092 -0.437256
O28   O     O_R   0.254983 0.892168 0.803534 -0.613449
O29   O     O_2   0.752477 0.105224 0.239041 -0.408704
O30   O     O_R   0.632290 0.141531 0.128695 -0.624790
O31   O     O_R   0.370260 0.417720 0.500030 -0.483803
O32   O     O_R   0.499980 0.582260 0.316850 -0.465222
O33   O     O_R   0.500020 0.417740 0.683150 -0.452233
O34   O     O_R   0.500020 0.582260 0.683150 -0.468411
O35   O     O_R   0.499980 0.417740 0.316850 -0.465560
O36   O     O_2   0.707465 0.527343 0.239892 -0.510301

loop_
_geom_bond_atom_site_label_1
_geom_bond_atom_site_label_2
_ccdc_geom_bond_type
H6    O21   S    
C41   O7    D    
C21   C26   S    
C8    C13   A    
C47   O19   S    
C34   C37   A    
Cu1   O23   S    
C16   C51   S    
H5    O19   S    
C18   O32   A    
C49   O22   D    
C4    C46   S    
C7    C11   A    
C5    C47   S    
C6    C48   S    
C20   I1    S    
C23   C45   A    
C1    O1    A    
C40   O5    D    
C35   C37   A    
C9    C16   A    
C22   I3    S    
C2    C55   A    
Cu2   N2    S    
C12   O23   A    
C14   C49   S    
C20   C25   S    
C52   O30   S    
C10   C17   A    
C15   C16   A    
C33   C36   A    
C42   O9    D    
H10   O30   S    
C15   C50   S    
H17   O8    S    
C42   C56   S    
C24   I4    S    
C7    C14   A    
C21   I2    S    
C3    N1    A    
Cu2   O31   S    
C43   O13   S    
Cu1   O1    S    
C19   C27   S    
C41   O8    S    
C46   O16   D    
C51   O27   D    
C50   O26   S    
C14   C17   A    
C12   O12   A    
C1    O31   A    
C17   C52   S    
Cu1   O34   S    
C2    C45   A    
C30   C53   A    
C54   C56   A    
C3    C44   S    
C33   C40   S    
C32   C35   A    
C18   C28   S    
C24   C25   S    
C5    C7    A    
C6    C8    A    
C20   C28   S    
C52   O29   D    
C48   O21   S    
Cu2   O35   S    
C47   O18   D    
C29   C45   A    
C37   C55   A    
C29   C38   S    
C3    C9    A    
C5    N1    A    
C44   O15   S    
H9    O28   S    
C54   H12   S    
C19   O33   A    
C2    C43   S    
C23   C34   A    
C48   O20   D    
C31   C33   A    
C9    C11   A    
C18   O35   A    
H14   O2    S    
H18   O10   S    
C20   C22   S    
C51   O28   S    
C22   C27   S    
C12   C31   S    
Cu2   O33   S    
Cu1   N1    S    
C25   C27   S    
C39   O3    D    
C4    C10   A    
H7    O24   S    
C53   C56   A    
C44   O14   D    
C38   O2    S    
H3    O15   S    
C24   C28   S    
H8    O26   S    
C10   C13   A    
C6    N2    A    
C49   O24   S    
C8    C15   A    
C26   C28   S    
C40   O6    S    
C46   O17   S    
Cu2   O12   S    
C29   C31   A    
C30   C32   A    
C11   C13   A    
Cu1   Cu2   S    
C50   O25   D    
Cu1   O32   S    
C19   O34   A    
C43   O11   D    
C30   C39   S    
C42   O10   S    
C1    C32   S    
C21   C27   S    
C35   C41   S    
H15   O4    S    
C36   C54   A    
H4    O17   S    
C38   O36   D    
H2    O13   S    
C4    N2    A    
C34   C53   A    
C23   C36   A    
C22   C26   S    
C21   C24   S    
C26   H11   S    
C25   H1    S    
C39   O4    S    
H16   O6    S    
C55   H13   S    
