data_mof_unit_9576.cif
_audit_creation_date              2012-12-11T14:38:27-0500
_audit_creation_method            fapswitch 2.2
_symmetry_space_group_name_H-M    P1
_symmetry_Int_Tables_number       1
_space_group_crystal_system       triclinic
_cell_length_a                    19.598228
_cell_length_b                    11.184705
_cell_length_c                    19.694366
_cell_angle_alpha                 90.286674
_cell_angle_beta                  96.329728
_cell_angle_gamma                 90.174038
_cell_volume                      4290.61419253

loop_
_atom_site_label
_atom_site_type_symbol
_atom_type_description
_atom_site_fract_x
_atom_site_fract_y
_atom_site_fract_z
_atom_type_partial_charge
C1    C     C_R   0.725851 0.947007 0.358219 0.532520
C2    C     C_3   0.221547 0.502327 0.476165 -0.211126
C3    C     C_3   0.317693 0.000470 0.532190 -0.173394
C4    C     C_3   0.719861 0.001550 0.476104 -0.201441
C5    C     C_3   0.781159 0.292573 0.552453 0.096390
C6    C     C_3   0.196181 0.286630 0.444190 0.117326
C7    C     C_3   0.280498 0.791833 0.552418 0.094244
C8    C     C_3   0.697769 0.784923 0.444107 0.123450
C9    C     C_3   0.765880 0.424731 0.567476 -0.002879
C10   C     C_3   0.239452 0.400391 0.429161 -0.002838
C11   C     C_3   0.265249 0.923882 0.567726 0.000912
C12   C     C_R   0.275263 0.952078 0.640334 0.552048
C13   C     C_3   0.739467 0.900464 0.429212 -0.005798
C14   C     C_3   0.749391 0.394331 0.435115 -0.006038
C15   C     C_3   0.263333 0.346809 0.559596 -0.015383
C16   C     C_3   0.249048 0.895093 0.435142 -0.001926
C17   C     C_3   0.763110 0.848002 0.559800 -0.021842
C18   C     C_3   0.811993 0.478419 0.453609 0.117827
C19   C     C_3   0.235497 0.475286 0.552465 0.116006
C20   C     C_3   0.310091 0.982262 0.453893 0.099698
C21   C     C_3   0.734462 0.975842 0.552604 0.139696
C22   C     C_3   0.761710 0.276418 0.475468 -0.199702
C23   C     C_R   0.225798 0.447156 0.358264 0.539054
C24   C     C_3   0.209216 0.261626 0.520638 -0.198831
C25   C     C_3   0.262804 0.777022 0.475160 -0.206627
C26   C     C_3   0.709375 0.762288 0.520904 -0.188014
C27   C     C_3   0.484433 0.308689 0.963531 0.128399
C28   C     C_3   0.508724 0.309192 0.038390 0.131177
C29   C     C_3   0.984416 0.808690 0.963536 0.127603
C30   C     C_3   0.008711 0.809193 0.038394 0.131808
C31   C     C_3   0.428605 0.104325 0.970772 -0.227228
C32   C     C_3   0.571323 0.112353 0.028719 -0.233415
C33   C     C_3   0.928581 0.604334 0.970782 -0.227887
C34   C     C_R   0.775626 0.452869 0.640047 0.545965
C35   C     C_3   0.071302 0.612345 0.028723 -0.233759
C36   C     C_3   0.553315 0.119582 0.950753 -0.280132
C37   C     C_3   0.446429 0.111534 0.048935 -0.279270
C38   C     C_3   0.053291 0.619575 0.950759 -0.278027
C39   C     C_3   0.946410 0.611541 0.048945 -0.280089
C40   C     C_R   0.561791 0.184388 0.347469 0.533332
C41   C     C_R   0.463956 0.180973 0.661650 0.512814
C42   C     C_R   0.037305 0.681380 0.339168 0.555536
C43   C     C_R   0.963674 0.680889 0.661462 0.540160
C44   C     C_3   0.481881 0.177486 0.934760 0.025985
C45   C     C_3   0.683459 0.449423 0.459321 -0.291258
C46   C     C_3   0.515834 0.177385 0.065683 0.022763
C47   C     C_3   0.981858 0.677487 0.934768 0.023563
C48   C     C_3   0.015818 0.677385 0.065689 0.025614
C49   C     C_1   0.763578 0.430949 0.905563 0.001847
C50   C     C_1   0.219857 0.472856 0.085495 -0.007109
C51   C     C_1   0.263578 0.930952 0.905563 0.004400
C52   C     C_1   0.719853 0.972868 0.085491 -0.008075
C53   C     C_1   0.751704 0.409992 0.036167 0.016872
C54   C     C_1   0.239173 0.436518 0.957333 0.020283
C55   C     C_1   0.251703 0.909993 0.036167 0.017379
C56   C     C_3   0.331179 0.342071 0.524735 -0.297060
C57   C     C_1   0.739162 0.936543 0.957324 0.018615
C58   C     C_1   0.756813 0.420167 0.965383 -0.016952
C59   C     C_1   0.229148 0.457345 0.026473 -0.016416
C60   C     C_1   0.256813 0.920169 0.965383 -0.016386
C61   C     C_1   0.729139 0.957365 0.026466 -0.016437
C62   C     C_1   0.746245 0.394479 0.095937 0.061305
C63   C     C_1   0.249017 0.410031 0.899678 0.068417
C64   C     C_1   0.246244 0.894479 0.095936 0.062787
C65   C     C_1   0.749008 0.910050 0.899671 0.060336
C66   C     C_R   0.739293 0.361330 0.361804 0.558101
C67   C     C_3   0.182451 0.947573 0.459497 -0.296576
C68   C     C_R   0.274825 0.312229 0.632504 0.550422
C69   C     C_R   0.239336 0.861827 0.361729 0.567310
C70   C     C_R   0.774705 0.812765 0.632487 0.557063
C71   C     C_R   0.706039 0.995121 0.154685 0.535140
C72   C     C_R   0.278183 0.955532 0.837166 0.548518
C73   C     C_R   0.206040 0.495119 0.154685 0.533993
C74   C     C_R   0.778182 0.455530 0.837165 0.544778
C75   C     C_R   0.536274 0.180061 0.139500 0.547817
C76   C     C_R   0.462157 0.180525 0.860976 0.547216
C77   C     C_R   0.036265 0.680060 0.139503 0.540520
C78   C     C_3   0.831100 0.844654 0.525254 -0.300922
C79   C     C_R   0.962135 0.680527 0.860983 0.553245
C80   C     C_R   0.736617 0.358583 0.164130 0.562719
C81   C     C_R   0.262533 0.361829 0.834661 0.599823
C82   C     C_R   0.236616 0.858582 0.164130 0.562634
C83   C     C_R   0.762532 0.861829 0.834661 0.595243
C84   C     C_1   0.490298 0.177581 0.596755 0.061306
C85   C     C_1   0.541586 0.181961 0.415151 0.049969
C86   C     C_1   0.985438 0.677157 0.594563 0.061638
C87   C     C_1   0.017409 0.679096 0.406852 0.075909
C88   C     C_1   0.526099 0.183728 0.472647 0.070427
C89   C     C_3   0.818422 0.500630 0.531586 -0.168977
C90   C     C_1   0.507329 0.181623 0.539875 0.091161
C91   C     C_1   0.007098 0.681623 0.465969 0.038717
C92   C     C_1   0.996632 0.680244 0.535703 0.037220
C93   C     C_3   0.689424 0.449151 0.537694 -0.293614
C94   C     C_3   0.316700 0.368826 0.447322 -0.291112
C95   C     C_3   0.188809 0.948428 0.537955 -0.296370
C96   C     C_3   0.817001 0.871862 0.447918 -0.293870
Cl1   Cl    Cl    0.404166 0.386311 0.952314 -0.631297
Cl2   Cl    Cl    0.586064 0.397595 0.050256 -0.620664
Cl3   Cl    Cl    0.904152 0.886319 0.952319 -0.631308
Cl4   Cl    Cl    0.086055 0.897587 0.050255 -0.620887
Cr1   Cr    Cr6+3 0.765780 0.160710 0.267420 1.066220
Cr2   Cr    Cr6+3 0.383970 0.323720 0.751490 1.116777
Cr3   Cr    Cr6+3 0.116030 0.823720 0.248510 1.085348
Cr4   Cr    Cr6+3 0.883970 0.823720 0.751490 1.120896
Cr5   Cr    Cr6+3 0.234220 0.160710 0.732580 1.083700
Cr6   Cr    Cr6+3 0.265780 0.660710 0.267420 1.094567
Cr7   Cr    Cr6+3 0.734220 0.660710 0.732580 1.069334
Cr8   Cr    Cr6+3 0.612200 0.009560 0.248850 1.133108
Cr9   Cr    Cr6+3 0.387800 0.009560 0.751150 1.102840
Cr10  Cr    Cr6+3 0.112200 0.509560 0.248850 1.123332
Cr11  Cr    Cr6+3 0.887800 0.509560 0.751150 1.113039
Cr12  Cr    Cr6+3 0.616030 0.323720 0.248510 1.088646
H1    H     H_    0.665878 0.530388 0.557020 0.180197
H2    H     H_    0.169299 0.538380 0.461503 0.183178
H3    H     H_    0.370254 0.983695 0.554363 0.230782
H4    H     H_    0.667167 0.035590 0.461379 0.181936
H5    H     H_    0.520230 0.362087 0.935392 0.208314
H6    H     H_    0.471144 0.356847 0.067314 0.208433
H7    H     H_    0.020214 0.862083 0.935396 0.209118
H8    H     H_    0.971134 0.856854 0.067320 0.207361
H9    H     H_    0.375681 0.138285 0.956552 0.159499
H10   H     H_    0.622698 0.153255 0.043155 0.147171
H11   H     H_    0.875659 0.638301 0.956564 0.159925
H12   H     H_    0.350251 0.443720 0.434159 0.186609
H13   H     H_    0.122680 0.653240 0.043157 0.147322
H14   H     H_    0.405239 0.160276 0.072119 0.142790
H15   H     H_    0.592795 0.173715 0.928143 0.135018
H16   H     H_    0.905224 0.660289 0.072132 0.140814
H17   H     H_    0.092772 0.673704 0.928148 0.140019
H18   H     H_    0.553692 0.028211 0.928137 0.143824
H19   H     H_    0.449176 0.019696 0.070546 0.149907
H20   H     H_    0.053663 0.528203 0.928144 0.147756
H21   H     H_    0.949155 0.519704 0.070556 0.148246
H22   H     H_    0.574307 0.016787 0.044185 0.141407
H23   H     H_    0.165877 0.030619 0.556876 0.172322
H24   H     H_    0.428989 0.009045 0.954220 0.149034
H25   H     H_    0.074283 0.516779 0.044190 0.141565
H26   H     H_    0.928960 0.509054 0.954229 0.148940
H27   H     H_    0.656271 0.376370 0.554329 0.158782
H28   H     H_    0.330323 0.289856 0.417077 0.134198
H29   H     H_    0.155487 0.876391 0.555162 0.163899
H30   H     H_    0.831993 0.793898 0.417612 0.126750
H31   H     H_    0.636959 0.396876 0.440001 0.150678
H32   H     H_    0.358281 0.256491 0.531775 0.102180
H33   H     H_    0.136699 0.892696 0.440579 0.157062
H34   H     H_    0.849705 0.948277 0.435271 0.190794
H35   H     H_    0.858038 0.759003 0.532238 0.101175
H36   H     H_    0.675320 0.540213 0.439029 0.169892
H37   H     H_    0.368428 0.407874 0.549413 0.188117
H38   H     H_    0.172831 0.038112 0.438910 0.152388
H39   H     H_    0.868026 0.910815 0.550234 0.186496
H40   H     H_    0.315104 0.093247 0.546841 0.030541
H41   H     H_    0.757633 0.065985 0.466458 0.104478
H42   H     H_    0.814752 0.594083 0.543974 0.022943
H43   H     H_    0.260480 0.565611 0.466769 0.116991
H44   H     H_    0.296482 0.069673 0.430064 0.089414
H45   H     H_    0.802237 0.225124 0.455149 0.257850
H46   H     H_    0.775843 0.035956 0.574903 0.192152
H47   H     H_    0.800549 0.565353 0.428125 0.086697
H48   H     H_    0.277438 0.534111 0.574829 0.199164
H49   H     H_    0.745827 0.239199 0.579612 0.172565
H50   H     H_    0.217164 0.212619 0.415401 0.094939
H51   H     H_    0.244128 0.737797 0.578362 0.174324
H52   H     H_    0.720860 0.711485 0.416603 0.088943
H53   H     H_    0.711505 0.229368 0.467647 0.064257
H54   H     H_    0.224838 0.170679 0.526216 0.069489
H55   H     H_    0.213309 0.728248 0.466141 0.078860
H56   H     H_    0.160936 0.264817 0.544225 0.257998
H57   H     H_    0.724292 0.671403 0.528192 0.070381
H58   H     H_    0.939835 0.274205 0.382353 0.403212
H59   H     H_    0.069286 0.442078 0.551034 0.409269
H60   H     H_    0.439125 0.767402 0.443525 0.415009
H61   H     H_    0.643094 0.034755 0.704039 0.360232
H62   H     H_    0.935609 0.101171 0.544329 0.384946
H63   H     H_    0.053199 0.115469 0.444684 0.347105
H64   H     H_    0.434103 0.597968 0.546450 0.378550
H65   H     H_    0.541971 0.619445 0.435891 0.357892
H66   H     H_    0.304573 0.727719 0.455284 0.245527
H67   H     H_    0.660513 0.767501 0.543650 0.260397
H68   H     H_    0.870872 0.486523 0.555023 0.225487
O1    O     O_R   0.783100 0.287550 0.345460 -0.455974
O2    O     O_R   0.454350 0.284910 0.836260 -0.477212
O3    O     O_R   0.045650 0.784910 0.163740 -0.468598
O4    O     O_R   0.954350 0.784910 0.836260 -0.476171
O5    O     O_R   0.677950 0.374280 0.185410 -0.440257
O6    O     O_R   0.322050 0.374280 0.814590 -0.429963
O7    O     O_R   0.177950 0.874280 0.185410 -0.442202
O8    O     O_R   0.822050 0.874280 0.814590 -0.426455
O9    O     O_3   0.664670 0.164660 0.254930 -0.338196
O10   O     O_3   0.335330 0.164660 0.745070 -0.325174
O11   O     O_3   0.164670 0.664660 0.254930 -0.323791
O12   O     O_R   0.216900 0.287550 0.654540 -0.438997
O13   O     O_3   0.835330 0.664660 0.745070 -0.326763
O14   O     O_R   0.760020 0.037400 0.337700 -0.517536
O15   O     O_R   0.239980 0.037400 0.662300 -0.539933
O16   O     O_R   0.260020 0.537400 0.337700 -0.515477
O17   O     O_R   0.739980 0.537400 0.662300 -0.540689
O18   O     O_R   0.666600 0.921990 0.332020 -0.428495
O19   O     O_R   0.333400 0.921990 0.667980 -0.431592
O20   O     O_R   0.166600 0.421990 0.332020 -0.419597
O21   O     O_R   0.833400 0.421990 0.667980 -0.436283
O22   O     O_R   0.557260 0.082670 0.312540 -0.417527
O23   O     O_R   0.283100 0.787550 0.345460 -0.441165
O24   O     O_R   0.442740 0.082670 0.687460 -0.475536
O25   O     O_R   0.057260 0.582670 0.312540 -0.434611
O26   O     O_R   0.942740 0.582670 0.687460 -0.470397
O27   O     O_R   0.548410 0.285740 0.316480 -0.512110
O28   O     O_R   0.451590 0.285740 0.683520 -0.524645
O29   O     O_R   0.048410 0.785740 0.316480 -0.531969
O30   O     O_R   0.951590 0.785740 0.683520 -0.523625
O31   O     O_R   0.680500 0.375040 0.327000 -0.521705
O32   O     O_R   0.319500 0.375040 0.673000 -0.460719
O33   O     O_R   0.180500 0.875040 0.327000 -0.512801
O34   O     O_R   0.716900 0.787550 0.654540 -0.447177
O35   O     O_R   0.819500 0.875040 0.673000 -0.454230
O36   O     O_R   0.780350 0.286720 0.192720 -0.513913
O37   O     O_R   0.219650 0.286720 0.807280 -0.500357
O38   O     O_R   0.280350 0.786720 0.192720 -0.507837
O39   O     O_R   0.719650 0.786720 0.807280 -0.506184
O40   O     O_R   0.757470 0.036630 0.196110 -0.485407
O41   O     O_R   0.242530 0.036630 0.803890 -0.494874
O42   O     O_R   0.257470 0.536630 0.196110 -0.484575
O43   O     O_R   0.742530 0.536630 0.803890 -0.494930
O44   O     O_R   0.663840 0.921160 0.179280 -0.486974
O45   O     O_R   0.554710 0.081900 0.170950 -0.518397
O46   O     O_R   0.336160 0.921160 0.820720 -0.492842
O47   O     O_R   0.163840 0.421160 0.179280 -0.488371
O48   O     O_R   0.836160 0.421160 0.820720 -0.493360
O49   O     O_2   0.902606 0.494255 0.360086 -0.303201
O50   O     O_2   0.951756 0.459320 0.477532 -0.253637
O51   O     O_3   0.900994 0.281513 0.410271 -0.440606
O52   O     O_2   0.190003 0.531679 0.673597 -0.205349
O53   O     O_2   0.137201 0.635874 0.573768 -0.389331
O54   O     O_3   0.099389 0.417826 0.592166 -0.443610
O55   O     O_2   0.397338 0.006168 0.357305 -0.246594
O56   O     O_R   0.445290 0.081900 0.829050 -0.512844
O57   O     O_2   0.449875 0.978391 0.473746 -0.260465
O58   O     O_3   0.402442 0.793871 0.408320 -0.452536
O59   O     O_2   0.642677 0.141421 0.581290 -0.392837
O60   O     O_2   0.601055 0.935940 0.579472 -0.202827
O61   O     O_3   0.684723 0.009934 0.683398 -0.471176
O62   O     O_2   0.923679 0.317276 0.592078 -0.192794
O63   O     O_2   0.860413 0.168812 0.649671 -0.263969
O64   O     O_3   0.888067 0.124070 0.527113 -0.567767
O65   O     O_2   0.072254 0.402413 0.421586 -0.212702
O66   O     O_2   0.089892 0.231915 0.347416 -0.288493
O67   O     O_R   0.054710 0.581900 0.170950 -0.524323
O68   O     O_3   0.064167 0.189989 0.471058 -0.522863
O69   O     O_2   0.423291 0.815609 0.591140 -0.213672
O70   O     O_2   0.359483 0.671346 0.651445 -0.251334
O71   O     O_3   0.386407 0.620248 0.529421 -0.617366
O72   O     O_2   0.571222 0.892348 0.423228 -0.166726
O73   O     O_2   0.593661 0.729302 0.345040 -0.272067
O74   O     O_3   0.569072 0.675179 0.467569 -0.562017
O75   O     O_R   0.945290 0.581900 0.829050 -0.507401
O76   O     O_R   0.545650 0.284910 0.163740 -0.464039
S1    S     S_3+6 0.893379 0.428808 0.424937 0.050786
S2    S     S_3+6 0.164292 0.517223 0.599241 0.011380
S3    S     S_3+6 0.391476 0.940618 0.422830 0.054684
S4    S     S_3+6 0.662268 0.015196 0.598519 0.002437
S5    S     S_3+6 0.865869 0.228402 0.582205 0.027452
S6    S     S_3+6 0.103455 0.280426 0.419068 0.007178
S7    S     S_3+6 0.364967 0.727556 0.583057 -0.005989
S8    S     S_3+6 0.605524 0.773475 0.417711 0.032810

loop_
_geom_bond_atom_site_label_1
_geom_bond_atom_site_label_2
_ccdc_geom_bond_type
Cr10  O67   S    
C40   C85   S    
C5    S5    S    
C2    H43   S    
O61   S4    S    
C87   C91   T    
C45   H36   S    
C8    C26   S    
C21   H46   S    
C14   C18   S    
C1    O18   A    
C34   O17   A    
C67   H33   S    
C47   C79   S    
C45   C93   S    
Cr11  O21   S    
H64   O71   S    
C80   O36   A    
C26   H67   S    
C25   H55   S    
C15   C19   S    
H65   O74   S    
O51   S1    S    
C28   C46   S    
C3    H40   S    
Cr2   O6    S    
C73   O42   A    
C63   C81   S    
Cr3   O3    S    
C17   C26   S    
C32   C36   S    
C62   C80   S    
C24   H56   S    
Cr1   O9    S    
C52   C61   T    
C43   O26   A    
Cr8   O44   S    
C65   C83   S    
C54   C63   T    
C10   C94   S    
C34   O21   A    
C11   C95   S    
C30   Cl4   S    
Cr10  O11   S    
C94   H28   S    
C79   O4    A    
C88   C90   S    
C42   O25   A    
C44   C76   S    
O63   S5    D    
C89   H68   S    
C4    C13   S    
C35   H13   S    
C43   O30   A    
C18   S1    S    
C74   O48   A    
C18   H47   S    
C77   O3    A    
Cr12  O9    S    
C22   H53   S    
C1    O14   A    
C27   C44   S    
O62   S5    D    
C86   C92   T    
C5    C22   S    
C6    H50   S    
C26   H57   S    
C78   C96   S    
C38   H20   S    
C23   O16   A    
O57   S3    D    
Cr8   O22   S    
Cr4   O13   S    
C7    S7    S    
C71   O44   A    
Cr4   O30   S    
C8    S8    S    
Cr3   O33   S    
O68   S6    S    
O66   S6    D    
C36   C44   S    
H62   O64   S    
Cr9   O56   S    
C3    C20   S    
C4    H41   S    
Cr6   O23   S    
C40   O27   A    
O74   S8    S    
C17   C70   S    
O52   S2    D    
C55   C60   S    
C55   C64   T    
C67   H38   S    
C67   C95   S    
C18   C89   S    
Cr5   O12   S    
Cr3   O29   S    
C56   C94   S    
C84   C90   T    
Cr6   O11   S    
C19   S2    S    
C76   O2    A    
C35   C48   S    
C46   C75   S    
Cr4   O35   S    
C78   H39   S    
C7    C11   S    
C14   C45   S    
Cr7   O43   S    
C54   C59   S    
C27   H5    S    
Cr11  O75   S    
Cr4   O8    S    
C68   O12   A    
C31   C44   S    
C29   Cl3   S    
C13   C96   S    
Cr10  O20   S    
Cr2   O2    S    
C38   H17   S    
C32   H10   S    
O59   S4    D    
C75   O45   A    
C35   C38   S    
Cr3   O7    S    
C31   H9    S    
C76   O56   A    
C75   O76   A    
C8    H52   S    
C50   C73   S    
C9    C89   S    
Cr12  O5    S    
Cr7   O17   S    
O72   S8    D    
C25   H66   S    
C70   O34   A    
Cr6   O16   S    
C41   C84   S    
C7    H51   S    
C74   O43   A    
C17   C21   S    
C49   C58   T    
C37   H19   S    
O49   S1    D    
C77   O67   A    
C5    H49   S    
C48   C77   S    
C24   H54   S    
Cr12  O31   S    
C5    C9    S    
C29   C30   S    
C93   H27   S    
C36   H18   S    
C29   H7    S    
C53   C62   T    
C82   O38   A    
O50   S1    D    
Cr9   O10   S    
C16   C20   S    
C81   O37   A    
H58   O51   S    
C95   H23   S    
C14   C66   S    
C69   O33   A    
O58   S3    S    
C6    S6    S    
C16   C67   S    
C33   C39   S    
O69   S7    D    
C41   O24   A    
C51   C60   T    
Cr11  O26   S    
C64   C82   S    
C38   C47   S    
C42   O29   A    
C78   H35   S    
Cr11  O13   S    
H61   O61   S    
Cr7   O39   S    
O73   S8    D    
H63   O68   S    
Cr4   O4    S    
C66   O1    A    
C29   C47   S    
C95   H29   S    
Cr5   O37   S    
C9    C34   S    
C33   C47   S    
C12   O15   A    
Cr8   O9    S    
Cr9   O19   S    
C36   H15   S    
C1    C13   S    
C51   C72   S    
C70   O35   A    
C2    C10   S    
C9    C93   S    
C81   O6    A    
C91   C92   S    
Cr1   O1    S    
Cr1   O14   S    
C73   O47   A    
C37   H14   S    
C39   H21   S    
C85   C88   T    
C30   C48   S    
C16   C25   S    
Cr5   O15   S    
C27   Cl1   S    
C79   O75   A    
C39   H16   S    
C20   H44   S    
Cr7   O13   S    
Cr6   O38   S    
C2    C19   S    
C43   C86   S    
C32   C46   S    
Cr5   O10   S    
C4    H4    S    
Cr9   O24   S    
Cr11  O48   S    
C16   C69   S    
Cr12  O27   S    
C40   O22   A    
C31   H24   S    
C33   H26   S    
C6    C10   S    
C28   Cl2   S    
C53   C58   S    
C21   S4    S    
C57   C61   S    
O53   S2    D    
C42   C87   S    
C22   H45   S    
C10   C23   S    
C96   H34   S    
C15   C68   S    
C7    C25   S    
C68   O32   A    
C82   O7    A    
Cr10  O47   S    
C80   O5    A    
C19   H48   S    
C14   C22   S    
C41   O28   A    
C50   C59   T    
C66   O31   A    
C52   C71   S    
C3    H3    S    
C15   C56   S    
C15   C24   S    
C32   H22   S    
C4    C21   S    
C2    H2    S    
Cr1   O40   S    
Cr2   O32   S    
C89   H42   S    
Cr6   O42   S    
Cr7   O34   S    
C30   H8    S    
C33   H11   S    
Cr5   O41   S    
C72   O41   A    
C23   O20   A    
C6    C24   S    
C17   C78   S    
Cr2   O10   S    
C12   O19   A    
C93   H1    S    
Cr10  O25   S    
C28   H6    S    
Cr8   O18   S    
C83   O8    A    
O65   S6    D    
O70   S7    D    
C3    C11   S    
C71   O40   A    
C20   S3    S    
C96   H30   S    
C56   H32   S    
C8    C13   S    
C31   C37   S    
O60   S4    D    
Cr9   O46   S    
Cr3   O11   S    
C69   O23   A    
O55   S3    D    
C83   O39   A    
Cr8   O45   S    
O71   S7    S    
C27   C28   S    
C45   H31   S    
O54   S2    S    
C49   C74   S    
C72   O46   A    
O64   S5    S    
Cr1   O36   S    
Cr12  O76   S    
C37   C46   S    
C56   H37   S    
Cr2   O28   S    
C35   H25   S    
C11   C12   S    
C94   H12   S    
C39   C48   S    
C57   C65   T    
H59   O54   S    
H60   O58   S    
