data_mof_unit_6008.cif
_audit_creation_date              2012-12-10T17:57:28-0500
_audit_creation_method            fapswitch 2.2
_symmetry_space_group_name_H-M    P1
_symmetry_Int_Tables_number       1
_space_group_crystal_system       triclinic
_cell_length_a                    9.591403
_cell_length_b                    10.767044
_cell_length_c                    13.562434
_cell_angle_alpha                 91.741632
_cell_angle_beta                  73.820112
_cell_angle_gamma                 91.413256
_cell_volume                      1344.31831747

loop_
_atom_site_label
_atom_site_type_symbol
_atom_type_description
_atom_site_fract_x
_atom_site_fract_y
_atom_site_fract_z
_atom_type_partial_charge
C1    C     C_R   0.501565 0.737389 0.499810 0.875835
C2    C     C_R   0.436057 0.506081 0.978958 0.048771
C3    C     C_R   0.483631 0.511910 0.870889 0.009737
C4    C     C_R   0.542130 0.492435 0.032769 0.015383
C5    C     C_R   0.678501 0.442033 0.978236 0.081458
C6    C     C_R   0.719646 0.444073 0.870302 0.123770
C7    C     C_R   0.634302 0.513219 0.824504 0.167089
C8    C     C_R   0.520429 0.530570 0.136126 0.124470
C9    C     C_R   0.739500 0.421020 0.138071 -0.259640
C10   C     C_R   0.380942 0.518490 0.813312 -0.097923
C11   C     C_R   0.606657 0.937857 0.427109 0.107105
C12   C     C_R   0.423558 0.506646 0.699606 0.795590
C13   C     C_R   0.602034 0.066567 0.430323 -0.223778
C14   C     C_R   0.494243 0.128692 0.504817 -0.114773
C15   C     C_R   0.389808 0.063531 0.580955 0.079476
C16   C     C_R   0.398132 0.933060 0.580893 0.358123
C17   C     C_R   0.502993 0.871605 0.502231 -0.104122
C18   C     C_R   0.915035 0.601187 0.536710 0.500191
C19   C     C_R   0.062022 0.597969 0.540583 -0.178326
C20   C     C_R   0.086955 0.403695 0.454300 0.262636
C21   C     C_R   0.937818 0.403179 0.457892 -0.113045
C22   C     C_R   0.497465 0.262686 0.502546 0.828040
C23   C     C_R   0.576360 0.498856 0.301301 0.780563
C24   C     C_R   0.773484 0.402042 0.032469 -0.195751
C25   C     C_R   0.615429 0.487001 0.189781 -0.040628
C26   C     C_R   0.233477 0.530143 0.866042 -0.172255
C27   C     C_R   0.186257 0.523178 0.972490 -0.165725
C28   C     C_R   0.285821 0.507102 0.028410 -0.159211
Cu1   Cu    Cu3+1 0.359340 0.499980 0.500000 0.950821
Cu2   Cu    Cu3+1 0.640660 0.500020 0.500000 0.978297
H1    H     H_    0.811887 0.386270 0.179183 0.157355
H2    H     H_    0.681145 0.119294 0.373110 0.147647
H3    H     H_    0.107829 0.675804 0.573886 0.175396
H4    H     H_    0.891458 0.326179 0.423899 0.151126
H5    H     H_    0.874983 0.357913 0.993952 0.156149
H6    H     H_    0.154213 0.542739 0.824431 0.156883
H7    H     H_    0.243907 0.492230 0.109793 0.147347
H8    H     H_    0.071482 0.527434 0.011685 0.148706
N1    N     N_R   0.147940 0.499970 0.499970 -0.172781
N2    N     N_R   0.852060 0.500060 0.499990 -0.180414
O1    O     O_R   0.381250 0.680340 0.500010 -0.564458
O2    O     O_R   0.618820 0.680370 0.500010 -0.521939
O3    O     O_R   0.323240 0.499950 0.650980 -0.572093
O4    O     O_R   0.560810 0.499980 0.650980 -0.557470
O5    O     O_R   0.381180 0.319630 0.499990 -0.583821
O6    O     O_R   0.618750 0.319660 0.499990 -0.593770
O7    O     O_R   0.439190 0.500020 0.349020 -0.587958
O8    O     O_R   0.676760 0.500050 0.349020 -0.590160
C29   C     C_3   0.272470 0.133132 0.660288 -0.833779
H9    H     H_    0.206092 0.186416 0.621850 0.248622
H10   H     H_    0.194435 0.072053 0.713970 0.233482
H11   H     H_    0.323023 0.198205 0.705937 0.219825
O9    O     O_3   0.307039 0.862863 0.656694 -0.752014
H12   H     H_    0.303730 0.903772 0.723687 0.322288
O10   O     O_3   0.835690 0.707198 0.567703 -0.725235
H13   H     H_    0.897573 0.772514 0.588202 0.298084
C30   C     C_3   0.173302 0.296463 0.396543 -0.788914
H14   H     H_    0.119725 0.253009 0.340908 0.176029
H15   H     H_    0.281783 0.326405 0.350008 0.263048
H16   H     H_    0.180038 0.223136 0.450535 0.234263
C31   C     C_3   0.860221 0.391429 0.804818 -0.866391
H17   H     H_    0.871583 0.402699 0.721734 0.245573
H18   H     H_    0.952670 0.439433 0.823837 0.223993
H19   H     H_    0.863397 0.290591 0.818672 0.231297
C32   C     C_3   0.418755 0.636469 0.182321 -0.841062
H20   H     H_    0.470698 0.701697 0.226996 0.219945
H21   H     H_    0.394739 0.692902 0.122070 0.232508
H22   H     H_    0.315466 0.600808 0.234010 0.246140
C33   C     C_3   0.699711 0.637023 0.785350 -0.748608
H23   H     H_    0.695318 0.701258 0.851807 0.202066
H24   H     H_    0.815453 0.627483 0.742354 0.237506
H25   H     H_    0.639078 0.680881 0.737338 0.264481
C34   C     C_3   0.719960 0.873296 0.342272 -0.814326
H26   H     H_    0.784668 0.940160 0.285956 0.218955
H27   H     H_    0.796235 0.823758 0.375000 0.265812
H28   H     H_    0.666875 0.805769 0.300157 0.208489

loop_
_geom_bond_atom_site_label_1
_geom_bond_atom_site_label_2
_ccdc_geom_bond_type
O10   H13   S    
C33   H25   S    
C34   H26   S    
C13   H2    S    
C4    C8    A    
C9    C25   A    
O9    H12   S    
C21   N2    A    
C26   C27   A    
Cu1   O7    S    
C19   N1    A    
C6    C31   S    
Cu2   O8    S    
C12   O3    A    
C3    C7    A    
C5    C6    A    
C30   H15   S    
C27   H8    S    
C15   C16   A    
C33   H24   S    
C18   C19   A    
C31   H18   S    
C18   N2    A    
C16   O9    S    
C16   C17   A    
C32   H21   S    
C29   H11   S    
C23   C25   S    
C8    C32   S    
C13   C14   A    
Cu1   O3    S    
C8    C25   A    
C34   H27   S    
Cu2   O4    S    
C33   H23   S    
C24   H5    S    
C23   O7    A    
C19   H3    S    
C20   N1    A    
C30   H16   S    
C21   H4    S    
C29   H10   S    
Cu1   O5    S    
C31   H19   S    
C2    C4    A    
Cu1   Cu2   S    
C32   H22   S    
Cu1   N1    S    
Cu2   N2    S    
C10   C12   S    
C18   O10   S    
C26   H6    S    
C22   O6    A    
C32   H20   S    
C11   C34   S    
C34   H28   S    
C1    O1    A    
C11   C17   A    
C23   O8    A    
Cu1   O1    S    
Cu2   O6    S    
C4    C5    A    
C7    C33   S    
C9    C24   A    
C6    C7    A    
C1    C17   S    
C14   C22   S    
C2    C3    A    
C12   O4    A    
C3    C10   A    
C11   C13   A    
C10   C26   A    
C30   H14   S    
C5    C24   A    
C28   H7    S    
C15   C29   S    
C31   H17   S    
C9    H1    S    
C1    O2    A    
C22   O5    A    
C20   C21   A    
C29   H9    S    
C27   C28   A    
C14   C15   A    
Cu2   O2    S    
C2    C28   A    
C20   C30   S    
