data_mof_unit_45466.cif
_audit_creation_date              2012-10-26T19:46:04-0400
_audit_creation_method            fapswitch 2.2
_symmetry_space_group_name_H-M    P1
_symmetry_Int_Tables_number       1
_space_group_crystal_system       triclinic
_cell_length_a                    10.8145
_cell_length_b                    9.631202
_cell_length_c                    15.862508
_cell_angle_alpha                 89.586895
_cell_angle_beta                  90.157918
_cell_angle_gamma                 89.996675
_cell_volume                      1652.13621621

loop_
_atom_site_label
_atom_site_type_symbol
_atom_type_description
_atom_site_fract_x
_atom_site_fract_y
_atom_site_fract_z
_atom_type_partial_charge
C1    C     C_R   0.262427 0.500007 0.499681 0.553233
C2    C     C_R   0.936060 0.626196 0.498381 -0.122654
C3    C     C_R   0.871608 0.500008 0.499291 0.024675
C4    C     C_R   0.128397 0.500013 0.499158 0.026447
C5    C     C_R   0.425598 0.074645 0.446268 0.031076
C6    C     C_R   0.425604 0.926621 0.446266 0.036416
C7    C     C_R   0.500205 0.500531 0.340469 0.559400
C8    C     C_R   0.574657 0.925362 0.553624 0.022729
C9    C     C_R   0.574642 0.073380 0.553633 0.023100
C10   C     C_R   0.737578 0.500001 0.499795 0.547359
C11   C     C_R   0.500060 0.499500 0.659652 0.548926
C12   C     C_3   0.634651 0.546126 0.948790 -0.191403
C13   C     C_3   0.419746 0.633023 0.045752 0.311405
C14   C     C_3   0.448325 0.355854 0.050211 0.321091
C15   C     C_3   0.475859 0.352266 0.952807 -0.195251
C16   C     C_3   0.400711 0.599417 0.949641 -0.201364
C17   C     C_1   0.500734 0.498246 0.749473 0.002890
C18   C     C_3   0.507691 0.505026 0.083149 -0.058207
C19   C     C_3   0.503384 0.499726 0.917686 -0.130787
C20   C     C_3   0.652096 0.524456 0.046790 0.306994
C21   C     C_1   0.501689 0.497916 0.825133 -0.048091
C22   C     C_1   0.505830 0.504860 0.175298 0.120244
C23   C     C_1   0.502770 0.502324 0.250897 0.104457
C24   C     C_R   0.063945 0.373826 0.499635 -0.117782
C25   C     C_R   0.063927 0.626198 0.498296 -0.121106
C26   C     C_R   0.936081 0.373823 0.499725 -0.115863
Cu1   Cu    Cu3+1 0.500020 0.640660 0.500000 0.981041
Cu2   Cu    Cu3+1 0.500020 0.359340 0.500000 0.980047
H1    H     H_    0.553545 0.283746 0.936702 0.209055
H2    H     H_    0.634837 0.127849 0.596781 0.117078
H3    H     H_    0.156995 0.564991 0.199572 0.396046
H4    H     H_    0.170255 0.140218 0.020954 0.398801
H5    H     H_    0.411199 0.136136 0.218815 0.348765
H6    H     H_    0.341123 0.910521 0.955288 0.342179
H7    H     H_    0.725831 0.659293 0.236843 0.347187
H8    H     H_    0.815408 0.178168 0.011809 0.404917
H9    H     H_    0.656782 0.651771 0.927660 0.199572
H10   H     H_    0.703114 0.485467 0.911975 0.174453
H11   H     H_    0.111984 0.275126 0.500126 0.138563
H12   H     H_    0.399693 0.693141 0.908338 0.141894
H13   H     H_    0.111953 0.724896 0.497694 0.138577
H14   H     H_    0.888063 0.275120 0.500303 0.141757
H15   H     H_    0.888022 0.724896 0.497858 0.140839
H16   H     H_    0.365557 0.130118 0.402995 0.125089
H17   H     H_    0.365581 0.872159 0.402993 0.140043
H18   H     H_    0.309398 0.555861 0.935408 0.194565
H19   H     H_    0.397427 0.307708 0.916489 0.181235
H20   H     H_    0.634887 0.869887 0.596761 0.118047
N1    N     N_R   0.500030 0.852070 0.500020 -0.231293
N2    N     N_R   0.500030 0.147930 0.500020 -0.229545
O1    O     O_R   0.319660 0.618740 0.500000 -0.510187
O2    O     O_2   0.167019 0.677782 0.046823 -0.188524
O3    O     O_3   0.241190 0.541686 0.179649 -0.485242
O4    O     O_2   0.239042 0.294862 0.147743 -0.195287
O5    O     O_2   0.193033 0.416753 0.016237 -0.226210
O6    O     O_3   0.256965 0.166195 0.008426 -0.464874
O7    O     O_2   0.563392 0.102942 0.043154 -0.112129
O8    O     O_2   0.607233 0.234961 0.170348 -0.259953
O9    O     O_3   0.402761 0.109329 0.158868 -0.353658
O10   O     O_2   0.522815 0.860994 0.123783 -0.073133
O11   O     O_2   0.563490 0.845289 0.971209 -0.293436
O12   O     O_R   0.319660 0.381260 0.500000 -0.509997
O13   O     O_3   0.350434 0.912877 0.017376 -0.373730
O14   O     O_2   0.872087 0.625473 0.122019 -0.170724
O15   O     O_2   0.756499 0.793655 0.045816 -0.152802
O16   O     O_3   0.680167 0.713014 0.193281 -0.480680
O17   O     O_2   0.884752 0.440065 0.010031 -0.198719
O18   O     O_2   0.806097 0.352984 0.142711 -0.180206
O19   O     O_3   0.742739 0.238222 0.000530 -0.502031
O20   O     O_R   0.500020 0.618840 0.379440 -0.481485
O21   O     O_R   0.500020 0.381160 0.379440 -0.488355
O22   O     O_R   0.680370 0.618830 0.500010 -0.510120
O23   O     O_R   0.680370 0.381170 0.500010 -0.505153
O24   O     O_R   0.500010 0.618730 0.620560 -0.498743
O25   O     O_R   0.500010 0.381270 0.620560 -0.498410
O26   O     O_2   0.281197 0.793110 0.157410 -0.174045
S1    S     S_3+6 0.274318 0.661779 0.106641 0.122121
S2    S     S_3+6 0.280021 0.317349 0.058221 0.096793
S3    S     S_3+6 0.510673 0.201297 0.105976 0.158802
S4    S     S_3+6 0.473948 0.813001 0.040556 0.141786
S5    S     S_3+6 0.741544 0.667060 0.100192 0.139227
S6    S     S_3+6 0.770593 0.384725 0.052895 0.092259

loop_
_geom_bond_atom_site_label_1
_geom_bond_atom_site_label_2
_ccdc_geom_bond_type
C6    H17   S    
C20   S6    S    
C14   C18   S    
C15   H19   S    
C1    O12   A    
C7    O20   A    
C4    C25   A    
C15   C19   S    
C13   C18   S    
C19   C21   S    
C24   C26   A    
C7    O21   A    
C5    C6    A    
C4    C24   A    
C10   O23   A    
O11   S4    D    
C24   H11   S    
O6    S2    S    
C12   H9    S    
O7    S3    D    
O19   S6    S    
Cu2   N2    S    
O10   S4    D    
C8    C9    A    
O9    S3    S    
Cu1   O24   S    
C13   S4    S    
H5    O9    S    
C20   S5    S    
Cu2   O23   S    
Cu1   O1    S    
C15   H1    S    
O13   S4    S    
C13   S1    S    
O26   S1    D    
C25   H13   S    
O5    S2    D    
H7    O16   S    
C17   C21   T    
O3    S1    S    
C8    H20   S    
O15   S5    D    
C14   C15   S    
C2    H15   S    
C12   C20   S    
C14   S3    S    
H3    O3    S    
C1    O1    A    
Cu1   O20   S    
C9    H2    S    
C16   H12   S    
O8    S3    D    
C5    H16   S    
C5    N2    A    
Cu2   O21   S    
C16   H18   S    
O2    S1    D    
H8    O19   S    
C26   H14   S    
C11   C17   S    
C18   C22   S    
C3    C26   A    
C9    N2    A    
C11   O24   A    
C1    C4    S    
O18   S6    D    
C2    C3    A    
C3    C10   S    
C11   O25   A    
O16   S5    S    
C16   C19   S    
C7    C23   S    
C12   C19   S    
H6    O13   S    
C2    C25   A    
C18   C20   S    
C14   S2    S    
C6    N1    A    
C12   H10   S    
O14   S5    D    
O17   S6    D    
C13   C16   S    
Cu1   Cu2   S    
C22   C23   T    
Cu2   O25   S    
C8    N1    A    
H4    O6    S    
Cu1   O22   S    
Cu1   N1    S    
Cu2   O12   S    
O4    S2    D    
C10   O22   A    
