data_mof_unit_51350.cif
_audit_creation_date              2012-12-10T16:53:07-0500
_audit_creation_method            fapswitch 2.2
_symmetry_space_group_name_H-M    P1
_symmetry_Int_Tables_number       1
_space_group_crystal_system       triclinic
_cell_length_a                    10.741836
_cell_length_b                    10.943537
_cell_length_c                    9.674845
_cell_angle_alpha                 89.830765
_cell_angle_beta                  89.642304
_cell_angle_gamma                 90.365408
_cell_volume                      1137.26324252

loop_
_atom_site_label
_atom_site_type_symbol
_atom_type_description
_atom_site_fract_x
_atom_site_fract_y
_atom_site_fract_z
_atom_type_partial_charge
C1    C     C_R   0.505025 0.265660 0.500168 0.849398
C2    C     C_R   0.064756 0.586570 0.628734 -0.048651
C3    C     C_R   0.130996 0.556203 0.504292 -0.222941
C4    C     C_R   0.065925 0.559610 0.377736 0.443828
C5    C     C_R   0.937830 0.544786 0.378170 -0.271789
C6    C     C_R   0.870604 0.549716 0.501634 -0.168307
C7    C     C_2   0.513642 0.935036 0.387756 0.308619
C8    C     C_2   0.474485 0.866923 0.497289 0.227481
C9    C     C_2   0.500578 0.068690 0.388023 -0.269713
C10   C     C_2   0.521489 0.134879 0.501377 -0.311310
C11   C     C_2   0.424257 0.431536 0.921701 0.500333
C12   C     C_R   0.263613 0.519358 0.501241 0.834403
C13   C     C_2   0.418791 0.439673 0.078701 -0.193503
C14   C     C_R   0.493763 0.734767 0.499370 0.769442
C15   C     C_R   0.737254 0.516129 0.500095 0.852343
C16   C     C_R   0.123020 0.622363 0.755375 0.450472
C17   C     C_R   0.050300 0.635688 0.875085 -0.315610
C18   C     C_R   0.922661 0.646018 0.866222 -0.269366
C19   C     C_R   0.866143 0.639085 0.737863 0.499920
C20   C     C_R   0.932181 0.589212 0.623593 -0.091665
Cu1   Cu    Cu3+1 0.500020 0.500020 0.638630 1.043908
Cu2   Cu    Cu3+1 0.499980 0.499980 0.361370 0.963341
H1    H     H_    0.553515 0.093347 0.596626 0.194896
H2    H     H_    0.551603 0.564595 0.894128 0.163881
H3    H     H_    0.344689 0.390628 0.132134 0.181596
H4    H     H_    0.573619 0.539290 0.104998 0.192637
H5    H     H_    0.093879 0.653681 0.972642 0.180123
H6    H     H_    0.869767 0.674779 0.955908 0.164731
H7    H     H_    0.891060 0.531153 0.280456 0.182893
H8    H     H_    0.476178 0.112806 0.291199 0.167864
N1    N     N_2   0.498640 0.498660 0.846910 -0.264935
N2    N     N_2   0.498610 0.498630 0.153040 -0.291743
O1    O     O_R   0.500020 0.321960 0.617040 -0.536724
O2    O     O_R   0.499980 0.321920 0.382900 -0.575718
O3    O     O_R   0.319670 0.500020 0.617100 -0.475700
O4    O     O_R   0.319630 0.499980 0.382950 -0.563963
O5    O     O_R   0.500020 0.678080 0.617100 -0.519735
O6    O     O_R   0.499980 0.678040 0.382960 -0.557911
O7    O     O_R   0.680370 0.500020 0.617050 -0.549917
O8    O     O_R   0.680330 0.499980 0.382900 -0.592739
O9    O     O_3   0.125353 0.573098 0.251115 -0.607339
C21   C     C_3   0.175315 0.693282 0.239300 0.102255
H9    H     H_    0.236643 0.695287 0.146467 0.166661
H10   H     H_    0.236433 0.717748 0.327498 0.119386
C22   C     C_3   0.072913 0.790095 0.223913 -0.415390
H11   H     H_    0.999690 0.757545 0.152305 0.228218
H12   H     H_    0.028071 0.805905 0.325962 0.207001
C23   C     C_3   0.126253 0.910788 0.170037 -0.899144
H13   H     H_    0.202142 0.943460 0.238247 0.256307
H14   H     H_    0.051772 0.980634 0.167645 0.261474
H15   H     H_    0.163496 0.899017 0.063538 0.250670
O10   O     O_3   0.345845 0.351435 0.854236 -0.679930
H16   H     H_    0.295352 0.306718 0.924196 0.292193
O11   O     O_3   0.245594 0.660555 0.758704 -0.732976
H17   H     H_    0.269535 0.682506 0.854408 0.307356
O12   O     O_3   0.754491 0.699268 0.720776 -0.578542
C24   C     C_3   0.778854 0.819886 0.672593 0.096979
H18   H     H_    0.864016 0.827731 0.606444 0.079211
H19   H     H_    0.701621 0.847870 0.605026 0.151111
C25   C     C_3   0.787226 0.911320 0.792097 -0.404321
H20   H     H_    0.870476 0.892198 0.855855 0.209157
H21   H     H_    0.798699 0.004771 0.748311 0.183282
C26   C     C_3   0.670929 0.908448 0.883627 -0.710503
H22   H     H_    0.586815 0.927639 0.821407 0.274886
H23   H     H_    0.679267 0.979447 0.964792 0.211100
H24   H     H_    0.660306 0.817914 0.934692 0.264904
O13   O     O_3   0.564021 0.879132 0.272237 -0.745587
H25   H     H_    0.588814 0.943126 0.204542 0.320632
O14   O     O_3   0.421847 0.920942 0.613286 -0.648697
C27   C     C_3   0.290836 0.906131 0.613221 0.100650
H26   H     H_    0.261514 0.888120 0.721586 0.196887
H27   H     H_    0.257140 0.827663 0.549817 0.118165
C28   C     C_3   0.227885 0.024242 0.566597 -0.349799
H28   H     H_    0.263278 0.102032 0.629049 0.247831
H29   H     H_    0.250193 0.042296 0.456303 0.214303
C29   C     C_3   0.086807 0.015825 0.583782 -0.935629
H30   H     H_    0.049263 0.939633 0.520907 0.250483
H31   H     H_    0.043757 0.102373 0.548546 0.264570
H32   H     H_    0.061563 0.000492 0.694031 0.252015

loop_
_geom_bond_atom_site_label_1
_geom_bond_atom_site_label_2
_ccdc_geom_bond_type
C19   O12   S    
C26   H23   S    
H4    N2    S    
C28   H28   S    
C13   N2    D    
C19   C20   A    
C29   H32   S    
C1    O1    A    
C7    C8    D    
C22   H11   S    
Cu1   N1    S    
C8    O14   S    
Cu2   N2    S    
C25   C26   S    
C29   H31   S    
C5    C6    A    
C24   H19   S    
Cu1   O1    S    
C4    O9    S    
Cu2   O6    S    
O12   C24   S    
C25   H21   S    
C18   C19   A    
O9    C21   S    
C3    C12   S    
C6    C15   S    
C23   H15   S    
C16   C17   A    
C27   H26   S    
C11   O10   S    
C12   O4    A    
C2    C16   A    
C9    C10   D    
C23   H14   S    
C26   H24   S    
C11   N1    D    
Cu1   Cu2   S    
C28   H29   S    
C13   H3    S    
C21   H10   S    
C1    O2    A    
C5    H7    S    
C22   H12   S    
Cu2   O2    S    
C2    C20   A    
O13   H25   S    
C17   H5    S    
C18   H6    S    
C29   H30   S    
C24   C25   S    
C25   H20   S    
C21   C22   S    
C14   O6    A    
Cu1   O7    S    
Cu2   O8    S    
C27   C28   S    
C17   C18   A    
C12   O3    A    
C15   O7    A    
C9    H8    S    
C23   H13   S    
C28   C29   S    
C21   H9    S    
C3    C4    A    
Cu2   O4    S    
O10   H16   S    
C22   C23   S    
C7    C9    S    
O11   H17   S    
C8    C14   S    
C1    C10   S    
C4    C5    A    
Cu1   O3    S    
C10   H1    S    
C6    C20   A    
C2    C3    A    
H2    N1    S    
C14   O5    A    
C11   C13   S    
C24   H18   S    
O14   C27   S    
C16   O11   S    
C15   O8    A    
C7    O13   S    
C26   H22   S    
Cu1   O5    S    
C27   H27   S    
