data_mof_unit_44272.cif
_audit_creation_date              2012-12-11T21:20:10-0500
_audit_creation_method            fapswitch 2.2
_symmetry_space_group_name_H-M    P1
_symmetry_Int_Tables_number       1
_space_group_crystal_system       triclinic
_cell_length_a                    8.43795
_cell_length_b                    18.880219
_cell_length_c                    18.878507
_cell_angle_alpha                 104.475917
_cell_angle_beta                  92.361844
_cell_angle_gamma                 92.171776
_cell_volume                      2905.9735693

loop_
_atom_site_label
_atom_site_type_symbol
_atom_type_description
_atom_site_fract_x
_atom_site_fract_y
_atom_site_fract_z
_atom_type_partial_charge
Ba1   Ba    Ba6+2 0.155460 0.532000 0.467920 1.804322
Ba2   Ba    Ba6+2 0.654730 0.467990 0.532020 1.759011
C1    C     C_3   0.354129 0.742900 0.227184 -0.348903
C2    C     C_R   0.085152 0.909746 0.572339 -0.076307
C3    C     C_R   0.216220 0.053393 0.560959 -0.064262
C4    C     C_3   0.911516 0.718895 0.322960 0.389223
C5    C     C_R   0.062059 0.025987 0.533044 0.024283
C6    C     C_R   0.269527 0.124568 0.562982 -0.048583
C7    C     C_R   0.173074 0.172095 0.536297 -0.017856
C8    C     C_R   0.022554 0.145048 0.502740 0.024720
C9    C     C_R   0.966205 0.071676 0.501453 0.027502
C10   C     C_R   0.222598 0.245990 0.542701 0.007924
C11   C     C_R   0.125498 0.291581 0.513302 -0.236503
C12   C     C_3   0.417013 0.721388 0.295096 0.298860
C13   C     C_R   0.978461 0.266286 0.477162 -0.036975
C14   C     C_R   0.925124 0.192107 0.473430 -0.062713
C15   C     C_R   0.849616 0.928009 0.502428 0.029012
C16   C     C_3   0.926452 0.791123 0.301353 -0.355881
C17   C     C_R   0.792279 0.855108 0.501075 0.012409
C18   C     C_R   0.885137 0.809273 0.533730 -0.060621
C19   C     C_R   0.026678 0.839657 0.572486 -0.024749
C20   C     C_R   0.775769 0.163351 0.442701 -0.071569
C21   C     C_R   0.721137 0.092836 0.440674 -0.087602
C22   C     C_R   0.812089 0.045673 0.470953 0.012460
C23   C     C_3   0.509093 0.699375 0.650116 0.254026
C24   C     C_R   0.753177 0.973957 0.471676 0.022061
C25   C     C_R   0.598123 0.947076 0.444396 -0.102792
C26   C     C_R   0.639887 0.828827 0.468807 -0.023208
C27   C     C_R   0.543309 0.876710 0.443304 -0.100199
C28   C     C_3   0.789455 0.238528 0.300013 0.294114
C29   C     C_R   0.587566 0.755620 0.463583 -0.024408
C30   C     C_R   0.686425 0.709360 0.490171 -0.289210
C31   C     C_R   0.831814 0.735117 0.527473 0.016924
C32   C     C_R   0.349157 0.549358 0.812774 -0.165696
C33   C     C_R   0.319814 0.531555 0.737212 0.042509
C34   C     C_3   0.584988 0.776280 0.681965 -0.205543
C35   C     C_R   0.159178 0.452903 0.820251 -0.117001
C36   C     C_R   0.102271 0.449619 0.748487 -0.047488
C37   C     C_R   0.638058 0.573703 0.197177 -0.233682
C38   C     C_R   0.717253 0.544547 0.248713 -0.066386
C39   C     C_R   0.400610 0.502365 0.207536 -0.147602
C40   C     C_3   0.882147 0.169395 0.286819 -0.490642
C41   C     C_R   0.476325 0.477399 0.265662 0.037166
C42   C     C_R   0.279517 0.506503 0.855885 0.045110
C43   C     C_R   0.192909 0.483248 0.705249 -0.242720
C44   C     C_R   0.483657 0.547463 0.167653 -0.005149
C45   C     C_3   0.925704 0.275753 0.693215 0.381141
C46   C     C_R   0.639748 0.490359 0.274402 0.167269
C47   C     C_R   0.046687 0.511725 0.971315 -0.082292
C48   C     C_R   0.938231 0.506136 0.022750 -0.057412
C49   C     C_R   0.983373 0.530248 0.095827 0.000227
C50   C     C_R   0.139015 0.555408 0.117705 -0.061218
C51   C     C_R   0.257920 0.544180 0.067757 0.010101
C52   C     C_3   0.998090 0.633950 0.691305 0.315106
C53   C     C_R   0.210925 0.525038 0.991108 0.026806
C54   C     C_R   0.418418 0.561228 0.093655 -0.000937
C55   C     C_R   0.519050 0.578918 0.041053 0.030462
C56   C     C_3   0.818268 0.213391 0.646629 -0.283350
C57   C     C_R   0.485334 0.546836 0.964890 0.048791
C58   C     C_R   0.326712 0.522309 0.937734 0.043525
C59   C     C_R   0.638469 0.635900 0.059441 -0.086744
C60   C     C_R   0.745285 0.646494 0.008081 -0.059640
C61   C     C_R   0.736052 0.599610 0.938161 -0.090648
C62   C     C_R   0.610474 0.547360 0.917733 -0.068122
C63   C     C_3   0.013554 0.656533 0.774580 -0.382682
C64   C     C_3   0.283633 0.283506 0.260152 0.639242
C65   C     C_3   0.357267 0.208707 0.256909 -0.214586
C66   C     C_2   0.247773 0.142121 0.228248 0.822149
C67   C     C_3   0.413987 0.302544 0.725511 0.255771
C68   C     C_2   0.473217 0.826003 0.727959 0.940557
C69   C     C_2   0.012774 0.246017 0.749569 0.851096
C70   C     C_2   0.347540 0.286554 0.853199 0.862070
C71   C     C_2   0.616909 0.279894 0.820175 0.942561
C72   C     C_3   0.449643 0.264684 0.788591 -0.220291
C73   C     C_R   0.001654 0.954641 0.535387 0.003285
H1    H     H_    0.431057 0.661489 0.281470 0.015479
H2    H     H_    0.155523 0.279432 0.270352 -0.003012
H3    H     H_    0.236208 0.715179 0.208220 0.143379
H4    H     H_    0.464293 0.203039 0.223999 0.093171
H5    H     H_    0.398636 0.207245 0.313240 0.044987
H6    H     H_    0.533771 0.751139 0.312547 -0.019675
H7    H     H_    0.437124 0.726896 0.182674 0.067578
H8    H     H_    0.602250 0.665111 0.620881 -0.002629
H9    H     H_    0.410532 0.701702 0.610041 0.071985
H10   H     H_    0.694098 0.772213 0.715534 0.094269
H11   H     H_    0.620254 0.800514 0.636798 -0.015380
H12   H     H_    0.978778 0.174278 0.329503 0.136529
H13   H     H_    0.342505 0.803105 0.239740 0.118735
H14   H     H_    0.867937 0.834186 0.341495 0.072056
H15   H     H_    0.013452 0.292412 0.657331 -0.184589
H16   H     H_    0.764483 0.231001 0.600148 0.151364
H17   H     H_    0.885458 0.164236 0.625329 0.085095
H18   H     H_    0.724720 0.196501 0.679367 0.150443
H19   H     H_    0.284543 0.298243 0.711920 -0.065766
H20   H     H_    0.452772 0.361556 0.742896 0.082426
H21   H     H_    0.972288 0.725956 0.377849 0.069448
H22   H     H_    0.429956 0.204542 0.764978 0.085815
H23   H     H_    0.801320 0.121415 0.286123 0.112042
H24   H     H_    0.167832 0.347136 0.516361 0.053356
H25   H     H_    0.388020 0.141593 0.586320 0.101337
H26   H     H_    0.094943 0.809547 0.603422 0.157233
H27   H     H_    0.694352 0.194625 0.420611 0.109732
H28   H     H_    0.423185 0.860849 0.421931 0.111265
H29   H     H_    0.644951 0.653376 0.485626 0.071227
H30   H     H_    0.300205 0.020881 0.581575 0.071505
H31   H     H_    0.195504 0.927822 0.603459 0.105712
H32   H     H_    0.604700 0.077640 0.414738 0.079467
H33   H     H_    0.782925 0.705444 0.326103 -0.127775
H34   H     H_    0.934263 0.159973 0.232594 0.171412
H35   H     H_    0.513384 0.979007 0.423646 0.077860
H36   H     H_    0.428425 0.596263 0.836881 0.072057
H37   H     H_    0.100779 0.417423 0.849007 0.122955
H38   H     H_    0.706108 0.614059 0.179691 0.084749
H39   H     H_    0.281681 0.482629 0.191148 0.178572
H40   H     H_    0.157143 0.476362 0.648121 0.049750
H41   H     H_    0.995718 0.508437 0.917659 0.067907
H42   H     H_    0.815518 0.489289 0.006286 0.101424
H43   H     H_    0.894891 0.531614 0.134478 0.074936
H44   H     H_    0.053460 0.808284 0.300501 0.143191
H45   H     H_    0.112475 0.613843 0.669785 -0.005802
H46   H     H_    0.168900 0.585099 0.173416 0.112881
H47   H     H_    0.641777 0.676797 0.110879 0.061560
H48   H     H_    0.836947 0.690037 0.023010 0.084455
H49   H     H_    0.823622 0.604872 0.899259 0.083065
H50   H     H_    0.605289 0.511699 0.863183 0.147050
H51   H     H_    0.868154 0.785118 0.246194 0.108115
H52   H     H_    0.678030 0.233925 0.327286 0.027739
H53   H     H_    0.749326 0.244308 0.245026 0.129412
H54   H     H_    0.485340 0.351533 0.118109 0.360801
H55   H     H_    0.142994 0.051771 0.248373 0.317649
H56   H     H_    0.904345 0.589331 0.674742 0.074271
H57   H     H_    0.267714 0.877536 0.732020 0.314576
H58   H     H_    0.132641 0.161025 0.768252 0.353573
H59   H     H_    0.280316 0.366607 0.936842 0.333989
H60   H     H_    0.781768 0.355378 0.877636 0.339525
H61   H     H_    0.877745 0.386398 0.218757 0.340736
H62   H     H_    0.114921 0.697133 0.793203 0.141432
H63   H     H_    0.033752 0.608026 0.796289 0.052627
H64   H     H_    0.902632 0.681129 0.796688 0.129906
O1    O     O_2   0.114280 0.679350 0.549180 -0.456472
O2    O     O_2   0.779159 0.472276 0.756420 -0.480641
O3    O     O_3   0.829102 0.332678 0.727454 -0.568598
O4    O     O_3   0.866400 0.589600 0.543550 -0.479543
O5    O     O_3   0.444420 0.455520 0.411210 -0.430538
O6    O     O_2   0.612810 0.550740 0.677950 -0.465280
O7    O     O_3   0.449687 0.671932 0.707061 -0.642530
O8    O     O_2   0.538166 0.247668 0.525262 -0.497782
O9    O     O_3   0.496928 0.267305 0.664032 -0.606639
O10   O     O_3   0.362150 0.623490 0.415650 -0.494510
O11   O     O_2   0.269667 0.753564 0.486656 -0.473774
O12   O     O_3   0.361502 0.332886 0.322294 -0.622830
O13   O     O_3   0.958197 0.694883 0.665756 -0.635671
O14   O     O_3   0.308540 0.740640 0.349991 -0.585995
O15   O     O_2   0.197490 0.449210 0.322030 -0.397473
O16   O     O_3   0.950520 0.583920 0.376610 -0.416920
O17   O     O_2   0.046855 0.526149 0.250050 -0.449318
O18   O     O_2   0.267907 0.238640 0.111069 -0.209156
O19   O     O_2   0.184126 0.360716 0.165586 -0.332854
O20   O     O_3   0.488551 0.337380 0.165243 -0.552136
O21   O     O_2   0.192914 0.126665 0.165084 -0.519634
O22   O     O_R   0.215781 0.095560 0.273591 -0.777258
O23   O     O_3   0.983029 0.664291 0.270995 -0.616854
O24   O     O_2   0.505285 0.851171 0.793406 -0.572597
O25   O     O_R   0.333500 0.843700 0.695596 -0.782390
O26   O     O_2   0.006594 0.275569 0.814707 -0.558300
O27   O     O_R   0.096564 0.182404 0.726576 -0.791493
O28   O     O_2   0.280748 0.239273 0.876830 -0.523433
O29   O     O_R   0.345460 0.359739 0.891875 -0.755989
O30   O     O_2   0.699906 0.228771 0.822407 -0.559151
O31   O     O_R   0.671594 0.352050 0.853227 -0.718896
O32   O     O_2   0.777972 0.476191 0.391099 -0.268265
O33   O     O_2   0.652392 0.365468 0.308589 -0.345809
O34   O     O_2   0.696020 0.320600 0.450800 -0.444613
O35   O     O_3   0.914278 0.411037 0.269836 -0.446579
O36   O     O_3   0.943900 0.410390 0.456390 -0.400603
O37   O     O_3   0.448150 0.376500 0.584290 -0.455928
O38   O     O_3   0.885718 0.301646 0.334289 -0.540838
O39   O     O_3   0.365880 0.544470 0.588730 -0.486824
O40   O     O_3   0.859790 0.416060 0.623340 -0.473383
P1    P     P_3+3 0.941030 0.670050 0.569830 0.976711
P2    P     P_3+3 0.370400 0.428500 0.331430 1.209371
P3    P     P_3+3 0.922097 0.579442 0.284750 1.019949
P4    P     P_3+3 0.869270 0.329940 0.430110 1.145655
P5    P     P_3+3 0.896254 0.417386 0.715103 0.980054
P6    P     P_3+3 0.385267 0.718329 0.428608 0.939913
P7    P     P_3+3 0.436375 0.576184 0.680027 0.950883
P8    P     P_3+3 0.421229 0.284573 0.581836 0.959408
S1    S     S_3+6 0.303025 0.305603 0.172912 -0.062008
S2    S     S_3+6 0.748008 0.434313 0.313238 -0.051238

loop_
_geom_bond_atom_site_label_1
_geom_bond_atom_site_label_2
_ccdc_geom_bond_type
O3    P5    S    
O38   P4    S    
O10   P6    S    
Ba2   O4    S    
C52   H45   S    
C25   C27   A    
C48   H42   S    
C70   O29   S    
C71   C72   S    
C17   C18   A    
O18   S1    D    
C39   H39   S    
C68   O24   D    
O11   P6    D    
Ba1   P2    S    
C61   H49   S    
O16   P3    S    
C52   C63   S    
C3    H30   S    
C66   O22   S    
Ba2   O6    S    
C5    C9    A    
C52   H56   S    
C45   O3    S    
O32   S2    D    
C57   C62   A    
C60   C61   A    
C15   C24   A    
C26   C27   A    
C40   H34   S    
C22   C24   A    
C32   C33   A    
C64   S1    S    
C40   H23   S    
Ba2   O34   S    
Ba1   P1    S    
C55   C57   A    
C13   C14   A    
O15   P2    D    
C9    C22   A    
C49   H43   S    
C36   P5    S    
C54   C55   A    
C27   H28   S    
Ba1   Ba2   S    
C50   H46   S    
H60   O31   S    
Ba1   O16   S    
C2    C73   A    
Ba2   O37   S    
C28   H52   S    
C4    O23   S    
C25   H35   S    
C6    C7    A    
C36   C43   A    
C69   O27   S    
C13   P4    S    
C23   H9    S    
C39   C44   A    
C30   H29   S    
Ba1   O10   S    
C23   O7    S    
C34   H11   S    
C56   H16   S    
C63   H62   S    
C64   C65   S    
C57   C58   A    
C53   C58   A    
C31   P1    S    
C32   H36   S    
C39   C41   A    
Ba1   O15   S    
C60   H48   S    
C34   C68   S    
O12   P2    S    
C72   H22   S    
C38   P3    S    
C51   C53   A    
C4    C16   S    
C28   H53   S    
C49   C50   A    
C32   C42   A    
C70   C72   S    
C67   H19   S    
C37   C38   A    
C3    C5    A    
O17   P3    D    
C5    C73   A    
O35   S2    S    
C37   H38   S    
C47   C53   A    
C10   P8    S    
C2    H31   S    
C41   P2    S    
C65   C66   S    
O19   S1    D    
C59   H47   S    
O9    P8    S    
O39   P7    S    
O20   S1    S    
C11   H24   S    
H57   O25   S    
C35   C36   A    
Ba1   O4    S    
Ba2   O36   S    
Ba1   O39   S    
C43   H40   S    
C29   C30   A    
C21   C22   A    
C41   C46   A    
C21   H32   S    
C29   P6    S    
C1    H7    S    
C48   C49   A    
C24   C25   A    
C65   H4    S    
C67   C72   S    
O4    P1    S    
C18   C19   A    
C17   C26   A    
Ba1   O1    S    
C45   C69   S    
C46   S2    S    
C1    C12   S    
C37   C44   A    
C18   C31   A    
H55   O22   S    
C62   H50   S    
C4    H21   S    
C11   C13   A    
C12   O14   S    
C34   H10   S    
C70   O28   D    
H59   O29   S    
Ba2   O40   S    
C63   H63   S    
C71   O30   D    
C33   C43   A    
H54   O20   S    
C50   C51   A    
O37   P8    S    
O36   P4    S    
O40   P5    S    
C7    C8    A    
C51   C54   A    
C38   C46   A    
C64   H2    S    
O5    P2    S    
Ba1   O36   S    
C14   C20   A    
C1    H13   S    
C16   H14   S    
O7    P7    S    
C26   C29   A    
C65   H5    S    
O1    P1    D    
C67   H20   S    
C68   O25   S    
C3    C6    A    
C52   O13   S    
C55   C59   A    
O33   S2    D    
Ba2   O39   S    
C20   H27   S    
O23   P3    S    
O6    P7    D    
O2    P5    D    
O8    P8    D    
C30   C31   A    
C35   C42   A    
C6    H25   S    
C19   H26   S    
C64   O12   S    
Ba1   O5    S    
C8    C14   A    
H58   O27   S    
C16   H51   S    
C45   C56   S    
C23   H8    S    
C2    C19   A    
O14   P6    S    
C42   C58   S    
C33   P7    S    
C15   C17   A    
C28   O38   S    
Ba2   P4    S    
C59   C60   A    
C7    C10   A    
C45   H15   S    
C8    C9    A    
C23   C34   S    
C61   C62   A    
C63   H64   S    
H61   O35   S    
C47   H41   S    
Ba2   O5    S    
C10   C11   A    
O34   P4    D    
C47   C48   A    
C69   O26   D    
C44   C54   S    
C15   C73   A    
C67   O9    S    
C4    H33   S    
C20   C21   A    
C28   C40   S    
C56   H18   S    
C40   H12   S    
O13   P1    S    
C12   H6    S    
C71   O31   S    
C66   O21   D    
C1    H3    S    
C56   H17   S    
C16   H44   S    
C35   H37   S    
C12   H1    S    
