data_mof_unit_61762.cif
_audit_creation_date              2013-03-05T15:44:06-0500
_audit_creation_method            fapswitch 2.2
_symmetry_space_group_name_H-M    P1
_symmetry_Int_Tables_number       1
_space_group_crystal_system       triclinic
_cell_length_a                    14.148987
_cell_length_b                    10.745252
_cell_length_c                    10.073498
_cell_angle_alpha                 90.022352
_cell_angle_beta                  89.921736
_cell_angle_gamma                 90.491356
_cell_volume                      1531.46068014

loop_
_atom_site_label
_atom_site_type_symbol
_atom_site_description
_atom_site_fract_x
_atom_site_fract_y
_atom_site_fract_z
_atom_type_partial_charge
O1    O     O_R   0.499990 0.319060 0.613040 -0.547359
O2    O     O_R   0.500010 0.319100 0.386900 -0.606146
C1    C     C_R   0.502568 0.262874 0.499762 0.877833
O3    O     O_R   0.373700 0.499980 0.613090 -0.582618
O4    O     O_R   0.373730 0.500020 0.386960 -0.604624
C2    C     C_R   0.329301 0.499979 0.500099 0.849407
Zn1   Zn    Zn3+2 0.499980 0.499970 0.650990 1.107551
Zn2   Zn    Zn3+2 0.500020 0.500030 0.349010 1.025020
O5    O     O_R   0.499990 0.680900 0.613100 -0.557953
O6    O     O_R   0.500010 0.680940 0.386960 -0.614853
O7    O     O_R   0.626270 0.499980 0.613040 -0.561506
O8    O     O_R   0.626300 0.500020 0.386910 -0.557106
C3    C     C_R   0.495461 0.736988 0.500014 0.828674
C4    C     C_R   0.670693 0.500204 0.499898 0.900580
C5    C     C_1   0.227803 0.500406 0.500236 -0.171761
C6    C     C_1   0.142535 0.500715 0.500209 0.011090
C7    C     C_1   0.042629 0.500916 0.500058 0.038384
C8    C     C_1   0.957360 0.500935 0.499900 0.047541
C9    C     C_1   0.857454 0.500785 0.499761 0.046871
C10   C     C_1   0.772186 0.500540 0.499750 -0.103139
C11   C     C_2   0.498010 0.933557 0.391275 -0.260615
C12   C     C_2   0.475558 0.867191 0.499666 0.364254
H1    H     H_    0.523609 0.889650 0.301103 0.210292
C13   C     C_2   0.490949 0.066960 0.389934 -0.136124
C14   C     C_2   0.512694 0.131593 0.498717 -0.215149
H2    H     H_    0.470582 0.111745 0.297701 0.202990
H3    H     H_    0.539653 0.088192 0.588163 0.225369
C15   C     C_2   0.548163 0.577968 0.927695 0.242894
N1    N     N_2   0.500930 0.501330 0.852150 -0.072223
C16   C     C_2   0.563089 0.557596 0.074186 0.288332
N2    N     N_2   0.500950 0.501360 0.147810 -0.225066
H4    H     H_    0.436729 0.481489 0.104521 0.163622
O9    O     O_3   0.433391 0.920224 0.610424 -0.574643
C17   C     C_3   0.336263 0.889564 0.609774 -0.219165
H5    H     H_    0.324677 0.787938 0.624791 0.143142
H6    H     H_    0.301560 0.920706 0.516378 0.148615
H7    H     H_    0.301681 0.938701 0.693428 0.212912
N3    N     N_R   0.587205 0.689461 0.871303 0.237231
O10   O     O_R   0.566506 0.796443 0.923808 -0.335780
O11   O     O_R   0.658353 0.682812 0.789959 -0.322947
N4    N     N_R   0.485215 0.381628 0.901003 0.244554
O12   O     O_R   0.405544 0.325903 0.874442 -0.352173
O13   O     O_R   0.556066 0.314999 0.941425 -0.360105
N5    N     N_R   0.648033 0.606214 0.132241 0.251584
O14   O     O_R   0.644009 0.701629 0.211282 -0.351954
O15   O     O_R   0.729196 0.575587 0.081651 -0.335732

loop_
_geom_bond_atom_site_label_1
_geom_bond_atom_site_label_2
_geom_bond_distance
_ccdc_geom_bond_type
O4    Zn2   1.826802 S    
N3    O11   1.299559 A    
Zn1   N1    2.026494 S    
C14   H3    1.085903 S    
C17   H7    1.109624 S    
N4    O12   1.299988 A    
N2    H4    1.029124 S    
C15   N3    1.432284 S    
Zn2   O8    1.827579 S    
C15   C16   1.507325 S    
C7    C8    1.206465 T    
C11   C12   1.340679 D    
N5    O14   1.299459 A    
Zn1   O7    1.826801 S    
N4    O13   1.302685 A    
C16   N5    1.431910 S    
O4    C2    1.300824 A    
O3    Zn1   1.827581 S    
Zn2   O6    1.981012 S    
C15   N1    1.302057 D    
O8    C4    1.300743 A    
C3    C12   1.429506 S    
O9    C17   1.410478 S    
C17   H6    1.114691 S    
C11   H1    1.086542 S    
C16   N2    1.295236 D    
O7    C4    1.300797 A    
C5    C6    1.206485 T    
C4    C10   1.436000 S    
C1    C14   1.419158 S    
N3    O10   1.300712 A    
C13   C14   1.332098 D    
O3    C2    1.300819 A    
C17   H5    1.113195 S    
C11   C13   1.437851 S    
Zn1   O5    1.981396 S    
C12   O9    1.388891 S    
O5    C3    1.290905 A    
C8    C9    1.413565 S    
O2    C1    1.288380 A    
N5    O15   1.300584 A    
N1    N4    1.393301 S    
C2    C5    1.436137 S    
O1    Zn1   1.981012 S    
Zn2   N2    2.026867 S    
O2    Zn2   1.981396 S    
C9    C10   1.206432 T    
C13   H2    1.086887 S    
C6    C7    1.413598 S    
O1    C1    1.291382 A    
O6    C3    1.289863 A    
