data_mof_unit_30094.cif
_audit_creation_date              2012-12-10T17:24:50-0500
_audit_creation_method            fapswitch 2.2
_symmetry_space_group_name_H-M    P1
_symmetry_Int_Tables_number       1
_space_group_crystal_system       triclinic
_cell_length_a                    10.274614
_cell_length_b                    10.897474
_cell_length_c                    18.979542
_cell_angle_alpha                 92.153685
_cell_angle_beta                  80.995262
_cell_angle_gamma                 93.919066
_cell_volume                      2093.21043961

loop_
_atom_site_label
_atom_site_type_symbol
_atom_type_description
_atom_site_fract_x
_atom_site_fract_y
_atom_site_fract_z
_atom_type_partial_charge
C1    C     C_R   0.553500 0.730438 0.491642 0.940457
C2    C     C_R   0.502894 0.506038 0.365256 0.886657
C3    C     C_R   0.403965 0.526247 0.766968 0.094419
C4    C     C_R   0.634736 0.558599 0.247462 0.145292
C5    C     C_R   0.430229 0.526907 0.838362 0.157490
C6    C     C_R   0.670071 0.515665 0.176158 0.151053
C7    C     C_R   0.532466 0.456703 0.853661 -0.025596
C8    C     C_R   0.571056 0.452868 0.142040 -0.021240
C9    C     C_R   0.605763 0.387272 0.801316 -0.245237
C10   C     C_R   0.446009 0.422013 0.180235 -0.266787
C11   C     C_R   0.588536 0.392161 0.730245 0.214565
C12   C     C_R   0.446897 0.267657 0.502262 0.937505
C13   C     C_R   0.416948 0.450129 0.252641 0.158701
C14   C     C_R   0.494221 0.470095 0.711922 -0.198343
C15   C     C_R   0.514106 0.511364 0.287488 -0.122419
C16   C     C_R   0.583815 0.442253 0.064542 0.294340
C17   C     C_R   0.559715 0.447357 0.925673 0.305934
C18   C     C_3   0.277446 0.577010 0.750560 -0.365786
C19   C     C_3   0.176598 0.472552 0.735753 -0.812450
C20   C     C_3   0.716015 0.664139 0.278575 -0.422675
C21   C     C_3   0.636470 0.777839 0.293772 -0.892095
C22   C     C_3   0.352023 0.601535 0.898409 -0.410185
C23   C     C_2   0.581697 0.858696 0.480695 -0.444230
C24   C     C_3   0.228953 0.528412 0.934347 -0.843190
C25   C     C_3   0.812414 0.530809 0.137942 -0.398982
C26   C     C_3   0.907003 0.465933 0.176706 -0.911415
C27   C     C_3   0.770040 0.250385 0.692239 -0.827612
C28   C     C_3   0.206563 0.530552 0.290670 -0.767544
C29   C     C_3   0.735285 0.120906 0.504143 -0.788785
C30   C     C_3   0.332785 0.928676 0.378677 -0.831167
C31   C     C_3   0.074512 0.257555 0.515439 -0.812002
C32   C     C_3   0.831656 0.670860 0.590907 -0.699522
C33   C     C_3   0.156269 0.734921 0.600457 -0.730803
C34   C     C_2   0.423293 0.135477 0.495041 -0.430774
C35   C     C_3   0.873593 0.321501 0.367589 -0.702810
C36   C     C_2   0.492684 0.930960 0.461739 0.177414
C37   C     C_2   0.521554 0.062905 0.467070 0.228799
C38   C     C_2   0.921284 0.497618 0.515056 0.251314
C39   C     C_2   0.068252 0.477032 0.502866 0.216180
C40   C     C_R   0.497645 0.493342 0.635092 0.838962
H1    H     H_    0.677414 0.329707 0.817092 0.164903
H2    H     H_    0.547404 0.757337 0.333630 0.273676
H3    H     H_    0.697461 0.853874 0.315494 0.247423
H4    H     H_    0.605877 0.808179 0.243923 0.264084
H5    H     H_    0.749598 0.638654 0.328142 0.223861
H6    H     H_    0.806879 0.692908 0.242245 0.215359
H7    H     H_    0.157645 0.507693 0.896760 0.260021
H8    H     H_    0.256173 0.440825 0.954500 0.268750
H9    H     H_    0.179797 0.583116 0.980225 0.245753
H10   H     H_    0.412699 0.630932 0.940071 0.220990
H11   H     H_    0.326574 0.690641 0.879667 0.185341
H12   H     H_    0.368111 0.380205 0.153050 0.164816
H13   H     H_    0.911098 0.506800 0.230715 0.255731
H14   H     H_    0.875354 0.366685 0.181602 0.266038
H15   H     H_    0.008130 0.474342 0.145726 0.253916
H16   H     H_    0.823724 0.488744 0.083459 0.222934
H17   H     H_    0.844531 0.629493 0.131172 0.203574
H18   H     H_    0.601716 0.266249 0.644175 0.226648
H19   H     H_    0.734927 0.176731 0.730859 0.236353
H20   H     H_    0.843311 0.315832 0.713296 0.246309
H21   H     H_    0.819828 0.206580 0.642570 0.234131
H22   H     H_    0.239688 0.346450 0.271072 0.221808
H23   H     H_    0.323377 0.096649 0.511228 0.125928
H24   H     H_    0.190787 0.551479 0.235862 0.229474
H25   H     H_    0.254244 0.612875 0.314893 0.259775
H26   H     H_    0.109821 0.509669 0.323402 0.243609
H27   H     H_    0.703188 0.067913 0.401021 0.208393
H28   H     H_    0.767745 0.218376 0.511653 0.284270
H29   H     H_    0.824710 0.067656 0.490424 0.205103
H30   H     H_    0.679165 0.088750 0.555808 0.232215
H31   H     H_    0.293515 0.880379 0.484979 0.248335
H32   H     H_    0.418007 0.932663 0.334790 0.254199
H33   H     H_    0.295752 0.022015 0.389024 0.234145
H34   H     H_    0.677964 0.893735 0.490876 0.152078
H35   H     H_    0.252858 0.866586 0.361349 0.240786
H36   H     H_    0.194074 0.363972 0.436573 0.286889
H37   H     H_    0.101582 0.172159 0.484442 0.228733
H38   H     H_    0.968238 0.249521 0.536328 0.228438
H39   H     H_    0.127564 0.267477 0.562138 0.257459
H40   H     H_    0.910641 0.516078 0.625189 0.209441
H41   H     H_    0.889942 0.723006 0.627697 0.200731
H42   H     H_    0.727077 0.677210 0.615160 0.246533
H43   H     H_    0.848711 0.717099 0.538920 0.223592
H44   H     H_    0.064325 0.706513 0.507187 0.195518
H45   H     H_    0.086646 0.511441 0.722506 0.224782
H46   H     H_    0.126231 0.831056 0.601934 0.193925
H47   H     H_    0.261893 0.737863 0.605954 0.261969
H48   H     H_    0.098076 0.685250 0.646039 0.219996
H49   H     H_    0.879669 0.511092 0.372030 0.211764
H50   H     H_    0.910981 0.247395 0.395919 0.253088
H51   H     H_    0.925463 0.320263 0.311726 0.206771
H52   H     H_    0.766100 0.304231 0.367108 0.269066
H53   H     H_    0.216169 0.410478 0.691134 0.272203
H54   H     H_    0.147521 0.415952 0.783733 0.242426
H55   H     H_    0.299898 0.641619 0.706262 0.203490
H56   H     H_    0.226591 0.633611 0.794347 0.199419
N1    N     N_R   0.511456 0.347928 0.964378 -0.172597
N2    N     N_2   0.369741 0.881869 0.442674 -0.265508
N3    N     N_2   0.105130 0.362663 0.469979 -0.278653
N4    N     N_2   0.865310 0.543041 0.584009 -0.259166
N5    N     N_2   0.134769 0.674828 0.533783 -0.227696
N6    N     N_2   0.900773 0.439372 0.401195 -0.265846
N7    N     N_R   0.634781 0.540208 0.024966 -0.189731
N8    N     N_R   0.522863 0.345617 0.033022 -0.178481
N9    N     N_R   0.624124 0.542273 0.956311 -0.188874
N10   N     N_2   0.842710 0.448880 0.471430 -0.041944
N11   N     N_2   0.157290 0.551120 0.528570 -0.044782
N12   N     N_2   0.659607 0.314916 0.676729 -0.264554
N13   N     N_2   0.286464 0.425839 0.288817 -0.297836
N14   N     N_2   0.655700 0.109036 0.446907 -0.272918
O1    O     O_R   0.431050 0.692470 0.505750 -0.582051
O2    O     O_R   0.568950 0.307530 0.494250 -0.573288
O3    O     O_R   0.651120 0.659650 0.487410 -0.630375
O4    O     O_R   0.348880 0.340350 0.512590 -0.634089
O5    O     O_R   0.389930 0.516430 0.611030 -0.607265
O6    O     O_R   0.610070 0.483570 0.388970 -0.634009
O7    O     O_R   0.610000 0.483610 0.592700 -0.569309
O8    O     O_R   0.390000 0.516390 0.407300 -0.595824
Zn1   Zn    Zn3+2 0.353060 0.521920 0.512240 0.948012
Zn2   Zn    Zn3+2 0.646940 0.478080 0.487760 0.942388

loop_
_geom_bond_atom_site_label_1
_geom_bond_atom_site_label_2
_ccdc_geom_bond_type
N5    N11   S    
H44   N5    S    
H49   N6    S    
C34   C37   D    
C18   H56   S    
C25   H16   S    
C35   N6    S    
C10   H12   S    
C26   H15   S    
C2    O8    A    
H36   N3    S    
C39   N11   D    
C32   H41   S    
C29   H28   S    
C1    O3    A    
C33   N5    S    
C36   C37   S    
C33   H48   S    
C27   H20   S    
C38   C39   S    
C11   C14   A    
C6    C25   S    
O3    Zn2   S    
C3    C18   S    
O1    Zn1   S    
C18   C19   S    
O8    Zn1   S    
C13   N13   S    
C27   H21   S    
C21   H3    S    
C2    O6    A    
C16   N8    A    
C5    C22   S    
C7    C17   S    
C31   N3    S    
C12   O4    A    
C20   H5    S    
C19   H53   S    
C22   H10   S    
C35   H52   S    
C40   O7    A    
C8    C16   S    
H40   N4    S    
C18   H55   S    
C25   H17   S    
C26   H14   S    
N11   Zn1   S    
C31   H37   S    
C29   H29   S    
H31   N2    S    
C24   H8    S    
C29   N14   S    
C38   N4    S    
O7    Zn2   S    
O2    Zn2   S    
C30   H33   S    
C6    C8    A    
C3    C5    A    
C25   C26   S    
C40   O5    A    
O6    Zn2   S    
C38   N10   D    
C28   H26   S    
C33   H46   S    
C17   N9    A    
C21   H4    S    
H27   N14   S    
C39   N3    S    
N7    N9    A    
C2    C15   S    
C9    C11   A    
C37   N14   S    
C19   H54   S    
C28   H24   S    
C4    C6    A    
C1    C23   S    
O5    Zn1   S    
C13   C15   A    
C16   N7    A    
C22   C24   S    
C23   H34   S    
C12   C34   S    
C26   H13   S    
C12   O2    A    
C31   H38   S    
C5    C7    A    
C29   H30   S    
C24   H9    S    
C7    C9    A    
C32   H43   S    
N10   Zn2   S    
C24   H7    S    
O4    Zn1   S    
C19   H45   S    
C10   C13   A    
C30   H32   S    
C31   H39   S    
C3    C14   A    
C28   N13   S    
C32   H42   S    
C30   N2    S    
C9    H1    S    
C4    C15   A    
C28   H25   S    
C33   H47   S    
C27   H19   S    
C1    O1    A    
C30   H35   S    
H22   N13   S    
C27   N12   S    
C34   H23   S    
N6    N10   S    
H18   N12   S    
N1    N8    A    
C14   C40   S    
C21   H2    S    
C4    C20   S    
C35   H50   S    
C32   N4    S    
C20   C21   S    
C8    C10   A    
C23   C36   D    
C11   N12   S    
C36   N2    S    
C17   N1    A    
C20   H6    S    
C22   H11   S    
C35   H51   S    
