data_mof_unit_26766.cif
_audit_creation_date              2013-03-05T15:56:46-0500
_audit_creation_method            fapswitch 2.2
_symmetry_space_group_name_H-M    P1
_symmetry_Int_Tables_number       1
_space_group_crystal_system       triclinic
_cell_length_a                    6.95879
_cell_length_b                    14.712823
_cell_length_c                    16.018138
_cell_angle_alpha                 90.194051
_cell_angle_beta                  89.367756
_cell_angle_gamma                 90.548078
_cell_volume                      1639.80845644

loop_
_atom_site_label
_atom_site_type_symbol
_atom_site_description
_atom_site_fract_x
_atom_site_fract_y
_atom_site_fract_z
_atom_type_partial_charge
O1    O     O_R   0.638180 0.333920 0.163320 -0.604748
O2    O     O_R   0.361820 0.666080 0.836680 -0.604742
O3    O     O_R   0.308470 0.344960 0.336080 -0.583554
O4    O     O_R   0.691530 0.655040 0.663920 -0.583497
O5    O     O_R   0.138140 0.166110 0.336680 -0.575958
O6    O     O_R   0.861860 0.833890 0.663320 -0.575976
C1    C     C_R   0.477524 0.369099 0.363315 1.008757
C2    C     C_R   0.522475 0.630899 0.636686 1.008781
O7    O     O_R   0.308460 0.344950 0.163930 -0.604487
O8    O     O_R   0.691540 0.655050 0.836070 -0.604489
O9    O     O_R   0.138140 0.166100 0.163310 -0.608360
O10   O     O_R   0.861860 0.833900 0.836690 -0.608391
C3    C     C_R   0.478379 0.367103 0.135009 0.902038
C4    C     C_R   0.521621 0.632897 0.864991 0.902054
O11   O     O_R   0.638180 0.333930 0.336700 -0.546013
O12   O     O_R   0.361820 0.666070 0.663300 -0.546018
O13   O     O_3   0.471670 0.191340 0.250000 -0.282655
O14   O     O_3   0.528330 0.808660 0.750000 -0.282896
V1    V     V_3+5 0.196830 0.260900 0.250000 1.205931
V2    V     V_3+5 0.803170 0.739100 0.750000 1.205891
O15   O     O_R   0.808420 0.155070 0.163920 -0.611699
O16   O     O_R   0.191580 0.844930 0.836080 -0.611767
C5    C     C_R   0.976263 0.131881 0.135887 0.900516
C6    C     C_R   0.023744 0.868102 0.864127 0.900625
O17   O     O_R   0.808420 0.155080 0.336070 -0.572636
O18   O     O_R   0.191580 0.844920 0.663930 -0.572559
C7    C     C_R   0.975865 0.134427 0.365908 1.013650
C8    C     C_R   0.024133 0.865589 0.634105 1.013678
V3    V     V_3+5 0.696830 0.239130 0.250000 1.212811
V4    V     V_3+5 0.303170 0.760870 0.750000 1.212786
O19   O     O_3   0.971850 0.308690 0.250010 -0.261838
O20   O     O_3   0.028150 0.691310 0.749990 -0.261817
C9    C     C_R   0.922191 0.183640 0.545743 0.297898
C10   C     C_R   0.077813 0.816377 0.454261 0.298011
C11   C     C_R   0.924189 0.209419 0.629487 -0.284626
C12   C     C_R   0.075965 0.790626 0.370505 -0.284567
C13   C     C_R   0.945351 0.145749 0.692256 0.359364
C14   C     C_R   0.054998 0.854323 0.307747 0.358957
C15   C     C_R   0.963750 0.054194 0.669803 -0.367853
C16   C     C_R   0.036522 0.945862 0.330218 -0.367921
C17   C     C_R   0.982024 0.026441 0.585129 0.091681
C18   C     C_R   0.018062 0.973587 0.414889 0.091730
C19   C     C_R   0.963050 0.092691 0.520819 -0.038117
C20   C     C_R   0.036964 0.907327 0.479194 -0.038135
C21   C     C_R   0.017082 0.933883 0.564943 -0.245914
C22   C     C_R   0.982927 0.066136 0.435073 -0.245981
H1    H     H_    0.895523 0.279633 0.645569 0.192646
H2    H     H_    0.104664 0.720418 0.354409 0.192600
H3    H     H_    0.962913 0.004832 0.719339 0.132594
H4    H     H_    0.037460 0.995236 0.280694 0.132546
C23   C     C_R   0.172400 0.997601 0.951620 0.217155
C24   C     C_R   0.827682 0.002299 0.048463 0.216608
C25   C     C_R   0.151238 0.058950 0.018368 -0.140952
C26   C     C_R   0.848820 0.940970 0.981697 -0.141375
H5    H     H_    0.267527 0.106187 0.031298 0.114737
H6    H     H_    0.732536 0.893732 0.968765 0.114842
C27   C     C_R   0.982980 0.062898 0.067385 -0.123801
C28   C     C_R   0.017058 0.937042 0.932664 -0.123721
C29   C     C_R   0.321988 0.465202 0.475572 -0.131227
C30   C     C_R   0.678007 0.534793 0.524431 -0.131183
H7    H     H_    0.182256 0.439983 0.457804 0.174987
H8    H     H_    0.817741 0.560008 0.542200 0.174993
C31   C     C_R   0.333972 0.525070 0.543504 -0.034758
C32   C     C_R   0.666022 0.474930 0.456496 -0.034805
H9    H     H_    0.203176 0.542358 0.576734 0.157475
H10   H     H_    0.796814 0.457652 0.423259 0.157487
C33   C     C_R   0.511927 0.561888 0.568235 -0.125434
C34   C     C_R   0.488070 0.438109 0.431767 -0.125430
C35   C     C_R   0.321868 0.474014 0.033595 -0.099142
C36   C     C_R   0.678132 0.525985 0.966405 -0.099160
H11   H     H_    0.181768 0.455103 0.058355 0.125738
H12   H     H_    0.818232 0.544896 0.941644 0.125747
C37   C     C_R   0.331936 0.537557 0.968511 -0.102252
C38   C     C_R   0.668064 0.462442 0.031489 -0.102311
H13   H     H_    0.199486 0.565632 0.945452 0.126599
H14   H     H_    0.800513 0.434367 0.054548 0.126610
C39   C     C_R   0.510217 0.564526 0.933857 -0.132045
C40   C     C_R   0.489782 0.435474 0.066143 -0.132046
N1    N     N_R   0.062064 0.826044 0.221488 0.221571
O21   O     O_R   0.080388 0.885376 0.161843 -0.475111
O22   O     O_R   0.054046 0.740195 0.201784 -0.410991
N2    N     N_R   0.938632 0.174082 0.778507 0.221538
O23   O     O_R   0.921031 0.114771 0.838213 -0.475588
O24   O     O_R   0.946312 0.259958 0.798149 -0.410957
N3    N     N_R   0.846711 0.248150 0.489685 0.219247
O25   O     O_R   0.961385 0.307964 0.455838 -0.456110
O26   O     O_R   0.663365 0.263663 0.493632 -0.430563
N4    N     N_R   0.153198 0.751845 0.510322 0.219232
O27   O     O_R   0.038439 0.692073 0.544177 -0.456059
O28   O     O_R   0.336514 0.736257 0.506355 -0.430592
C41   C     C_3   0.361777 0.001698 0.902844 -0.466568
C42   C     C_3   0.335288 0.038776 0.814454 -0.210792
C43   C     C_3   0.523550 0.048012 0.766568 -0.792019
H15   H     H_    0.594365 0.111645 0.786884 0.287347
H16   H     H_    0.618019 0.988855 0.777300 0.275045
H17   H     H_    0.495190 0.053589 0.698637 0.237033
H18   H     H_    0.241272 0.993381 0.778337 0.203456
H19   H     H_    0.270854 0.107171 0.818287 0.242076
H20   H     H_    0.466602 0.047219 0.934640 0.192897
H21   H     H_    0.430546 0.934071 0.901680 0.207781
C44   C     C_3   0.638375 0.998152 0.097288 -0.466542
C45   C     C_3   0.665073 0.961206 0.185712 -0.210789
C46   C     C_3   0.476913 0.951983 0.233721 -0.789680
H22   H     H_    0.381362 0.010523 0.222185 0.274864
H23   H     H_    0.407173 0.887754 0.214351 0.286387
H24   H     H_    0.505299 0.947694 0.301707 0.236605
H25   H     H_    0.729780 0.892864 0.181944 0.241617
H26   H     H_    0.759082 0.006703 0.221719 0.203108
H27   H     H_    0.569485 0.065752 0.098406 0.207628
H28   H     H_    0.533603 0.952537 0.065571 0.193257

loop_
_geom_bond_atom_site_label_1
_geom_bond_atom_site_label_2
_geom_bond_distance
_ccdc_geom_bond_type
V4    O20   2.161616 S    
C31   H9    1.081329 S    
C43   H15   1.103580 S    
O13   V3    1.711228 S    
O4    C2    1.304875 A    
V1    O19   1.722355 S    
C42   H19   1.106813 S    
C8    C21   1.499679 S    
C15   C17   1.419846 A    
N3    O25   1.298237 A    
O9    V1    2.007221 S    
C44   C45   1.532687 S    
C38   H14   1.082768 S    
C32   C34   1.407261 A    
C11   C13   1.386516 A    
O3    C1    1.304872 A    
V2    O20   1.722354 S    
C14   N1    1.442102 S    
C44   H27   1.108224 S    
C30   H8    1.078262 S    
C18   C22   1.421287 A    
C4    C39   1.496364 S    
C35   H11   1.082695 S    
C9    N3    1.417305 S    
O7    C3    1.304049 A    
C23   C41   1.525389 S    
C1    C34   1.493770 S    
O5    C7    1.300532 A    
O7    V1    2.000737 S    
O6    C8    1.300538 A    
C30   C33   1.405685 A    
O8    V2    2.000734 S    
C36   C38   1.403399 A    
C35   C37   1.403400 A    
O14   V4    1.711228 S    
C41   H21   1.108214 S    
C10   C12   1.393002 A    
C16   C18   1.419786 A    
C11   H1    1.083680 S    
C2    O12   1.303226 A    
C36   C39   1.409545 A    
C17   C19   1.428611 A    
C35   C40   1.409545 A    
C18   C20   1.428605 A    
C24   C26   1.404331 A    
C42   H18   1.098253 S    
O11   V3    2.006469 S    
C26   H6    1.082917 S    
C25   H5    1.082919 S    
O17   V3    2.021514 S    
C24   C44   1.525395 S    
C31   C33   1.407268 A    
C45   H26   1.098194 S    
C29   H7    1.078266 S    
N3    O26   1.299087 A    
C9    C19   1.425460 A    
C10   C20   1.425506 A    
O8    C4    1.304049 A    
C41   C42   1.532681 S    
N1    O22   1.301709 A    
C25   C27   1.404102 A    
O13   V1    2.177775 S    
C1    O11   1.303228 A    
C44   H28   1.112026 S    
O15   V3    2.004239 S    
C23   C25   1.404316 A    
C32   H10   1.081324 S    
C29   C34   1.405689 A    
V3    O19   2.161617 S    
O10   V2    2.007223 S    
O1    V3    2.018880 S    
C45   H25   1.106836 S    
C46   H23   1.103336 S    
C23   C28   1.428850 A    
C10   N4    1.417306 S    
O3    V1    2.006994 S    
C7    C22   1.499690 S    
C15   H3    1.077387 S    
N4    O28   1.299096 A    
O18   V4    2.021515 S    
C43   H17   1.111464 S    
N2    O24   1.301780 A    
O15   C5    1.295077 A    
O16   C6    1.295043 A    
C13   N2    1.442139 S    
O1    C3    1.305225 A    
C37   H13   1.082768 S    
C20   C21   1.432331 A    
C26   C28   1.404107 A    
C5    C27   1.492814 S    
C3    C40   1.496364 S    
C37   C39   1.407689 A    
O16   V4    2.004239 S    
C29   C31   1.400351 A    
O5    V1    2.007309 S    
O17   C7    1.303281 A    
O6    V2    2.007311 S    
O10   C6    1.309197 A    
O18   C8    1.303271 A    
C30   C32   1.400344 A    
O2    V4    2.018877 S    
C12   C14   1.386493 A    
C13   C15   1.399730 A    
C14   C16   1.399639 A    
C43   H16   1.110720 S    
C16   H4    1.077377 S    
O9    C5    1.309174 A    
C42   C43   1.515995 S    
C9    C11   1.392959 A    
C12   H2    1.083682 S    
C46   H24   1.111041 S    
O14   V2    2.177775 S    
C45   C46   1.516345 S    
O2    C4    1.305226 A    
C19   C22   1.432294 A    
C24   C27   1.428857 A    
N1    O21   1.300725 A    
O4    V2    2.006995 S    
N4    O27   1.298235 A    
C2    C33   1.493773 S    
C6    C28   1.492796 S    
N2    O23   1.300828 A    
C38   C40   1.407689 A    
C46   H22   1.110321 S    
C17   C21   1.421339 A    
C36   H12   1.082695 S    
C41   H20   1.112026 S    
O12   V4    2.006470 S    
