data_mof_unit_24148.cif
_audit_creation_date              2012-12-11T14:23:11-0500
_audit_creation_method            fapswitch 2.2
_symmetry_space_group_name_H-M    P1
_symmetry_Int_Tables_number       1
_space_group_crystal_system       triclinic
_cell_length_a                    11.003664
_cell_length_b                    10.967608
_cell_length_c                    18.864758
_cell_angle_alpha                 90.343112
_cell_angle_beta                  89.61055
_cell_angle_gamma                 61.702769
_cell_volume                      2004.4543649

loop_
_atom_site_label
_atom_site_type_symbol
_atom_type_description
_atom_site_fract_x
_atom_site_fract_y
_atom_site_fract_z
_atom_type_partial_charge
C1    C     C_R   0.282797 0.624975 0.616145 0.558434
C2    C     C_R   0.567406 0.165870 0.711427 -0.086474
C3    C     C_R   0.576563 0.158229 0.783162 0.199261
C4    C     C_R   0.654515 0.621318 0.600294 0.554451
C5    C     C_R   0.942428 0.091518 0.803442 -0.112243
C6    C     C_R   0.056187 0.056916 0.759131 -0.110117
C7    C     C_R   0.046674 0.043317 0.686357 -0.123783
C8    C     C_R   0.920301 0.075863 0.656535 -0.106974
C9    C     C_R   0.672813 0.158883 0.669647 -0.008830
C10   C     C_R   0.202599 0.654312 0.840906 0.015534
C11   C     C_R   0.213585 0.535892 0.805169 -0.033252
C12   C     C_3   0.636084 0.582684 0.800646 0.082830
C13   C     C_R   0.228687 0.525203 0.730209 -0.014950
C14   C     C_R   0.256927 0.733155 0.732708 -0.161598
C15   C     C_R   0.237291 0.743915 0.805295 -0.149996
C16   C     C_R   0.629623 0.224412 0.600699 0.522581
C17   C     C_R   0.209627 0.428112 0.843669 -0.068526
C18   C     C_R   0.195031 0.322132 0.810526 0.348886
C19   C     C_R   0.217384 0.305749 0.737522 0.252429
C20   C     C_R   0.227850 0.408451 0.697659 -0.106791
C21   C     C_R   0.247886 0.629557 0.692934 0.014077
C22   C     C_R   0.661995 0.680402 0.172946 0.032707
C23   C     C_3   0.705795 0.674515 0.811031 -0.012705
C24   C     C_R   0.726490 0.548500 0.204045 0.046224
C25   C     C_R   0.761112 0.540843 0.275806 -0.042018
C26   C     C_R   0.619709 0.784990 0.292016 -0.181002
C27   C     C_R   0.614089 0.798575 0.217780 -0.179992
C28   C     C_R   0.227674 0.646714 0.399458 0.542870
C29   C     C_R   0.776856 0.424580 0.163863 0.232056
C30   C     C_R   0.886286 0.304028 0.190576 -0.063557
C31   C     C_R   0.936001 0.302279 0.258580 0.188788
C32   C     C_R   0.877934 0.422562 0.299008 -0.107388
C33   C     C_R   0.681833 0.653955 0.321553 -0.002917
C34   C     C_3   0.675611 0.648504 0.674641 0.044789
C35   C     C_R   0.644529 0.177691 0.170940 0.013262
C36   C     C_R   0.508092 0.262039 0.194364 0.036970
C37   C     C_R   0.482557 0.283974 0.267980 0.010248
C38   C     C_R   0.730571 0.168400 0.288629 -0.129393
C39   C     C_R   0.751942 0.125530 0.219419 -0.156715
C40   C     C_R   0.647853 0.624102 0.393916 0.521467
C41   C     C_R   0.395866 0.312019 0.147103 -0.069604
C42   C     C_R   0.263967 0.349725 0.172230 -0.108192
C43   C     C_R   0.241800 0.348184 0.244469 -0.127452
C44   C     C_R   0.346119 0.326531 0.292125 -0.112200
C45   C     C_3   0.830470 0.605647 0.691568 0.154428
C46   C     C_R   0.597014 0.250616 0.313782 0.001809
C47   C     C_R   0.050922 0.743814 0.195347 -0.002042
C48   C     C_R   0.120731 0.814414 0.224489 0.039780
C49   C     C_R   0.202480 0.755961 0.282843 0.029915
C50   C     C_R   0.071735 0.633091 0.308255 -0.155386
C51   C     C_R   0.020033 0.659915 0.239372 -0.159687
C52   C     C_R   0.580786 0.291497 0.388048 0.556121
C53   C     C_R   0.123007 0.932756 0.194318 -0.032299
C54   C     C_R   0.221423 0.971177 0.211538 -0.054604
C55   C     C_R   0.309474 0.904240 0.265423 -0.090611
C56   C     C_3   0.619699 0.566537 0.720736 -0.246219
C57   C     C_R   0.309902 0.788788 0.295500 -0.076840
C58   C     C_R   0.170322 0.672587 0.328432 0.009789
C59   C     C_R   0.706465 0.095712 0.893929 0.579474
C60   C     C_R   0.727370 0.689541 0.887504 0.596854
C61   C     C_R   0.122708 0.703816 0.907564 0.555919
C62   C     C_R   0.674799 0.109675 0.102425 0.528433
C63   C     C_R   0.698160 0.692876 0.098931 0.598926
C64   C     C_3   0.610203 0.818006 0.776783 -0.238478
C65   C     C_R   0.023991 0.750505 0.118825 0.553136
C66   C     C_3   0.589599 0.805045 0.696041 0.094239
C67   C     C_R   0.698315 0.136691 0.818209 0.046105
C68   C     C_3   0.848628 0.612389 0.772070 -0.213857
C69   C     C_3   0.943963 0.359529 0.675354 -0.058636
C70   C     C_3   0.096045 0.262573 0.903685 -0.121028
C71   C     C_3   0.576752 0.925650 0.590634 -0.094802
C72   C     C_R   0.814495 0.116306 0.775250 -0.023013
C73   C     C_R   0.802335 0.118963 0.699829 0.003594
Cr1   Cr    Cr6+3 0.392940 0.397950 0.502230 0.977188
Cr2   Cr    Cr6+3 0.398400 0.708500 0.501260 0.978061
Cr3   Cr    Cr6+3 0.708640 0.393530 0.496460 1.000385
Cr4   Cr    Cr6+3 0.937880 0.938320 0.007620 0.978091
Cr5   Cr    Cr6+3 0.625560 0.937220 0.994510 1.042789
Cr6   Cr    Cr6+3 0.938080 0.625010 0.001190 0.992853
H1    H     H_    0.657505 0.886456 0.785476 0.175982
H2    H     H_    0.507462 0.866451 0.803784 0.112801
H3    H     H_    0.229016 0.419659 0.899883 0.150156
H4    H     H_    0.242520 0.827349 0.833528 0.132446
H5    H     H_    0.236124 0.389493 0.641903 0.172302
H6    H     H_    0.576753 0.875485 0.326362 0.124363
H7    H     H_    0.573853 0.901207 0.195612 0.147062
H8    H     H_    0.930943 0.212860 0.157946 0.093143
H9    H     H_    0.477294 0.841767 0.688169 0.133715
H10   H     H_    0.927885 0.423193 0.348073 0.130800
H11   H     H_    0.818796 0.129221 0.323393 0.181679
H12   H     H_    0.660078 0.456677 0.706094 0.137729
H13   H     H_    0.410431 0.313852 0.090417 0.147334
H14   H     H_    0.853173 0.047372 0.204364 0.131942
H15   H     H_    0.179821 0.376460 0.135720 0.132568
H16   H     H_    0.141194 0.370779 0.264031 0.127391
H17   H     H_    0.317010 0.335884 0.346979 0.167955
H18   H     H_    0.042617 0.574028 0.343823 0.112518
H19   H     H_    0.050022 0.998416 0.156405 0.134328
H20   H     H_    0.958689 0.613849 0.220023 0.125575
H21   H     H_    0.221825 0.060054 0.186940 0.135437
H22   H     H_    0.371168 0.948033 0.285313 0.120401
H23   H     H_    0.920070 0.510544 0.793718 0.137752
H24   H     H_    0.392508 0.726207 0.329104 0.168067
H25   H     H_    0.897860 0.678963 0.782899 0.103793
H26   H     H_    0.849130 0.689353 0.669887 0.203122
H27   H     H_    0.531268 0.636872 0.825273 0.167842
H28   H     H_    0.509490 0.608065 0.709604 0.084321
H29   H     H_    0.852912 0.348758 0.663518 0.150801
H30   H     H_    0.972222 0.332024 0.730992 0.129374
H31   H     H_    0.023954 0.280598 0.640555 0.163555
H32   H     H_    0.439628 0.099354 0.794416 0.363319
H33   H     H_    0.991937 0.332515 0.882972 0.142763
H34   H     H_    0.472586 0.180563 0.688301 0.171383
H35   H     H_    0.123641 0.312923 0.947278 0.115124
H36   H     H_    0.091868 0.172473 0.927495 0.123042
H37   H     H_    0.264021 0.180015 0.656117 0.293782
H38   H     H_    0.767569 0.330070 0.077837 0.325443
H39   H     H_    0.055882 0.196810 0.335846 0.320584
H40   H     H_    0.464797 0.956545 0.589472 0.116879
H41   H     H_    0.638080 0.843380 0.551424 0.141587
H42   H     H_    0.588109 0.013810 0.571704 0.158598
H43   H     H_    0.792223 0.396049 0.807865 0.317757
H44   H     H_    0.956853 0.101835 0.858905 0.157980
H45   H     H_    0.153411 0.038357 0.781404 0.199233
H46   H     H_    0.136163 0.013718 0.652418 0.142854
H47   H     H_    0.915736 0.066188 0.599614 0.139216
H48   H     H_    0.284502 0.804931 0.707587 0.118401
O1    O     O_R   0.507340 0.255690 0.581430 -0.561727
O2    O     O_R   0.837290 0.593240 0.915240 -0.508194
O3    O     O_R   0.065320 0.635310 0.931580 -0.528334
O4    O     O_R   0.280360 0.527380 0.578910 -0.509204
O5    O     O_R   0.068470 0.828620 0.091850 -0.534820
O6    O     O_R   0.799150 0.057200 0.079350 -0.548772
O7    O     O_R   0.585220 0.080180 0.076770 -0.528962
O8    O     O_R   0.627170 0.809480 0.067050 -0.507046
O9    O     O_R   0.816200 0.596410 0.076500 -0.494560
O10   O     O_R   0.045770 0.638240 0.081070 -0.505537
O11   O     O_3   0.833840 0.833520 0.001110 -0.290013
O12   O     O_R   0.524510 0.695820 0.424050 -0.527380
O13   O     O_R   0.260600 0.739610 0.584580 -0.519888
O14   O     O_R   0.532370 0.695050 0.573830 -0.548092
O15   O     O_R   0.744850 0.503430 0.576380 -0.484910
O16   O     O_R   0.699080 0.276500 0.571950 -0.516570
O17   O     O_R   0.498860 0.256520 0.419860 -0.545641
O18   O     O_R   0.272490 0.528150 0.429140 -0.528508
O19   O     O_R   0.252110 0.740440 0.423010 -0.515699
O20   O     O_3   0.935619 0.487237 0.656389 -0.577190
O21   O     O_3   0.465959 0.163297 0.819011 -0.656965
O22   O     O_3   0.196216 0.213617 0.848819 -0.557804
O23   O     O_R   0.736370 0.504260 0.414810 -0.526570
O24   O     O_3   0.239355 0.182070 0.706917 -0.756168
O25   O     O_3   0.718260 0.424078 0.099288 -0.678756
O26   O     O_3   0.035340 0.180913 0.286565 -0.738527
O27   O     O_3   0.634185 0.889811 0.658964 -0.610268
O28   O     O_3   0.706315 0.454224 0.834783 -0.694442
O29   O     O_R   0.691220 0.277270 0.422180 -0.497066
O30   O     O_3   0.499990 0.499990 0.499980 -0.279235
O31   O     O_R   0.089570 0.825450 0.930590 -0.517573
O32   O     O_R   0.818700 0.054260 0.929860 -0.531685
O33   O     O_R   0.606310 0.077010 0.915520 -0.440583
O34   O     O_R   0.646730 0.806540 0.917560 -0.509095

loop_
_geom_bond_atom_site_label_1
_geom_bond_atom_site_label_2
_ccdc_geom_bond_type
C34   C56   S    
H43   O28   S    
Cr1   O18   S    
C19   C20   A    
C6    H45   S    
C34   C66   S    
C7    C8    A    
C53   C54   A    
C70   H35   S    
C1    C21   S    
Cr6   O9    S    
C12   C23   S    
C28   O18   A    
C52   O17   A    
Cr4   O6    S    
C71   H41   S    
C14   C21   A    
C36   C37   A    
C9    C16   S    
C68   H23   S    
C55   H22   S    
C67   C72   A    
C5    C72   A    
C10   C15   A    
C4    O15   A    
C30   C31   A    
C2    H34   S    
Cr6   O2    S    
C40   O12   A    
C46   C52   S    
C49   C57   A    
H39   O26   S    
C18   C19   A    
C41   C42   A    
C24   C29   A    
C39   H14   S    
Cr2   O14   S    
C59   C67   S    
C22   C63   S    
C53   H19   S    
C69   H30   S    
C56   H12   S    
Cr1   O1    S    
C35   C36   A    
C19   O24   S    
C35   C62   S    
C18   O22   S    
Cr5   O8    S    
Cr1   O30   S    
Cr4   O31   S    
C65   O10   A    
Cr2   O30   S    
C25   C32   A    
C3    O21   S    
C45   O20   S    
Cr1   O4    S    
C64   H1    S    
C54   H21   S    
C36   C41   A    
C23   C60   S    
C70   O22   S    
C9    C73   A    
Cr5   O11   S    
C31   O26   S    
C69   H29   S    
C45   H26   S    
C60   O34   A    
Cr2   O19   S    
C51   H20   S    
C48   C53   A    
C57   H24   S    
C4    C34   S    
Cr3   O30   S    
C33   C40   S    
C13   C21   A    
C50   C58   A    
C47   C48   A    
C16   O16   A    
C38   C39   A    
C24   C25   A    
C71   O27   S    
C4    O14   A    
C66   O27   S    
C47   C51   A    
C50   C51   A    
Cr6   O3    S    
Cr3   O29   S    
C7    H46   S    
C14   H48   S    
Cr4   O5    S    
C63   O8    A    
C23   C68   S    
C27   H7    S    
C35   C39   A    
C43   C44   A    
C56   H28   S    
C29   C30   A    
C44   H17   S    
Cr5   O7    S    
C69   H31   S    
C26   C33   A    
C43   H16   S    
C32   H10   S    
Cr3   O23   S    
C17   H3    S    
Cr6   O11   S    
C45   C68   S    
C17   C18   A    
C26   C27   A    
C40   O23   A    
C34   C45   S    
C38   H11   S    
Cr4   O11   S    
C66   H9    S    
C16   O1    A    
C64   C66   S    
C12   C56   S    
C1    O13   A    
C70   H33   S    
C61   O3    A    
Cr4   O32   S    
Cr5   O33   S    
C23   C64   S    
Cr6   O10   S    
C22   C27   A    
C55   C57   A    
C69   O20   S    
C22   C24   A    
C10   C61   S    
C42   C43   A    
C12   O28   S    
C65   O5    A    
C62   O6    A    
C8    H47   S    
Cr1   O17   S    
C54   C55   A    
C48   C49   A    
C50   H18   S    
C13   C20   A    
C42   H15   S    
C71   H42   S    
C31   C32   A    
C3    C67   A    
C68   H25   S    
C72   C73   A    
C1    O4    A    
C11   C17   A    
C60   O2    A    
C15   H4    S    
C6    C7    A    
C28   C58   S    
C70   H36   S    
C52   O29   A    
C5    H44   S    
C28   O19   A    
C71   H40   S    
Cr2   O13   S    
C63   O9    A    
C62   O7    A    
C37   C44   A    
C20   H5    S    
C2    C3    A    
C37   C46   A    
Cr2   O12   S    
C61   O31   A    
C29   O25   S    
C12   H27   S    
C11   C13   A    
C59   O32   A    
C5    C6    A    
C26   H6    S    
C8    C73   A    
H38   O25   S    
C64   H2    S    
C38   C46   A    
C10   C11   A    
C49   C58   A    
Cr3   O16   S    
C41   H13   S    
Cr5   O34   S    
C14   C15   A    
C59   O33   A    
C30   H8    S    
H32   O21   S    
C2    C9    A    
C47   C65   S    
H37   O24   S    
C25   C33   A    
Cr3   O15   S    
