data_mof_unit_14819.cif
_audit_creation_date              2013-03-05T15:39:55-0500
_audit_creation_method            fapswitch 2.2
_symmetry_space_group_name_H-M    P1
_symmetry_Int_Tables_number       1
_space_group_crystal_system       triclinic
_cell_length_a                    12.118806
_cell_length_b                    12.500664
_cell_length_c                    7.878552
_cell_angle_alpha                 89.8481
_cell_angle_beta                  94.356886
_cell_angle_gamma                 89.752485
_cell_volume                      1190.08091003

loop_
_atom_site_label
_atom_site_type_symbol
_atom_site_description
_atom_site_fract_x
_atom_site_fract_y
_atom_site_fract_z
_atom_type_partial_charge
O1    O     O_R   0.375700 0.885870 0.609240 -0.603186
O2    O     O_R   0.624300 0.114130 0.390760 -0.603186
O3    O     O_R   0.624300 0.885870 0.390760 -0.594695
O4    O     O_R   0.375700 0.114130 0.609240 -0.594695
O5    O     O_R   0.875700 0.385870 0.609240 -0.603194
O6    O     O_R   0.124300 0.614130 0.390760 -0.603195
O7    O     O_R   0.124300 0.385870 0.390760 -0.594703
O8    O     O_R   0.875700 0.614130 0.609240 -0.594703
O9    O     O_R   0.402280 0.885870 0.324040 -0.619137
O10   O     O_R   0.597720 0.114130 0.675960 -0.619138
O11   O     O_R   0.597720 0.885870 0.675960 -0.593382
O12   O     O_R   0.402280 0.114130 0.324040 -0.593383
O13   O     O_R   0.902280 0.385870 0.324040 -0.619117
O14   O     O_R   0.097720 0.614130 0.675960 -0.619117
O15   O     O_R   0.097720 0.385870 0.675960 -0.593400
O16   O     O_R   0.902280 0.614130 0.324040 -0.593401
C1    C     C_R   0.356060 0.850685 0.456822 0.886053
C2    C     C_R   0.643939 0.149315 0.543178 0.886052
C3    C     C_R   0.644556 0.851222 0.543614 0.878395
C4    C     C_R   0.355445 0.148778 0.456386 0.878395
C5    C     C_R   0.856060 0.350685 0.456822 0.886042
C6    C     C_R   0.143940 0.649315 0.543178 0.886041
C7    C     C_R   0.144528 0.351196 0.543603 0.878406
C8    C     C_R   0.855472 0.648804 0.456397 0.878407
Zn1   Zn    Zn3+2 0.482250 0.000000 0.690430 1.067180
Zn2   Zn    Zn3+2 0.517750 0.000000 0.309570 1.067180
Zn3   Zn    Zn3+2 0.982250 0.500000 0.690430 1.067190
Zn4   Zn    Zn3+2 0.017750 0.500000 0.309570 1.067189
C9    C     C_2   0.277572 0.232402 0.433149 -0.004790
C10   C     C_2   0.722430 0.767601 0.566852 -0.004792
C11   C     C_2   0.726874 0.227997 0.567752 0.014609
C12   C     C_2   0.273125 0.772003 0.432247 0.014608
C13   C     C_2   0.777668 0.732489 0.433193 -0.004706
C14   C     C_2   0.222334 0.267513 0.566808 -0.004709
C15   C     C_2   0.226876 0.727996 0.567753 0.014622
C16   C     C_2   0.773124 0.272004 0.432247 0.014621
N1    N     N_2   0.541470 0.000000 0.055820 -0.054566
N2    N     N_2   0.458530 0.000000 0.944180 -0.054566
N3    N     N_2   0.041470 0.500000 0.055820 -0.054539
N4    N     N_2   0.958530 0.500000 0.944180 -0.054539
N5    N     N_R   0.762659 0.776089 0.263789 0.229436
O17   O     O_R   0.837575 0.838916 0.208846 -0.310871
O18   O     O_R   0.686456 0.737021 0.156548 -0.284818
N6    N     N_R   0.237345 0.223915 0.736213 0.229436
O19   O     O_R   0.162428 0.161090 0.791160 -0.310869
O20   O     O_R   0.313550 0.262982 0.843450 -0.284819
N7    N     N_R   0.261713 0.751876 0.741424 0.197674
O21   O     O_R   0.192026 0.797164 0.836614 -0.346146
O22   O     O_R   0.351811 0.708318 0.811265 -0.316639
N8    N     N_R   0.738287 0.248124 0.258576 0.197674
O23   O     O_R   0.807974 0.202836 0.163386 -0.346146
O24   O     O_R   0.648188 0.291683 0.188735 -0.316639
N9    N     N_R   0.262516 0.275957 0.263719 0.229438
O25   O     O_R   0.337457 0.338697 0.208632 -0.310826
O26   O     O_R   0.186219 0.236929 0.156598 -0.284798
N10   N     N_R   0.737487 0.724046 0.736283 0.229438
O27   O     O_R   0.662545 0.661307 0.791373 -0.310824
O28   O     O_R   0.813787 0.763073 0.843401 -0.284798
N11   N     N_R   0.761711 0.251878 0.741422 0.197674
O29   O     O_R   0.692024 0.297167 0.836610 -0.346212
O30   O     O_R   0.851809 0.208320 0.811266 -0.316564
N12   N     N_R   0.238289 0.748123 0.258577 0.197674
O31   O     O_R   0.307976 0.702833 0.163389 -0.346212
O32   O     O_R   0.148191 0.791681 0.188734 -0.316563
C17   C     C_3   0.647126 0.034461 0.006333 -0.220744
H1    H     H_    0.709108 0.021107 0.115099 0.218674
H2    H     H_    0.675195 0.987160 0.900243 0.202849
H3    H     H_    0.643808 0.120957 0.978122 0.254043
C18   C     C_3   0.352874 0.965539 0.993667 -0.220745
H4    H     H_    0.290892 0.978893 0.884901 0.218673
H5    H     H_    0.356191 0.879043 0.021878 0.254043
H6    H     H_    0.324806 0.012841 0.099756 0.202849
C19   C     C_3   0.147128 0.534452 0.006333 -0.220779
H7    H     H_    0.209109 0.521095 0.115100 0.218627
H8    H     H_    0.175193 0.487146 0.900249 0.202855
H9    H     H_    0.143818 0.620946 0.978118 0.254050
C20   C     C_3   0.852872 0.465549 0.993667 -0.220780
H10   H     H_    0.790890 0.478905 0.884900 0.218626
H11   H     H_    0.856181 0.379054 0.021883 0.254049
H12   H     H_    0.824807 0.512854 0.099750 0.202856

loop_
_geom_bond_atom_site_label_1
_geom_bond_atom_site_label_2
_geom_bond_distance
_ccdc_geom_bond_type
O16   Zn4   2.003629 S    
O2    C2    1.285449 A    
C19   H8    1.099085 S    
C19   H7    1.107593 S    
C15   N7    1.433530 S    
O4    Zn1   1.991416 S    
N7    O22   1.301329 A    
C5    C16   1.412469 S    
C20   H10   1.107593 S    
C6    C15   1.412469 S    
O11   C3    1.298906 A    
N12   O31   1.300195 A    
O11   Zn1   2.003630 S    
O6    C6    1.285449 A    
N10   O27   1.300980 A    
N5    O17   1.300970 A    
C11   N11   1.433526 S    
C18   H5    1.103235 S    
N12   O32   1.301330 A    
O5    Zn3   2.001812 S    
O6    Zn4   2.001811 S    
C17   H2    1.099108 S    
N1    C17   1.434153 S    
N8    O24   1.301331 A    
O13   Zn4   2.011792 S    
O3    C3    1.284336 A    
O14   Zn3   2.011791 S    
C17   H3    1.103238 S    
O15   C7    1.298919 A    
N2    C18   1.434150 S    
N11   O29   1.300195 A    
O16   C8    1.298918 A    
O1    Zn1   2.001812 S    
N5    O18   1.301049 A    
N6    O20   1.301051 A    
O9    Zn2   2.011792 S    
C4    C9    1.407512 S    
N9    O26   1.301059 A    
N11   O30   1.301329 A    
C12   C15   1.359042 D    
C14   N6    1.438696 S    
N3    N4    1.284367 D    
Zn4   N3    2.041244 S    
N9    O25   1.300978 A    
C10   N10   1.438708 S    
C9    C14   1.362603 D    
O7    Zn4   1.991417 S    
O12   Zn2   2.003629 S    
C18   H6    1.099104 S    
N1    N2    1.284367 D    
Zn1   N2    2.041244 S    
O15   Zn3   2.003630 S    
N7    O21   1.300199 A    
Zn3   N4    2.041244 S    
C7    C14   1.407517 S    
O12   C4    1.298907 A    
N8    O23   1.300199 A    
C20   H11   1.103221 S    
O13   C5    1.300118 A    
O2    Zn2   2.001811 S    
O10   Zn1   2.011791 S    
O9    C1    1.300118 A    
C19   H9    1.103223 S    
C16   N8    1.433531 S    
N6    O19   1.300970 A    
C20   H12   1.099082 S    
C1    C12   1.412467 S    
C10   C13   1.362603 D    
C11   C16   1.359042 D    
O3    Zn2   1.991417 S    
Zn2   N1    2.041244 S    
O1    C1    1.285449 A    
C8    C13   1.407519 S    
C13   N5    1.438695 S    
O14   C6    1.300119 A    
C12   N12   1.433527 S    
C9    N9    1.438708 S    
O10   C2    1.300119 A    
O7    C7    1.284326 A    
O8    C8    1.284326 A    
N10   O28   1.301059 A    
N3    C19   1.434144 S    
C18   H4    1.107593 S    
O4    C4    1.284336 A    
O5    C5    1.285449 A    
C17   H1    1.107593 S    
O8    Zn3   1.991416 S    
N4    C20   1.434143 S    
C2    C11   1.412466 S    
C3    C10   1.407512 S    
