data_mof_unit_15190.cif
_audit_creation_date              2012-12-10T18:32:01-0500
_audit_creation_method            fapswitch 2.2
_symmetry_space_group_name_H-M    P1
_symmetry_Int_Tables_number       1
_space_group_crystal_system       triclinic
_cell_length_a                    10.678262
_cell_length_b                    14.944179
_cell_length_c                    15.253103
_cell_angle_alpha                 82.285521
_cell_angle_beta                  89.613555
_cell_angle_gamma                 103.478573
_cell_volume                      2343.76597949

loop_
_atom_site_label
_atom_site_type_symbol
_atom_type_description
_atom_site_fract_x
_atom_site_fract_y
_atom_site_fract_z
_atom_type_partial_charge
C1    C     C_R   0.478789 0.442002 0.662936 0.865541
C2    C     C_R   0.395405 0.456038 0.896926 0.087058
C3    C     C_R   0.326433 0.363824 0.927687 0.071189
C4    C     C_R   0.742119 0.500993 0.497476 0.852581
C5    C     C_R   0.404752 0.526652 0.951191 0.061819
C6    C     C_R   0.369840 0.500939 0.041793 0.035714
C7    C     C_R   0.287535 0.411679 0.069955 0.080033
C8    C     C_R   0.268067 0.344311 0.012987 -0.213692
C9    C     C_R   0.448466 0.622173 0.918192 -0.219647
C10   C     C_R   0.476703 0.688351 0.975517 -0.199815
C11   C     C_R   0.473177 0.660102 0.066910 0.155424
C12   C     C_3   0.123005 0.502576 0.497201 0.046057
C13   C     C_R   0.423453 0.564763 0.099994 0.051746
C14   C     C_R   0.524976 0.723821 0.125355 0.103383
C15   C     C_R   0.538498 0.690248 0.214315 -0.221670
C16   C     C_R   0.514755 0.558235 0.337274 0.883335
C17   C     C_R   0.445313 0.533195 0.187513 -0.282740
C18   C     C_R   0.630398 0.824034 0.668226 -0.099046
C19   C     C_R   0.633235 0.745614 0.629291 -0.035908
C20   C     C_R   0.518348 0.794701 0.507147 -0.049807
C21   C     C_R   0.513927 0.877343 0.540708 -0.016256
C22   C     C_R   0.563756 0.889394 0.626375 0.060147
C23   C     C_3   0.068318 0.475175 0.407860 -0.493576
C24   C     C_R   0.460016 0.947044 0.492552 0.080744
C25   C     C_R   0.461845 0.029581 0.528693 0.069277
C26   C     C_R   0.485432 0.030121 0.619111 -0.251072
C27   C     C_R   0.538872 0.963517 0.667300 -0.009527
C28   C     C_R   0.258969 0.501243 0.497504 0.872166
C29   C     C_R   0.403662 0.936997 0.410020 -0.314900
C30   C     C_R   0.352492 0.006303 0.363563 0.122920
C31   C     C_R   0.367327 0.093001 0.394658 0.153506
C32   C     C_R   0.431334 0.106968 0.475239 -0.113093
C33   C     C_R   0.323484 0.167251 0.346984 0.020101
C34   C     C_3   0.103753 0.601485 0.508332 -0.033384
C35   C     C_R   0.352210 0.253689 0.376544 -0.077557
C36   C     C_R   0.468173 0.199426 0.496064 0.061497
C37   C     C_3   0.904265 0.427537 0.573816 -0.106701
C38   C     C_3   0.050267 0.429572 0.574957 -0.210036
C39   C     C_3   0.923146 0.475535 0.404645 0.005454
C40   C     C_3   0.960191 0.599844 0.508171 -0.452413
C41   C     C_3   0.879204 0.500928 0.496053 -0.000003
C42   C     C_1   0.901861 0.543234 0.329385 0.129626
C43   C     C_1   0.244603 0.199760 0.898359 0.145383
C44   C     C_1   0.557663 0.971637 0.759988 0.184697
C45   C     C_R   0.441439 0.408847 0.756323 -0.075277
C46   C     C_1   0.561065 0.226333 0.561557 0.236826
C47   C     C_1   0.697856 0.833648 0.749518 0.141162
C48   C     C_1   0.107105 0.445569 0.661689 0.194622
C49   C     C_1   0.850439 0.383067 0.386171 0.175245
C50   C     C_R   0.502629 0.594679 0.244561 -0.072565
C51   C     C_R   0.315177 0.294577 0.871123 0.023006
C52   C     C_R   0.370978 0.318082 0.785224 -0.210373
C53   C     C_R   0.458940 0.474895 0.814061 -0.227042
H1    H     H_    0.854658 0.357298 0.559478 0.180136
H2    H     H_    0.318742 0.310874 0.341336 0.133894
H3    H     H_    0.676437 0.692181 0.662563 0.133962
H4    H     H_    0.473298 0.775481 0.447494 0.137316
H5    H     H_    0.457770 0.081128 0.654350 0.153165
H6    H     H_    0.393990 0.874843 0.379787 0.138800
H7    H     H_    0.061452 0.359557 0.564024 0.142327
H8    H     H_    0.083412 0.405166 0.400260 0.178058
H9    H     H_    0.940133 0.652712 0.454915 0.192924
H10   H     H_    0.932373 0.621996 0.570681 0.172245
H11   H     H_    0.139696 0.618821 0.573904 0.169104
H12   H     H_    0.125527 0.522417 0.351442 0.169336
H13   H     H_    0.174920 0.739158 0.457960 0.183656
H14   H     H_    0.133632 0.670527 0.379003 0.198418
H15   H     H_    0.750886 0.422638 0.660513 0.189631
H16   H     H_    0.884347 0.504608 0.675806 0.195958
H17   H     H_    0.244908 0.349904 0.196880 0.155911
H18   H     H_    0.199967 0.452662 0.173659 0.198039
H19   H     H_    0.611082 0.857604 0.143901 0.188467
H20   H     H_    0.485895 0.846254 0.077312 0.183671
H21   H     H_    0.214177 0.930098 0.296051 0.185971
H22   H     H_    0.357211 0.972858 0.239500 0.185896
H23   H     H_    0.206176 0.276653 0.036156 0.169658
H24   H     H_    0.164023 0.175496 0.278471 0.188120
H25   H     H_    0.303039 0.201960 0.216112 0.188030
H26   H     H_    0.423392 0.459613 0.210738 0.167517
H27   H     H_    0.579548 0.738513 0.259340 0.153993
H28   H     H_    0.511237 0.760607 0.947492 0.184387
H29   H     H_    0.356427 0.266416 0.740358 0.159374
H30   H     H_    0.522238 0.542146 0.792748 0.152618
H31   H     H_    0.459292 0.647359 0.848107 0.154391
N1    N     N_R   0.573860 0.731700 0.552730 -0.108743
N2    N     N_1   0.634938 0.246942 0.614776 -0.227324
N3    N     N_3   0.290951 0.988549 0.282295 -0.420724
N4    N     N_1   0.752392 0.840635 0.814513 -0.174878
N5    N     N_1   0.151244 0.458179 0.729319 -0.193518
N6    N     N_3   0.250775 0.156394 0.268895 -0.425364
N7    N     N_1   0.793852 0.310843 0.371717 -0.194834
N8    N     N_R   0.426060 0.268290 0.447230 -0.119885
N9    N     N_3   0.176935 0.674321 0.440052 -0.451315
N10   N     N_1   0.885033 0.596174 0.270614 -0.206601
N11   N     N_1   0.188127 0.123805 0.920117 -0.183488
N12   N     N_3   0.851426 0.437259 0.660733 -0.427565
N13   N     N_3   0.206743 0.391819 0.149254 -0.454400
N14   N     N_3   0.567785 0.821453 0.093617 -0.447843
N15   N     N_1   0.571887 0.978697 0.834135 -0.185648
O1    O     O_R   0.462770 0.383110 0.605620 -0.611045
O2    O     O_R   0.510160 0.531900 0.639510 -0.621660
O3    O     O_R   0.661510 0.425600 0.483070 -0.609630
O4    O     O_R   0.708900 0.574390 0.516960 -0.622662
O5    O     O_R   0.489840 0.468100 0.360490 -0.619862
O6    O     O_R   0.537230 0.616890 0.394380 -0.618978
O7    O     O_R   0.291100 0.425610 0.483040 -0.637915
O8    O     O_R   0.338490 0.574400 0.516930 -0.597557
Zn1   Zn    Zn3+2 0.468350 0.400660 0.477370 0.950670
Zn2   Zn    Zn3+2 0.531650 0.599340 0.522630 0.941638

loop_
_geom_bond_atom_site_label_1
_geom_bond_atom_site_label_2
_ccdc_geom_bond_type
C19   H3    S    
C34   N9    S    
C17   H26   S    
H16   N12   S    
C43   C51   S    
C18   C47   S    
C7    C8    A    
C39   C41   S    
H19   N14   S    
H25   N6    S    
H18   N13   S    
C12   C23   S    
C26   C27   A    
C29   C30   A    
C40   H10   S    
C12   C28   S    
C34   C40   S    
C32   C36   A    
C16   C50   S    
N1    Zn2   S    
C30   C31   A    
C11   C14   A    
C4    C41   S    
C28   O8    A    
O2    Zn2   S    
C4    O4    A    
C8    H23   S    
C40   H9    S    
C18   C19   A    
C15   C50   A    
C24   C29   A    
C33   C35   A    
C27   C44   S    
N8    Zn1   S    
C29   H6    S    
C28   O7    A    
C4    O3    A    
C43   N11   T    
C31   C33   A    
C36   C46   S    
H21   N3    S    
C9    C10   A    
C38   C48   S    
H17   N13   S    
C35   N8    A    
C36   N8    A    
C25   C32   A    
O4    Zn2   S    
C45   C53   A    
C18   C22   A    
C21   C22   A    
C12   C38   S    
O8    Zn2   S    
C49   N7    T    
C1    O1    A    
C16   O5    A    
C14   N14   S    
C39   C42   S    
H20   N14   S    
H24   N6    S    
O3    Zn1   S    
O1    Zn1   S    
C35   H2    S    
C51   C52   A    
C24   C25   A    
C3    C8    A    
C3    C51   A    
C45   C52   A    
C25   C26   A    
C37   N12   S    
C5    C9    A    
C37   C38   S    
C15   H27   S    
C20   N1    A    
C34   H11   S    
H15   N12   S    
C52   H29   S    
C26   H5    S    
C16   O6    A    
H13   N9    S    
C38   H7    S    
C37   H1    S    
H22   N3    S    
C40   C41   S    
C39   C49   S    
C22   C27   A    
C2    C5    A    
C12   C34   S    
C1    O2    A    
O5    Zn1   S    
O6    Zn2   S    
C7    N13   S    
C42   N10   T    
C31   C32   A    
C19   N1    A    
C2    C53   A    
C17   C50   A    
C6    C7    A    
C10   H28   S    
C13   C17   A    
C48   N5    T    
C47   N4    T    
C23   H12   S    
C2    C3    A    
C20   H4    S    
C33   N6    S    
C6    C13   A    
C11   C13   A    
C1    C45   S    
C5    C6    A    
O7    Zn1   S    
C23   C39   S    
C53   H30   S    
C44   N15   T    
C37   C41   S    
C10   C11   A    
C9    H31   S    
C23   H8    S    
C20   C21   A    
C21   C24   A    
H14   N9    S    
C14   C15   A    
C30   N3    S    
C46   N2    T    
