data_mof_unit_24220.cif
_audit_creation_date              2012-12-10T16:41:54-0500
_audit_creation_method            fapswitch 2.2
_symmetry_space_group_name_H-M    P1
_symmetry_Int_Tables_number       1
_space_group_crystal_system       triclinic
_cell_length_a                    10.921629
_cell_length_b                    8.688744
_cell_length_c                    7.50655
_cell_angle_alpha                 102.749701
_cell_angle_beta                  95.073743
_cell_angle_gamma                 93.194976
_cell_volume                      689.970648027

loop_
_atom_site_label
_atom_site_type_symbol
_atom_type_description
_atom_site_fract_x
_atom_site_fract_y
_atom_site_fract_z
_atom_type_partial_charge
C1    C     C_R   0.496488 0.200118 0.454096 0.874206
C2    C     C_2   0.532502 0.966546 0.566616 0.322434
C3    C     C_R   0.265654 0.501324 0.500411 0.733372
C4    C     C_R   0.508454 0.799638 0.545643 0.743634
C5    C     C_R   0.733915 0.494473 0.498648 0.842456
C6    C     C_2   0.923450 0.458472 0.348688 0.557756
C7    C     C_2   0.862858 0.465702 0.497093 -0.392496
C8    C     C_2   0.054089 0.429260 0.362597 -0.015753
C9    C     C_2   0.133848 0.520375 0.499497 0.285654
C10   C     C_2   0.486960 0.032320 0.432344 -0.484840
Cu1   Cu    Cu3+1 0.513740 0.517380 0.684380 1.019283
Cu2   Cu    Cu3+1 0.486260 0.482620 0.315620 0.997564
H1    H     H_    0.908856 0.441555 0.621533 0.149054
H2    H     H_    0.436546 0.961699 0.306767 0.135366
N1    N     N_2   0.465540 0.456420 0.038510 0.152611
N2    N     N_2   0.534460 0.543580 0.961490 -0.002143
O1    O     O_R   0.508930 0.286130 0.619780 -0.507254
O2    O     O_R   0.485720 0.256780 0.308360 -0.633411
O3    O     O_R   0.333540 0.514670 0.655670 -0.516769
O4    O     O_R   0.310330 0.485320 0.344250 -0.603872
O5    O     O_R   0.514280 0.743220 0.691640 -0.584367
O6    O     O_R   0.491070 0.713870 0.380220 -0.591819
O7    O     O_R   0.689670 0.514680 0.655750 -0.610912
O8    O     O_R   0.666460 0.485330 0.344330 -0.530161
O9    O     O_3   0.869137 0.495903 0.191142 -0.573288
C11   C     C_3   0.838855 0.355913 0.054299 -0.227446
H3    H     H_    0.801575 0.255951 0.109885 0.149200
H4    H     H_    0.919606 0.322253 0.978550 0.167901
H5    H     H_    0.765836 0.378397 0.953030 0.203609
N3    N     N_3   0.092076 0.302876 0.225414 -0.642238
H6    H     H_    0.139169 0.351102 0.132922 0.266752
H7    H     H_    0.147973 0.231785 0.287922 0.196880
O10   O     O_3   0.090131 0.634291 0.635500 -0.583887
C12   C     C_3   0.152392 0.783991 0.649195 -0.306844
H8    H     H_    0.158904 0.811484 0.512023 0.143347
H9    H     H_    0.245472 0.792537 0.725051 0.173461
H10   H     H_    0.099382 0.875781 0.728809 0.181736
O11   O     O_3   0.608064 0.051917 0.718498 -0.572953
C13   C     C_3   0.731554 0.024263 0.687710 -0.310961
H11   H     H_    0.761906 0.086573 0.582783 0.154451
H12   H     H_    0.746347 0.895925 0.646612 0.158981
H13   H     H_    0.791410 0.071061 0.817056 0.166577
O12   O     O_3   0.370267 0.374418 0.924461 -0.459867
C14   C     C_3   0.361438 0.219546 0.950985 -0.104790
H14   H     H_    0.313283 0.214089 0.073188 0.143360
H15   H     H_    0.453088 0.170222 0.959321 0.191606
H16   H     H_    0.304874 0.142952 0.830620 0.102551
N4    N     N_3   0.617339 0.655409 0.078350 -0.409037
H17   H     H_    0.589865 0.766269 0.066417 0.208978
H18   H     H_    0.702389 0.645006 0.025366 0.242327

loop_
_geom_bond_atom_site_label_1
_geom_bond_atom_site_label_2
_ccdc_geom_bond_type
C2    C4    S    
O12   C14   S    
Cu2   N1    S    
C3    O3    A    
C6    C7    D    
C3    C9    S    
C12   H10   S    
C4    O6    A    
Cu1   N2    S    
C2    O11   S    
C11   H4    S    
C5    O7    A    
C14   H16   S    
Cu1   Cu2   S    
C8    N3    S    
Cu2   O4    S    
N4    H18   S    
O10   C12   S    
C1    O2    A    
N1    O12   S    
C3    O4    A    
C13   H12   S    
C14   H14   S    
N3    H7    S    
C4    O5    A    
Cu1   O3    S    
C11   H3    S    
N3    H6    S    
C5    O8    A    
C9    O10   S    
Cu1   O7    S    
N4    H17   S    
C14   H15   S    
C13   H13   S    
C12   H9    S    
O11   C13   S    
C6    O9    S    
N1    N2    D    
C2    C10   D    
Cu2   O6    S    
C7    H1    S    
N2    N4    S    
C11   H5    S    
C12   H8    S    
C10   H2    S    
Cu2   O2    S    
C13   H11   S    
C5    C7    S    
Cu2   O8    S    
Cu1   O1    S    
C6    C8    S    
O9    C11   S    
C1    O1    A    
Cu1   O5    S    
C1    C10   S    
C8    C9    D    
