data_mof_unit_7136.cif
_audit_creation_date              2012-12-11T15:18:00-0500
_audit_creation_method            fapswitch 2.2
_symmetry_space_group_name_H-M    P1
_symmetry_Int_Tables_number       1
_space_group_crystal_system       triclinic
_cell_length_a                    15.747027
_cell_length_b                    15.747268
_cell_length_c                    34.539424
_cell_angle_alpha                 90.004226
_cell_angle_beta                  90.000908
_cell_angle_gamma                 120.000476
_cell_volume                      7417.32704236

loop_
_atom_site_label
_atom_site_type_symbol
_atom_type_description
_atom_site_fract_x
_atom_site_fract_y
_atom_site_fract_z
_atom_type_partial_charge
C1    C     C_R   0.578686 0.441175 0.555103 0.563905
C2    C     C_R   0.501515 0.980392 0.212576 0.398275
C3    C     C_R   0.478739 0.498544 0.212601 0.398334
C4    C     C_R   0.019293 0.520739 0.212530 0.398333
C5    C     C_R   0.001213 0.441079 0.852336 -0.090734
C6    C     C_R   0.558922 0.560044 0.852353 -0.090642
C7    C     C_R   0.440008 0.998946 0.852383 -0.090676
C8    C     C_R   0.441098 0.001157 0.352342 -0.090739
C9    C     C_R   0.560037 0.558919 0.352357 -0.090680
C10   C     C_R   0.998849 0.439905 0.352364 -0.090696
C11   C     C_R   0.033507 0.447822 0.890422 0.231295
C12   C     C_R   0.558825 0.137503 0.555095 0.563923
C13   C     C_R   0.552170 0.585667 0.890426 0.231309
C14   C     C_R   0.414585 0.966769 0.890488 0.231329
C15   C     C_R   0.447835 0.033480 0.390424 0.231287
C16   C     C_R   0.585661 0.552167 0.390429 0.231304
C17   C     C_R   0.966643 0.414456 0.390465 0.231311
C18   C     C_R   0.079741 0.619835 0.891084 -0.119329
C19   C     C_R   0.380155 0.459846 0.891093 -0.119244
C20   C     C_R   0.539757 0.919705 0.890990 -0.119309
C21   C     C_R   0.619861 0.079736 0.391087 -0.119316
C22   C     C_R   0.459851 0.380149 0.391092 -0.119256
C23   C     C_R   0.862501 0.421324 0.555098 0.563925
C24   C     C_R   0.919921 0.539869 0.391022 -0.119303
C25   C     C_R   0.047484 0.612949 0.853057 0.236290
C26   C     C_R   0.387051 0.434415 0.853077 0.236328
C27   C     C_R   0.565030 0.951870 0.852953 0.236273
C28   C     C_R   0.612982 0.047457 0.353064 0.236296
C29   C     C_R   0.434419 0.387046 0.353076 0.236327
C30   C     C_R   0.952119 0.565166 0.352988 0.236295
C31   C     C_R   0.012668 0.524174 0.832685 -0.006612
C32   C     C_R   0.475831 0.488345 0.832712 -0.006622
C33   C     C_R   0.511272 0.987023 0.832646 -0.006624
C34   C     C_R   0.441174 0.578688 0.055103 0.563911
C35   C     C_R   0.524201 0.012608 0.332695 -0.006608
C36   C     C_R   0.488343 0.475828 0.332713 -0.006625
C37   C     C_R   0.987114 0.511307 0.332656 -0.006635
C38   C     C_R   0.078476 0.539511 0.909460 -0.020357
C39   C     C_R   0.460479 0.538943 0.909463 -0.020414
C40   C     C_R   0.461033 0.921440 0.909451 -0.020282
C41   C     C_R   0.539525 0.078467 0.409461 -0.020368
C42   C     C_R   0.538943 0.460475 0.409463 -0.020409
C43   C     C_R   0.921467 0.461022 0.409454 -0.020323
C44   C     C_R   0.577728 0.442292 0.445535 0.580685
C45   C     C_R   0.137504 0.558829 0.055096 0.563920
C46   C     C_R   0.557701 0.135426 0.445536 0.580695
C47   C     C_R   0.864579 0.422278 0.445540 0.580778
C48   C     C_R   0.442294 0.577728 0.945535 0.580674
C49   C     C_R   0.135425 0.557698 0.945537 0.580687
C50   C     C_R   0.422282 0.864578 0.945541 0.580828
C51   C     C_R   0.914702 0.454486 0.592207 -0.060937
C52   C     C_R   0.545575 0.460191 0.592227 -0.060937
C53   C     C_R   0.539788 0.085303 0.592196 -0.060909
C54   C     C_R   0.454457 0.914675 0.092215 -0.060934
C55   C     C_R   0.460186 0.545582 0.092229 -0.060932
C56   C     C_R   0.421321 0.862499 0.055100 0.563948
C57   C     C_R   0.085312 0.539815 0.092199 -0.060909
C58   C     C_R   0.941705 0.394505 0.612475 -0.087152
C59   C     C_R   0.605691 0.547064 0.612542 -0.087194
C60   C     C_R   0.452662 0.058020 0.612406 -0.087130
C61   C     C_R   0.394386 0.941524 0.112509 -0.087155
C62   C     C_R   0.547056 0.605703 0.112545 -0.087192
C63   C     C_R   0.057946 0.452663 0.112400 -0.087124
C64   C     C_R   0.968734 0.412763 0.651333 0.211455
C65   C     C_R   0.587462 0.555760 0.651409 0.211382
C66   C     C_R   0.443807 0.030929 0.651255 0.211406
C67   C     C_R   0.980520 0.501534 0.712559 0.398250
C68   C     C_R   0.412627 0.968500 0.151372 0.211450
C69   C     C_R   0.555748 0.587477 0.151412 0.211364
C70   C     C_R   0.030865 0.443819 0.151251 0.211426
C71   C     C_R   0.969366 0.492273 0.670388 0.035035
C72   C     C_R   0.507839 0.476924 0.670429 0.035033
C73   C     C_R   0.522741 0.030526 0.670359 0.035079
C74   C     C_R   0.492221 0.969250 0.170405 0.035019
C75   C     C_R   0.476912 0.507853 0.170431 0.035036
C76   C     C_R   0.030565 0.522797 0.170367 0.035073
C77   C     C_R   0.950160 0.557310 0.649162 0.208489
C78   C     C_R   0.498535 0.478751 0.712599 0.398332
C79   C     C_R   0.442679 0.392807 0.649161 0.208450
C80   C     C_R   0.607168 0.050056 0.649195 0.208407
C81   C     C_R   0.557338 0.950200 0.149155 0.208501
C82   C     C_R   0.392797 0.442691 0.149162 0.208437
C83   C     C_R   0.050184 0.607261 0.149210 0.208403
C84   C     C_R   0.923447 0.538274 0.610293 -0.097241
C85   C     C_R   0.461695 0.385199 0.610282 -0.097205
C86   C     C_R   0.614928 0.076818 0.610333 -0.097261
C87   C     C_R   0.538309 0.923526 0.110282 -0.097233
C88   C     C_R   0.385192 0.461704 0.110283 -0.097201
C89   C     C_R   0.520681 0.019234 0.712521 0.398359
C90   C     C_R   0.076923 0.615003 0.110347 -0.097271
C91   C     C_R   0.996751 0.518124 0.790565 0.368535
C92   C     C_R   0.481880 0.478414 0.790600 0.368628
C93   C     C_R   0.520986 0.002885 0.790519 0.368532
C94   C     C_R   0.518153 0.996667 0.290578 0.368565
C95   C     C_R   0.478409 0.481881 0.290601 0.368622
C96   C     C_R   0.002985 0.521050 0.290530 0.368512
Cl1   Cl    Cl    0.018495 0.339818 0.912116 -0.450783
Cl2   Cl    Cl    0.332227 0.998149 0.175524 -0.398722
Cl3   Cl    Cl    0.665748 0.667918 0.175585 -0.399028
Cl4   Cl    Cl    0.000487 0.333447 0.175288 -0.399118
Cl5   Cl    Cl    0.947754 0.657223 0.671056 -0.399068
Cl6   Cl    Cl    0.342606 0.290558 0.671009 -0.399390
Cl7   Cl    Cl    0.709580 0.052815 0.671166 -0.399429
Cl8   Cl    Cl    0.657361 0.947956 0.171022 -0.399027
Cl9   Cl    Cl    0.290546 0.342619 0.171010 -0.399470
Cl10  Cl    Cl    0.053094 0.709735 0.171193 -0.399360
Cl11  Cl    Cl    0.053228 0.717912 0.832240 -0.397458
Cl12  Cl    Cl    0.660165 0.678764 0.912099 -0.450655
Cl13  Cl    Cl    0.282094 0.335180 0.832255 -0.397294
Cl14  Cl    Cl    0.663874 0.945565 0.832055 -0.397352
Cl15  Cl    Cl    0.717958 0.053228 0.332241 -0.397373
Cl16  Cl    Cl    0.335187 0.282087 0.332252 -0.397285
Cl17  Cl    Cl    0.946053 0.664164 0.332120 -0.397287
Cl18  Cl    Cl    0.322118 0.982411 0.912318 -0.450823
Cl19  Cl    Cl    0.339824 0.018477 0.412114 -0.450742
Cl20  Cl    Cl    0.678748 0.660165 0.412105 -0.450667
Cl21  Cl    Cl    0.982044 0.321797 0.412249 -0.450793
Cl22  Cl    Cl    0.998605 0.332488 0.675450 -0.398858
Cl23  Cl    Cl    0.667899 0.665762 0.675582 -0.398917
Cl24  Cl    Cl    0.333479 0.000674 0.675303 -0.399122
Cr1   Cr    Cr6+3 0.522350 0.263930 0.500020 1.103692
Cr2   Cr    Cr6+3 0.736070 0.258420 0.500020 1.103635
Cr3   Cr    Cr6+3 0.741580 0.477650 0.500020 1.103686
Cr4   Cr    Cr6+3 0.263930 0.522350 0.000020 1.103702
Cr5   Cr    Cr6+3 0.258420 0.736070 0.000020 1.103602
Cr6   Cr    Cr6+3 0.477650 0.741580 0.000020 1.103693
H1    H     H_    0.936662 0.330208 0.598809 0.194232
H2    H     H_    0.585711 0.903346 0.094996 0.183288
H3    H     H_    0.317647 0.414262 0.094984 0.183349
H4    H     H_    0.097533 0.682783 0.095141 0.183308
H5    H     H_    0.972099 0.371545 0.837373 0.207627
H6    H     H_    0.628452 0.600461 0.837389 0.207678
H7    H     H_    0.399778 0.028357 0.837481 0.207620
H8    H     H_    0.371564 0.972026 0.337379 0.207625
H9    H     H_    0.600449 0.628452 0.337395 0.207656
H10   H     H_    0.028126 0.399586 0.337443 0.207654
H11   H     H_    0.110915 0.690259 0.905494 0.197426
H12   H     H_    0.670067 0.606276 0.598903 0.194229
H13   H     H_    0.309725 0.420613 0.905497 0.197584
H14   H     H_    0.578792 0.888221 0.905338 0.197660
H15   H     H_    0.690289 0.110932 0.405495 0.197488
H16   H     H_    0.420622 0.309717 0.405493 0.197580
H17   H     H_    0.888563 0.578992 0.405390 0.197631
H18   H     H_    0.393341 0.062865 0.598696 0.194245
H19   H     H_    0.330030 0.936389 0.098861 0.194237
H20   H     H_    0.606268 0.670079 0.098906 0.194234
H21   H     H_    0.062714 0.393305 0.098682 0.194242
H22   H     H_    0.903149 0.585608 0.595029 0.183292
H23   H     H_    0.414255 0.317652 0.594983 0.183339
H24   H     H_    0.682683 0.097359 0.595120 0.183318
N1    N     N_R   0.930627 0.432123 0.773881 -0.183016
N2    N     N_R   0.424223 0.922010 0.235596 -0.131681
N3    N     N_R   0.497579 0.575798 0.235635 -0.131801
N4    N     N_R   0.077409 0.501453 0.235546 -0.131669
N5    N     N_R   0.046827 0.587462 0.729119 -0.114052
N6    N     N_R   0.412667 0.459384 0.729138 -0.114141
N7    N     N_R   0.540306 0.952916 0.729057 -0.114183
N8    N     N_R   0.587409 0.046836 0.229124 -0.114076
N9    N     N_R   0.459375 0.412676 0.229136 -0.114170
N10   N     N_R   0.953072 0.540493 0.229078 -0.114174
N11   N     N_R   0.055147 0.595329 0.767444 -0.108520
N12   N     N_R   0.567821 0.498031 0.773939 -0.182951
N13   N     N_R   0.404768 0.459843 0.767461 -0.108664
N14   N     N_R   0.539818 0.944533 0.767377 -0.108357
N15   N     N_R   0.595301 0.055177 0.267448 -0.108598
N16   N     N_R   0.459838 0.404773 0.267459 -0.108672
N17   N     N_R   0.944708 0.540008 0.267399 -0.108367
N18   N     N_R   0.501067 0.068998 0.773856 -0.183115
N19   N     N_R   0.432188 0.930403 0.273906 -0.182963
N20   N     N_R   0.498022 0.567822 0.273944 -0.182966
N21   N     N_R   0.069002 0.501006 0.273856 -0.183099
N22   N     N_R   0.922256 0.424181 0.735570 -0.131664
N23   N     N_R   0.575793 0.497591 0.735629 -0.131785
N24   N     N_R   0.501516 0.077424 0.735548 -0.131699
O1    O     O_R   0.498680 0.159540 0.541860 -0.499643
O2    O     O_R   0.358060 0.532760 0.040030 -0.503237
O3    O     O_R   0.174700 0.641940 0.040030 -0.503334
O4    O     O_R   0.467240 0.825300 0.040030 -0.503260
O5    O     O_R   0.498590 0.161190 0.456930 -0.444094
O6    O     O_R   0.838810 0.337400 0.456930 -0.444144
O7    O     O_R   0.662600 0.501410 0.456930 -0.444110
O8    O     O_R   0.161190 0.498590 0.956930 -0.444095
O9    O     O_R   0.337400 0.838810 0.956930 -0.444174
O10   O     O_R   0.501410 0.662600 0.956930 -0.444140
O11   O     O_R   0.532680 0.359580 0.461300 -0.512581
O12   O     O_R   0.840460 0.339140 0.541860 -0.499649
O13   O     O_R   0.640420 0.173100 0.461300 -0.512625
O14   O     O_R   0.826900 0.467320 0.461300 -0.512591
O15   O     O_R   0.359580 0.532680 0.961300 -0.512575
O16   O     O_R   0.173100 0.640420 0.961300 -0.512642
O17   O     O_R   0.467320 0.826900 0.961300 -0.512608
O18   O     O_3   0.666667 0.333333 0.499990 -0.284369
O19   O     O_3   0.333333 0.666667 0.999990 -0.284376
O20   O     O_R   0.660860 0.501320 0.541860 -0.499668
O21   O     O_R   0.159540 0.498680 0.041860 -0.499615
O22   O     O_R   0.339140 0.840460 0.041860 -0.499657
O23   O     O_R   0.501320 0.660860 0.041860 -0.499658
O24   O     O_R   0.532760 0.358060 0.540030 -0.503244
O25   O     O_R   0.641940 0.174700 0.540030 -0.503305
O26   O     O_R   0.825300 0.467240 0.540030 -0.503280

loop_
_geom_bond_atom_site_label_1
_geom_bond_atom_site_label_2
_ccdc_geom_bond_type
C25   C31   A    
C6    C32   A    
C26   C32   A    
C22   C29   A    
C16   C42   A    
Cr5   O9    S    
C29   Cl16  S    
C77   Cl5   S    
C1    O24   A    
C34   O23   A    
C79   C85   A    
Cr1   O18   S    
Cr1   O5    S    
C38   C49   S    
C56   O4    A    
N5    N11   A    
Cr2   O6    S    
C29   C36   A    
C45   C57   S    
C58   H1    S    
C10   C37   A    
C88   H3    S    
C52   C85   A    
C9    C16   A    
C10   H10   S    
C4    N4    A    
C7    H7    S    
C72   C79   A    
C62   H20   S    
C86   H24   S    
C94   N19   A    
C54   C87   A    
C20   C40   A    
C82   C88   A    
Cr2   O12   S    
C24   H17   S    
C68   C74   A    
C55   C62   A    
C3    N3    A    
C64   Cl22  S    
C76   C83   A    
C67   N5    A    
C64   C71   A    
C55   C88   A    
C83   C90   A    
C19   C26   A    
C61   H19   S    
Cr4   O15   S    
C80   C86   A    
C56   O22   A    
Cr6   O10   S    
C12   O25   A    
C7    C14   A    
C50   O9    A    
C93   N18   A    
C96   N21   A    
Cr4   O19   S    
C59   H12   S    
C9    C36   A    
C72   C78   S    
C41   C46   S    
C79   Cl6   S    
Cr6   O4    S    
C53   C86   A    
C4    N10   A    
C46   O13   A    
C3    C75   S    
C12   C53   S    
C2    C74   S    
C17   Cl21  S    
C44   O11   A    
C60   C66   A    
C34   C55   S    
C66   Cl24  S    
C3    N9    A    
C7    C33   A    
C18   C25   A    
C42   C44   S    
C89   N24   A    
N10   N17   A    
C13   Cl12  S    
Cr6   O19   S    
C16   Cl20  S    
C94   N15   A    
C63   H21   S    
C87   H2    S    
C1    C52   S    
C53   C60   A    
C70   Cl4   S    
C57   C63   A    
C85   H23   S    
C84   H22   S    
C28   Cl15  S    
C58   C64   A    
C54   C56   S    
C91   N1    A    
C4    C76   S    
C57   C90   A    
C80   Cl7   S    
C8    H8    S    
C62   C69   A    
Cr3   O26   S    
N6    N13   A    
C6    H6    S    
N12   N23   A    
C49   O16   A    
C93   N14   A    
C14   Cl18  S    
C66   C73   A    
Cr1   O11   S    
C23   O26   A    
C27   C33   A    
N1    N22   A    
C37   C96   S    
C8    C35   A    
N3    N20   A    
C18   H11   S    
N18   N24   A    
C17   C43   A    
Cr4   O8    S    
C47   O6    A    
C52   C59   A    
C78   N23   A    
C23   C51   S    
N7    N14   A    
C63   C70   A    
Cr5   O19   S    
C2    N8    A    
C22   H16   S    
C2    N2    A    
C65   Cl23  S    
C96   N17   A    
Cr3   O20   S    
C51   C58   A    
C81   C87   A    
Cr2   O18   S    
C50   O17   A    
C26   Cl13  S    
C15   C41   A    
C48   O15   A    
Cr5   O16   S    
C19   C39   A    
C12   O1    A    
C21   C41   A    
C9    H9    S    
Cr6   O23   S    
C19   H13   S    
C54   C61   A    
C21   C28   A    
C8    C15   A    
C31   C91   S    
C5    C11   A    
Cr5   O3    S    
Cr2   O25   S    
C15   Cl19  S    
C24   C30   A    
C74   C81   A    
C95   N16   A    
C69   Cl3   S    
C71   C77   A    
C92   N13   A    
C48   O10   A    
C35   C94   S    
C92   N12   A    
C28   C35   A    
C82   Cl9   S    
C61   C68   A    
C59   C65   A    
C45   O21   A    
C33   C93   S    
C77   C84   A    
C23   O12   A    
N9    N16   A    
C75   C82   A    
C89   N7    A    
Cr4   O2    S    
C20   C27   A    
C45   O3    A    
C67   N22   A    
C65   C72   A    
C27   Cl14  S    
C83   Cl10  S    
C11   Cl1   S    
C20   H14   S    
C1    O20   A    
Cr5   O22   S    
C73   C89   S    
Cr3   O7    S    
C46   O5    A    
C6    C13   A    
C70   C76   A    
N2    N19   A    
C36   C95   S    
C78   N6    A    
Cr2   O13   S    
Cr1   O1    S    
C40   C50   S    
C44   O7    A    
Cr4   O21   S    
C73   C80   A    
N4    N21   A    
C69   C75   A    
C67   C71   S    
C18   C38   A    
Cr6   O17   S    
C95   N20   A    
C68   Cl2   S    
Cr1   O24   S    
C13   C39   A    
C34   O2    A    
C32   C92   S    
C14   C40   A    
C49   O8    A    
C90   H4    S    
C5    H5    S    
C30   C37   A    
C21   H15   S    
Cr3   O14   S    
C22   C42   A    
C47   O14   A    
C24   C43   A    
C91   N11   A    
C11   C38   A    
C10   C17   A    
Cr3   O18   S    
C43   C47   S    
C51   C84   A    
C81   Cl8   S    
C25   Cl11  S    
C60   H18   S    
N8    N15   A    
C39   C48   S    
C5    C31   A    
C30   Cl17  S    
