data_mof_unit_52196.cif
_audit_creation_date              2012-12-10T16:58:31-0500
_audit_creation_method            fapswitch 2.2
_symmetry_space_group_name_H-M    P1
_symmetry_Int_Tables_number       1
_space_group_crystal_system       triclinic
_cell_length_a                    7.739591
_cell_length_b                    8.5471
_cell_length_c                    23.393093
_cell_angle_alpha                 90.754126
_cell_angle_beta                  86.020326
_cell_angle_gamma                 93.749254
_cell_volume                      1540.38471049

loop_
_atom_site_label
_atom_site_type_symbol
_atom_type_description
_atom_site_fract_x
_atom_site_fract_y
_atom_site_fract_z
_atom_type_partial_charge
C1    C     C_R   0.545963 0.794868 0.498713 0.949191
C2    C     C_R   0.336794 0.458675 0.300528 0.449380
C3    C     C_R   0.387305 0.595809 0.765754 0.403280
C4    C     C_R   0.330932 0.481016 0.241677 0.410801
C5    C     C_R   0.524923 0.527412 0.790938 0.114370
C6    C     C_R   0.486423 0.525030 0.208801 0.113240
C7    C     C_2   0.570220 0.958412 0.498184 -0.375952
C8    C     C_2   0.429752 0.041636 0.503058 -0.397930
C9    C     C_R   0.503245 0.504204 0.610528 0.912395
C10   C     C_R   0.497126 0.498282 0.389390 0.913872
C11   C     C_R   0.466469 0.386678 0.119110 0.524623
C12   C     C_R   0.454040 0.205145 0.501729 0.956888
C13   C     C_R   0.573386 0.662412 0.879826 0.527171
C14   C     C_R   0.531356 0.664373 0.119640 0.511589
C15   C     C_R   0.493278 0.387086 0.879619 0.516378
C16   C     C_R   0.546255 0.666393 0.059821 -0.016694
C17   C     C_R   0.489776 0.383397 0.939283 -0.015399
C18   C     C_R   0.515497 0.524767 0.029591 -0.020046
C19   C     C_R   0.525094 0.524404 0.969434 -0.021524
C20   C     C_R   0.474274 0.383590 0.059368 -0.018323
C21   C     C_R   0.568393 0.665257 0.939592 -0.022048
C22   C     C_R   0.590790 0.805865 0.029711 -0.166243
C23   C     C_R   0.655117 0.458542 0.756948 -0.103969
C24   C     C_R   0.448792 0.243362 0.969349 -0.163496
C25   C     C_R   0.602632 0.805164 0.970057 -0.162525
C26   C     C_R   0.441903 0.243340 0.028925 -0.165923
C27   C     C_3   0.319378 0.817256 0.658210 0.097937
C28   C     C_3   0.296146 0.949878 0.702213 -0.291303
C29   C     C_3   0.347648 0.109778 0.675593 -0.924609
C30   C     C_3   0.200563 0.240178 0.343630 0.083238
C31   C     C_3   0.130980 0.135907 0.295420 -0.299250
C32   C     C_3   0.125947 0.962538 0.310870 -0.905760
C33   C     C_R   0.641322 0.556675 0.235275 -0.122543
C34   C     C_R   0.647943 0.452604 0.698051 -0.282096
C35   C     C_R   0.643629 0.547069 0.294129 -0.262840
C36   C     C_R   0.512118 0.518712 0.672372 -0.261925
C37   C     C_R   0.491925 0.500078 0.327239 -0.265739
C38   C     C_R   0.386526 0.598616 0.706163 0.444179
H1    H     H_    0.616893 0.915662 0.052099 0.194872
H2    H     H_    0.297204 0.990335 0.507841 0.175454
H3    H     H_    0.013984 0.382452 0.457177 0.198789
H4    H     H_    0.986046 0.617462 0.542979 0.196008
H5    H     H_    0.242461 0.839824 0.621136 0.169629
H6    H     H_    0.457713 0.818662 0.641051 0.098899
H7    H     H_    0.158216 0.947389 0.719147 0.257262
H8    H     H_    0.378171 0.932978 0.738500 0.264888
H9    H     H_    0.486081 0.115878 0.659170 0.261394
H10   H     H_    0.329608 0.203037 0.708563 0.290412
H11   H     H_    0.265377 0.131414 0.639798 0.258763
H12   H     H_    0.420974 0.133776 0.947010 0.195388
H13   H     H_    0.119378 0.212932 0.383671 0.152102
H14   H     H_    0.334771 0.210291 0.351957 0.106245
H15   H     H_    0.997798 0.167405 0.287308 0.254709
H16   H     H_    0.215639 0.155022 0.255494 0.268901
H17   H     H_    0.258344 0.927985 0.318432 0.270737
H18   H     H_    0.076025 0.890167 0.275067 0.284113
H19   H     H_    0.038869 0.938827 0.349993 0.257651
H20   H     H_    0.255870 0.634047 0.838407 0.338428
H21   H     H_    0.182132 0.496401 0.178337 0.336620
H22   H     H_    0.636969 0.914548 0.947963 0.193206
H23   H     H_    0.409078 0.133714 0.051008 0.193744
H24   H     H_    0.760155 0.406487 0.776541 0.187882
H25   H     H_    0.760535 0.588851 0.209928 0.191656
H26   H     H_    0.746942 0.393598 0.672655 0.202304
H27   H     H_    0.764371 0.576971 0.313739 0.218802
H28   H     H_    0.702772 0.009731 0.493509 0.179397
N1    N     N_R   0.492251 0.525942 0.147771 -0.353269
N2    N     N_R   0.532562 0.525422 0.851522 -0.354354
N3    N     N_2   0.950330 0.457950 0.484560 -0.166262
N4    N     N_2   0.049670 0.542050 0.515440 -0.169947
O1    O     O_R   0.389250 0.738570 0.503790 -0.624114
O2    O     O_2   0.616054 0.795253 0.850078 -0.527474
O3    O     O_2   0.555188 0.799212 0.149602 -0.533679
O4    O     O_2   0.455309 0.254418 0.849787 -0.538329
O5    O     O_3   0.254715 0.671217 0.681834 -0.593938
O6    O     O_3   0.187760 0.401189 0.331659 -0.604102
O7    O     O_3   0.251913 0.660412 0.797508 -0.725599
O8    O     O_3   0.172897 0.455455 0.217882 -0.744681
O9    O     O_R   0.610750 0.261430 0.496210 -0.613087
O10   O     O_R   0.678390 0.711620 0.493890 -0.630861
O11   O     O_R   0.321610 0.288380 0.506110 -0.641759
O12   O     O_R   0.355400 0.513520 0.588790 -0.580633
O13   O     O_R   0.644600 0.486480 0.411210 -0.611769
O14   O     O_R   0.644550 0.486570 0.578900 -0.630266
O15   O     O_R   0.355450 0.513430 0.421100 -0.587682
O16   O     O_2   0.434112 0.251853 0.148517 -0.536851
Zn1   Zn    Zn3+2 0.306930 0.518000 0.506610 0.958445
Zn2   Zn    Zn3+2 0.693070 0.482000 0.493390 0.949565

loop_
_geom_bond_atom_site_label_1
_geom_bond_atom_site_label_2
_ccdc_geom_bond_type
C30   H13   S    
C10   O15   A    
C7    C8    D    
C29   H11   S    
C28   H8    S    
C1    O1    A    
C29   H9    S    
C10   C37   S    
C28   C29   S    
C19   C21   A    
C26   H23   S    
C24   C26   A    
C30   C31   S    
C22   H1    S    
C11   O16   S    
O12   Zn1   S    
C12   O9    A    
C10   O13   A    
H4    N4    S    
C18   C19   A    
C30   H14   S    
H20   O7    S    
C33   C35   A    
C27   H6    S    
C23   H24   S    
C3    C38   A    
C22   C25   A    
C9    C36   S    
C14   N1    A    
C25   H22   S    
C32   H17   S    
C18   C20   A    
C33   H25   S    
C9    O12   A    
O13   Zn2   S    
C32   H19   S    
C5    N2    S    
C27   O5    S    
N4    Zn1   S    
H21   O8    S    
O9    Zn2   S    
C11   N1    A    
C38   O5    S    
O15   Zn1   S    
C24   H12   S    
C11   C20   A    
C28   H7    S    
C17   C24   A    
C29   H10   S    
C14   O3    S    
C4    C6    A    
C2    C4    A    
C4    O8    S    
C30   O6    S    
C31   C32   S    
C5    C23   A    
C8    C12   S    
C23   C34   A    
C34   H26   S    
C13   C21   A    
C31   H15   S    
O11   Zn1   S    
N3    Zn2   S    
O1    Zn1   S    
C6    N1    S    
C14   C16   A    
C3    O7    S    
C2    O6    S    
H3    N3    S    
C15   C17   A    
C21   C25   A    
C16   C22   A    
C35   C37   A    
C1    C7    S    
O14   Zn2   S    
C3    C5    A    
C13   O2    S    
C6    C33   A    
C36   C38   A    
O10   Zn2   S    
C7    H28   S    
C2    C37   A    
C20   C26   A    
C15   N2    A    
C17   C19   A    
C12   O11   A    
C34   C36   A    
C31   H16   S    
N3    N4    D    
C9    O14   A    
C27   H5    S    
C15   O4    S    
C16   C18   A    
C27   C28   S    
C1    O10   A    
C35   H27   S    
C8    H2    S    
C32   H18   S    
C13   N2    A    
