data_mof_unit_37596.cif
_audit_creation_date              2012-12-10T21:18:22-0500
_audit_creation_method            fapswitch 2.2
_symmetry_space_group_name_H-M    P1
_symmetry_Int_Tables_number       1
_space_group_crystal_system       triclinic
_cell_length_a                    17.563414
_cell_length_b                    16.856483
_cell_length_c                    10.611564
_cell_angle_alpha                 90.343012
_cell_angle_beta                  89.924873
_cell_angle_gamma                 90.251801
_cell_volume                      3141.5427065

loop_
_atom_site_label
_atom_site_type_symbol
_atom_type_description
_atom_site_fract_x
_atom_site_fract_y
_atom_site_fract_z
_atom_type_partial_charge
C1    C     C_R   0.352509 0.499893 0.504717 1.001776
C2    C     C_R   0.552879 0.253570 0.567643 0.004187
C3    C     C_R   0.550992 0.747589 0.571210 0.004053
C4    C     C_R   0.449009 0.252411 0.428788 0.004093
C5    C     C_R   0.498440 0.874863 0.502860 -0.190214
C6    C     C_R   0.501569 0.125137 0.497124 -0.190215
C7    C     C_1   0.499391 0.963375 0.501040 0.232986
C8    C     C_1   0.500619 0.036625 0.498941 0.232958
C9    C     C_R   0.496899 0.499764 0.257474 1.071904
C10   C     C_R   0.503098 0.500235 0.742526 1.071943
C11   C     C_3   0.457558 0.561127 0.039741 0.268194
C12   C     C_R   0.647491 0.500108 0.495281 1.001943
C13   C     C_3   0.542435 0.438870 0.960258 0.268439
C14   C     C_3   0.531293 0.568509 0.962349 0.275816
C15   C     C_3   0.468704 0.431488 0.037652 0.275924
C16   C     C_3   0.429466 0.493211 0.953886 0.258513
C17   C     C_3   0.570528 0.506785 0.046115 0.258497
C18   C     C_3   0.503109 0.500584 0.876714 -0.524063
C19   C     C_3   0.496887 0.499413 0.123287 -0.524053
C20   C     C_R   0.849599 0.570580 0.550246 0.344010
C21   C     C_R   0.150397 0.429481 0.449609 0.344059
C22   C     C_R   0.151075 0.573736 0.463147 0.343593
C23   C     C_1   0.967352 0.499469 0.515728 0.227544
C24   C     C_R   0.848958 0.426320 0.536775 0.343717
C25   C     C_R   0.772679 0.572458 0.515793 0.123903
C26   C     C_R   0.227310 0.427574 0.484107 0.124156
C27   C     C_R   0.228179 0.573226 0.496909 0.133141
C28   C     C_R   0.771842 0.426802 0.503075 0.133028
C29   C     C_R   0.731746 0.500020 0.500065 -0.283377
C30   C     C_R   0.268256 0.499996 0.499907 -0.283713
C31   C     C_R   0.888338 0.498346 0.546881 -0.230235
C32   C     C_R   0.111677 0.501726 0.452983 -0.230196
C33   C     C_1   0.032661 0.500621 0.484120 0.227647
C34   C     C_R   0.444264 0.829778 0.432112 0.325624
C35   C     C_R   0.555743 0.170222 0.567874 0.325573
C36   C     C_R   0.551858 0.830942 0.575260 0.325908
C37   C     C_R   0.448148 0.169057 0.424729 0.325763
C38   C     C_R   0.447124 0.746430 0.432352 0.004177
H1    H     H_    0.405828 0.711832 0.380395 0.235240
H2    H     H_    0.372872 0.239549 0.997038 0.402230
H3    H     H_    0.860815 0.757984 0.721995 0.402053
H4    H     H_    0.137523 0.243743 0.272862 0.401877
H5    H     H_    0.138664 0.770578 0.324029 0.401886
H6    H     H_    0.861753 0.229688 0.676644 0.401774
H7    H     H_    0.280241 0.833568 0.220938 0.399956
H8    H     H_    0.719954 0.166458 0.778660 0.399949
H9    H     H_    0.710185 0.837754 0.798092 0.399627
H10   H     H_    0.289338 0.162112 0.202792 0.399896
H11   H     H_    0.594174 0.288168 0.619602 0.235271
H12   H     H_    0.590915 0.713940 0.626049 0.235430
H13   H     H_    0.409085 0.286059 0.373953 0.235422
H14   H     H_    0.222137 0.474598 0.964945 0.398323
H15   H     H_    0.778060 0.522815 0.034954 0.398326
H16   H     H_    0.326492 0.728061 0.006468 0.401950
H17   H     H_    0.674075 0.272387 0.993264 0.401883
H18   H     H_    0.627872 0.760051 0.002891 0.402031
I1    I     I_    0.729279 0.685303 0.455531 0.011796
I2    I     I_    0.270671 0.314704 0.544307 0.013478
I3    I     I_    0.273931 0.681843 0.574913 0.022497
I4    I     I_    0.726092 0.318156 0.425172 0.022426
N1    N     N_R   0.500000 0.707230 0.500000 -0.172964
N2    N     N_R   0.500000 0.292770 0.500000 -0.172983
O1    O     O_R   0.389110 0.566570 0.499990 -0.612926
O2    O     O_2   0.331015 0.409768 0.810920 -0.249843
O3    O     O_3   0.272171 0.479798 0.007205 -0.440555
O4    O     O_2   0.669145 0.590184 0.188937 -0.248214
O5    O     O_2   0.680187 0.445536 0.192291 -0.271381
O6    O     O_3   0.727845 0.519895 0.992769 -0.440534
O7    O     O_2   0.344364 0.614476 0.188508 -0.260829
O8    O     O_2   0.452579 0.704300 0.150902 -0.231382
O9    O     O_3   0.355366 0.683088 0.970050 -0.429527
O10   O     O_2   0.547415 0.295690 0.849092 -0.231016
O11   O     O_2   0.655602 0.385544 0.811439 -0.261755
O12   O     O_R   0.610890 0.433430 0.500010 -0.612839
O13   O     O_3   0.644655 0.316918 0.029893 -0.429781
O14   O     O_2   0.639262 0.641273 0.825710 -0.245150
O15   O     O_2   0.515423 0.708120 0.845111 -0.240852
O16   O     O_3   0.605941 0.710699 0.038140 -0.431161
O17   O     O_2   0.484608 0.291895 0.154907 -0.240911
O18   O     O_2   0.360750 0.358699 0.174323 -0.245192
O19   O     O_3   0.394074 0.289273 0.961898 -0.431482
O20   O     O_2   0.966286 0.636136 0.681164 -0.236516
O21   O     O_2   0.916573 0.710488 0.500826 -0.195573
O22   O     O_3   0.836151 0.705910 0.706276 -0.474352
O23   O     O_R   0.610890 0.566570 0.500010 -0.611240
O24   O     O_2   0.083397 0.289499 0.498702 -0.193290
O25   O     O_2   0.033739 0.364067 0.318530 -0.239396
O26   O     O_3   0.163863 0.294261 0.293368 -0.475153
O27   O     O_2   0.034367 0.647764 0.347351 -0.238488
O28   O     O_2   0.085462 0.709160 0.540302 -0.192864
O29   O     O_3   0.164807 0.719073 0.334250 -0.481561
O30   O     O_2   0.914596 0.290921 0.459547 -0.192610
O31   O     O_2   0.965735 0.352336 0.652451 -0.239503
O32   O     O_3   0.835328 0.280966 0.665668 -0.482079
O33   O     O_2   0.316606 0.912934 0.440183 -0.214633
O34   O     O_R   0.389110 0.433430 0.499990 -0.611242
O35   O     O_2   0.400836 0.931844 0.256673 -0.197535
O36   O     O_3   0.319482 0.803640 0.267559 -0.500327
O37   O     O_2   0.599192 0.068153 0.743301 -0.197333
O38   O     O_2   0.683398 0.087069 0.559764 -0.214734
O39   O     O_3   0.680542 0.196360 0.732396 -0.500263
O40   O     O_2   0.664529 0.935019 0.605428 -0.205663
O41   O     O_2   0.575854 0.915507 0.782914 -0.207049
O42   O     O_3   0.677441 0.807748 0.738491 -0.504266
O43   O     O_2   0.424137 0.084491 0.217069 -0.206964
O44   O     O_2   0.335484 0.064981 0.394588 -0.205759
O45   O     O_R   0.499980 0.566530 0.313950 -0.580089
O46   O     O_3   0.322556 0.192249 0.261513 -0.503245
O47   O     O_R   0.500020 0.433470 0.686050 -0.579980
O48   O     O_R   0.500020 0.566530 0.686050 -0.582838
O49   O     O_R   0.499980 0.433470 0.313950 -0.582701
O50   O     O_2   0.319664 0.554396 0.807831 -0.269748
S1    S     S_3+6 0.335996 0.484035 0.889261 0.126622
S2    S     S_3+6 0.894752 0.336115 0.577453 0.126765
S3    S     S_3+6 0.369012 0.872896 0.348026 0.106904
S4    S     S_3+6 0.631003 0.127104 0.651940 0.107053
S5    S     S_3+6 0.618326 0.875650 0.677398 0.102596
S6    S     S_3+6 0.381677 0.124349 0.322596 0.102877
S7    S     S_3+6 0.664008 0.515877 0.110729 0.126600
S8    S     S_3+6 0.401257 0.642808 0.092712 0.155824
S9    S     S_3+6 0.598734 0.357192 0.907261 0.155414
S10   S     S_3+6 0.573898 0.659455 0.912542 0.155288
S11   S     S_3+6 0.426113 0.340537 0.087479 0.155129
S12   S     S_3+6 0.895799 0.657367 0.608842 0.126745
S13   S     S_3+6 0.104201 0.342734 0.390850 0.126233
S14   S     S_3+6 0.105329 0.663956 0.422415 0.127153
Zn1   Zn    Zn3+2 0.500000 0.588860 0.500000 1.083318
Zn2   Zn    Zn3+2 0.500000 0.411140 0.500000 1.083430

loop_
_geom_bond_atom_site_label_1
_geom_bond_atom_site_label_2
_ccdc_geom_bond_type
C2    C35   A    
C9    O49   A    
C21   C26   A    
C24   S2    S    
C14   S10   S    
O29   S14   S    
C12   O12   A    
O10   S9    D    
C14   C18   S    
O38   S4    D    
C16   S1    S    
O32   S2    S    
C7    C8    T    
C15   C19   S    
C11   C19   S    
C15   S11   S    
O9    S8    S    
O19   S11   S    
C28   C29   A    
H7    O36   S    
O6    S7    S    
C38   H1    S    
C12   C29   S    
C11   C14   S    
C22   S14   S    
C20   C25   A    
C15   C16   S    
C5    C36   A    
C4    N2    A    
H18   O16   S    
C6    C35   A    
O34   Zn2   S    
C10   O47   A    
H15   O6    S    
O15   S10   D    
C9    C19   S    
O12   Zn2   S    
C37   S6    S    
O8    S8    D    
C23   C33   T    
O2    S1    D    
O21   S12   D    
O35   S3    D    
C12   O23   A    
O48   Zn1   S    
C38   N1    A    
H17   O13   S    
C3    N1    A    
C34   C38   A    
O44   S6    D    
C27   C30   A    
C14   C17   S    
O41   S5    D    
C25   I1    S    
C11   S8    S    
C1    O1    A    
O20   S12   D    
O50   S1    D    
C21   C32   A    
C3    H12   S    
O27   S14   D    
C28   I4    S    
C25   C29   A    
H8    O39   S    
H16   O9    S    
C4    H13   S    
O46   S6    S    
O33   S3    D    
O37   S4    D    
C5    C7    S    
C6    C8    S    
C34   S3    S    
H3    O22   S    
O17   S11   D    
H5    O29   S    
C23   C31   S    
O26   S13   S    
C2    H11   S    
C13   S9    S    
C11   C16   S    
O47   Zn2   S    
C5    C34   A    
O28   S14   D    
C6    C37   A    
C35   S4    S    
N1    Zn1   S    
C36   S5    S    
C26   I2    S    
O40   S5    D    
C22   C32   A    
C13   C18   S    
C26   C30   A    
O11   S9    D    
O4    S7    D    
C13   C15   S    
O43   S6    D    
O23   Zn1   S    
H4    O26   S    
C21   S13   S    
O25   S13   D    
O42   S5    S    
H9    O42   S    
O13   S9    S    
O3    S1    S    
H2    O19   S    
C24   C28   A    
O22   S12   S    
O7    S8    D    
C13   C17   S    
C22   C27   A    
O14   S10   D    
C32   C33   S    
C24   C31   A    
O45   Zn1   S    
C27   I3    S    
N2    Zn2   S    
O36   S3    S    
H10   O46   S    
O30   S2    D    
C3    C36   A    
C10   C18   S    
C1    O34   A    
C1    C30   S    
C17   C19   S    
C10   O48   A    
O31   S2    D    
O16   S10   S    
C20   S12   S    
H6    O32   S    
C17   S7    S    
C4    C37   A    
C16   C18   S    
O49   Zn2   S    
O39   S4    S    
C9    O45   A    
O5    S7    D    
O18   S11   D    
O1    Zn1   S    
H14   O3    S    
C2    N2    A    
O24   S13   D    
C20   C31   A    
