data_mof_unit_49299.cif
_audit_creation_date              2012-12-10T17:23:41-0500
_audit_creation_method            fapswitch 2.2
_symmetry_space_group_name_H-M    P1
_symmetry_Int_Tables_number       1
_space_group_crystal_system       triclinic
_cell_length_a                    9.573712
_cell_length_b                    10.819705
_cell_length_c                    17.268294
_cell_angle_alpha                 92.756817
_cell_angle_beta                  86.323052
_cell_angle_gamma                 90.624276
_cell_volume                      1782.9290021

loop_
_atom_site_label
_atom_site_type_symbol
_atom_type_description
_atom_site_fract_x
_atom_site_fract_y
_atom_site_fract_z
_atom_type_partial_charge
C1    C     C_R   0.500970 0.736893 0.493177 0.850239
C2    C     C_R   0.347663 0.502926 0.778213 -0.210079
C3    C     C_R   0.404985 0.480764 0.145640 -0.085009
C4    C     C_R   0.400689 0.481728 0.226050 -0.207553
C5    C     C_R   0.653994 0.500646 0.221918 -0.204690
C6    C     C_R   0.657989 0.500035 0.141069 -0.160866
C7    C     C_R   0.533220 0.493626 0.102961 0.184371
C8    C     C_2   0.453420 0.571719 0.981767 0.504865
C9    C     C_2   0.538237 0.498690 0.018316 -0.269930
C10   C     C_R   0.524882 0.493590 0.264938 -0.023312
C11   C     C_R   0.258147 0.880207 0.440083 0.347135
C12   C     C_R   0.482225 0.503850 0.650045 0.800798
C13   C     C_R   0.124970 0.934742 0.453639 0.359633
C14   C     C_R   0.111174 0.042640 0.501524 -0.352209
C15   C     C_R   0.229109 0.104764 0.527814 0.453801
C16   C     C_R   0.365260 0.058625 0.504770 -0.105461
C17   C     C_R   0.374928 0.935112 0.475682 -0.068183
C18   C     C_R   0.500866 0.870978 0.485253 -0.034811
C19   C     C_R   0.622849 0.937477 0.500729 -0.231525
C20   C     C_R   0.619963 0.065007 0.508653 -0.226090
C21   C     C_R   0.492426 0.127590 0.510114 -0.061284
C22   C     C_R   0.866251 0.337135 0.395199 -0.152941
C23   C     C_R   0.497751 0.262494 0.505413 0.799113
C24   C     C_R   0.943997 0.259611 0.343004 -0.240713
C25   C     C_R   0.087788 0.258647 0.343724 -0.229312
C26   C     C_R   0.154774 0.336435 0.395985 -0.126531
C27   C     C_R   0.079968 0.419523 0.448827 0.237382
C28   C     C_R   0.930249 0.419694 0.448682 0.208029
C29   C     C_R   0.921362 0.576899 0.548517 -0.033952
C30   C     C_R   0.069445 0.576927 0.548454 -0.020461
C31   C     C_R   0.517723 0.498010 0.349914 0.788166
C32   C     C_R   0.474451 0.520236 0.734784 -0.064320
C33   C     C_R   0.593848 0.560065 0.772366 -0.271222
C34   C     C_R   0.587688 0.581696 0.853080 0.384823
C35   C     C_R   0.460597 0.561079 0.896104 0.021544
C36   C     C_R   0.341115 0.522616 0.858543 -0.259465
Cu1   Cu    Cu3+1 0.359340 0.500010 0.500010 0.982956
Cu2   Cu    Cu3+1 0.640660 0.499990 0.499990 0.939775
H1    H     H_    0.691442 0.576299 0.738946 0.141493
H2    H     H_    0.757875 0.507581 0.108346 0.145606
H3    H     H_    0.720992 0.891082 0.506715 0.197170
H4    H     H_    0.008091 0.078225 0.519111 0.183363
H5    H     H_    0.717844 0.114415 0.515239 0.166626
H6    H     H_    0.862103 0.639889 0.588233 0.127341
H7    H     H_    0.756640 0.327900 0.390759 0.198627
H8    H     H_    0.891803 0.198558 0.302316 0.149394
H9    H     H_    0.299799 0.473478 0.257598 0.161559
H10   H     H_    0.148146 0.196691 0.303736 0.148030
H11   H     H_    0.265182 0.327288 0.392171 0.185176
H12   H     H_    0.121106 0.640004 0.588096 0.124729
H13   H     H_    0.751283 0.508135 0.250609 0.163184
H14   H     H_    0.617606 0.443623 0.985060 0.137765
H15   H     H_    0.243348 0.506137 0.891742 0.166193
H16   H     H_    0.308084 0.470054 0.116823 0.158035
H17   H     H_    0.254094 0.473320 0.750232 0.160483
N1    N     N_R   0.852190 0.498790 0.499250 -0.200402
N2    N     N_R   0.148060 0.498710 0.499220 -0.188381
O1    O     O_R   0.381190 0.680360 0.500010 -0.545203
O2    O     O_R   0.618760 0.680340 0.500000 -0.591289
O3    O     O_R   0.367440 0.500030 0.613600 -0.574940
O4    O     O_R   0.605010 0.500010 0.613590 -0.588054
O5    O     O_R   0.381240 0.319660 0.500000 -0.550422
O6    O     O_R   0.618810 0.319640 0.499990 -0.615792
O7    O     O_R   0.394990 0.499990 0.386410 -0.588387
O8    O     O_R   0.632560 0.499970 0.386400 -0.605460
O9    O     O_3   0.279571 0.780153 0.387764 -0.708463
H18   H     H_    0.190435 0.755159 0.365246 0.358741
O10   O     O_3   0.007485 0.872244 0.429163 -0.585988
C37   C     C_3   0.942545 0.942810 0.375362 -0.333192
H19   H     H_    0.890496 0.025122 0.404676 0.177279
H20   H     H_    0.017962 0.970698 0.327390 0.163012
H21   H     H_    0.859991 0.885116 0.348945 0.199289
O11   O     O_3   0.206424 0.204131 0.580503 -0.541319
C38   C     C_3   0.240776 0.169817 0.654677 -0.296171
H22   H     H_    0.355456 0.157342 0.657129 0.153477
H23   H     H_    0.183341 0.084574 0.672383 0.147392
H24   H     H_    0.209117 0.245483 0.697606 0.178946
O12   O     O_3   0.353606 0.644073 0.024643 -0.588704
C39   C     C_3   0.335398 0.757751 0.989950 -0.292961
H25   H     H_    0.272225 0.745099 0.938366 0.163568
H26   H     H_    0.437432 0.803483 0.974211 0.172282
H27   H     H_    0.276627 0.820827 0.032544 0.186733
O13   O     O_3   0.703153 0.623673 0.890992 -0.760764
H28   H     H_    0.783331 0.633063 0.852370 0.317690

loop_
_geom_bond_atom_site_label_1
_geom_bond_atom_site_label_2
_ccdc_geom_bond_type
C8    C9    D    
C16   C21   A    
O11   C38   S    
C19   C20   A    
Cu1   O7    S    
Cu1   O5    S    
C28   N1    A    
C26   C27   A    
C33   H1    S    
C38   H23   S    
Cu1   Cu2   S    
C18   C19   A    
C3    C7    A    
C2    H17   S    
C1    O2    A    
C5    C6    A    
C3    H16   S    
C15   C16   A    
C30   N2    A    
C2    C32   A    
C34   C35   A    
C37   H20   S    
C36   H15   S    
C10   C31   S    
C23   O5    A    
C35   C36   A    
C16   C17   A    
C38   H24   S    
Cu1   O1    S    
C11   O9    S    
C14   H4    S    
Cu2   O4    S    
C23   O6    A    
O9    H18   S    
C30   H12   S    
C22   C28   A    
C13   C14   A    
C12   C32   S    
C8    O12   S    
C9    H14   S    
C33   C34   A    
C38   H22   S    
C24   C25   A    
C27   N2    A    
C26   H11   S    
C39   H26   S    
C31   O8    A    
O12   C39   S    
O10   C37   S    
C25   C26   A    
Cu2   O2    S    
C8    C35   S    
C37   H21   S    
C29   C30   A    
O13   H28   S    
Cu2   O8    S    
C17   C18   A    
C1    C18   S    
C25   H10   S    
C15   O11   S    
C21   C23   S    
C29   H6    S    
C22   C24   A    
C34   O13   S    
C4    C10   A    
C3    C4    A    
C20   H5    S    
Cu2   O6    S    
C2    C36   A    
C7    C9    S    
C11   C17   A    
C31   O7    A    
C39   H27   S    
C6    C7    A    
C29   N1    A    
C24   H8    S    
C32   C33   A    
C5    C10   A    
C1    O1    A    
C12   O4    A    
C11   C13   A    
C6    H2    S    
C37   H19   S    
Cu1   O3    S    
C39   H25   S    
C12   O3    A    
C22   H7    S    
Cu2   N1    S    
C20   C21   A    
C27   C28   A    
C14   C15   A    
C5    H13   S    
C13   O10   S    
Cu1   N2    S    
C19   H3    S    
C4    H9    S    
