data_mof_unit_58751.cif
_audit_creation_date              2012-12-11T15:54:04-0500
_audit_creation_method            fapswitch 2.2
_symmetry_space_group_name_H-M    P1
_symmetry_Int_Tables_number       1
_space_group_crystal_system       triclinic
_cell_length_a                    10.636335
_cell_length_b                    10.750355
_cell_length_c                    17.050584
_cell_angle_alpha                 80.571142
_cell_angle_beta                  99.125193
_cell_angle_gamma                 118.862331
_cell_volume                      1677.24124548

loop_
_atom_site_label
_atom_site_type_symbol
_atom_type_description
_atom_site_fract_x
_atom_site_fract_y
_atom_site_fract_z
_atom_type_partial_charge
C1    C     C_R   0.384735 0.285503 0.631806 0.559727
C2    C     C_1   0.333934 0.188544 0.781654 -0.012646
C3    C     C_1   0.335717 0.663587 0.277727 -0.043606
C4    C     C_R   0.368140 0.655107 0.585017 0.542270
C5    C     C_1   0.322945 0.672757 0.207000 -0.046089
C6    C     C_R   0.869189 0.685492 0.167829 0.024500
C7    C     C_R   0.915609 0.603254 0.224417 0.034190
C8    C     C_R   0.906038 0.597086 0.303993 0.015667
C9    C     C_R   0.831955 0.781089 0.275555 -0.161377
C10   C     C_R   0.840915 0.785574 0.194317 -0.161768
C11   C     C_3   0.881117 0.450714 0.228468 -0.266582
C12   C     C_R   0.399923 0.829605 0.672676 -0.138893
C13   C     C_3   0.869920 0.442149 0.316801 -0.270010
C14   C     C_R   0.848993 0.674660 0.329684 0.017973
C15   C     C_R   0.337544 0.182540 0.155252 0.019343
C16   C     C_R   0.776832 0.618812 0.626831 0.543361
C17   C     C_R   0.262347 0.243937 0.179356 0.018038
C18   C     C_R   0.267461 0.255328 0.258534 0.035040
C19   C     C_R   0.444209 0.171946 0.291465 -0.165810
C20   C     C_R   0.440726 0.160996 0.210635 -0.162878
C21   C     C_3   0.107697 0.214039 0.165276 -0.269960
C22   C     C_3   0.114998 0.227227 0.253182 -0.267555
C23   C     C_R   0.397721 0.849699 0.751235 0.021540
C24   C     C_R   0.346082 0.206126 0.316386 0.023464
C25   C     C_R   0.892422 0.702227 0.855778 0.555616
C26   C     C_R   0.284525 0.750151 0.882481 0.561510
C27   C     C_R   0.286981 0.119032 0.858450 0.537181
C28   C     C_R   0.353999 0.232064 0.397499 0.554734
C29   C     C_R   0.893097 0.693688 0.086139 0.554064
C30   C     C_R   0.312947 0.700620 0.123864 0.559327
C31   C     C_R   0.287764 0.111107 0.083581 0.550950
C32   C     C_R   0.365230 0.653968 0.360736 0.551878
C33   C     C_R   0.775381 0.624319 0.401224 0.550585
C34   C     C_3   0.118005 0.464935 0.789079 -0.243315
C35   C     C_R   0.290756 0.738789 0.798764 -0.020877
C36   C     C_R   0.182062 0.620878 0.761057 -0.005279
C37   C     C_R   0.194934 0.597470 0.685988 0.006557
C38   C     C_2   0.525094 0.975801 0.782751 0.594033
C39   C     C_3   0.133266 0.440118 0.706782 -0.248847
C40   C     C_R   0.313120 0.695000 0.644560 -0.010025
C41   C     C_1   0.823338 0.656780 0.705951 -0.027116
C42   C     C_1   0.851356 0.684828 0.773644 -0.025186
C43   C     C_1   0.364583 0.235855 0.714310 0.001881
Cr1   Cr    Cr6+3 0.608440 0.389080 0.519680 1.036747
Cr2   Cr    Cr6+3 0.288640 0.400090 0.490760 1.007453
Cr3   Cr    Cr6+3 0.602940 0.710800 0.489510 1.019081
Cr4   Cr    Cr6+3 0.052530 0.947560 0.964210 1.030398
Cr5   Cr    Cr6+3 0.059970 0.626800 0.992920 1.008371
Cr6   Cr    Cr6+3 0.373320 0.938440 0.995370 1.041000
H1    H     H_    0.486791 0.911585 0.638946 0.162538
H2    H     H_    0.045268 0.125228 0.287516 0.142101
H3    H     H_    0.003856 0.419515 0.801811 0.162781
H4    H     H_    0.188124 0.438951 0.837114 0.155921
H5    H     H_    0.212907 0.401031 0.707504 0.145751
H6    H     H_    0.028000 0.380140 0.672191 0.158194
H7    H     H_    0.795346 0.849121 0.293929 0.140435
H8    H     H_    0.818562 0.861311 0.152383 0.131215
H9    H     H_    0.973947 0.439848 0.215229 0.142888
H10   H     H_    0.712169 0.051268 0.853495 0.327360
H11   H     H_    0.776507 0.385354 0.194722 0.144018
H12   H     H_    0.758600 0.368886 0.333132 0.164484
H13   H     H_    0.955910 0.424430 0.355040 0.141933
H14   H     H_    0.517554 0.146908 0.334358 0.127674
H15   H     H_    0.506821 0.120352 0.193539 0.140924
H16   H     H_    0.031134 0.104318 0.149651 0.161786
H17   H     H_    0.094388 0.300867 0.125780 0.144296
H18   H     H_    0.107990 0.322099 0.264894 0.142690
O1    O     O_R   0.754020 0.497590 0.609930 -0.505467
O2    O     O_R   0.406180 0.826930 0.920660 -0.460982
O3    O     O_R   0.358620 0.062870 0.901950 -0.499114
O4    O     O_R   0.481420 0.271390 0.600630 -0.453445
O5    O     O_R   0.163910 0.085460 0.050210 -0.522897
O6    O     O_R   0.935200 0.815170 0.045770 -0.497726
O7    O     O_R   0.916120 0.596690 0.069430 -0.518720
O8    O     O_R   0.192310 0.631200 0.086170 -0.504837
O9    O     O_R   0.406770 0.819480 0.096420 -0.509444
O10   O     O_R   0.359170 0.055960 0.064880 -0.510295
O11   O     O_3   0.161940 0.837600 0.984160 -0.281921
O12   O     O_R   0.295080 0.533620 0.397890 -0.507793
O13   O     O_R   0.263810 0.254550 0.589590 -0.518255
O14   O     O_R   0.300820 0.531200 0.560890 -0.515664
O15   O     O_R   0.491480 0.744020 0.564270 -0.518740
O16   O     O_R   0.726290 0.693800 0.583010 -0.496369
O17   O     O_R   0.747830 0.500190 0.434090 -0.523911
O18   O     O_R   0.475680 0.273800 0.437630 -0.503321
O19   O     O_R   0.257620 0.257160 0.413750 -0.515745
O20   O     O_2   0.548625 0.095661 0.753491 -0.530670
O21   O     O_R   0.627348 0.957255 0.838918 -0.660105
O22   O     O_R   0.485280 0.746620 0.388440 -0.512943
O23   O     O_R   0.720550 0.696220 0.420010 -0.506048
O24   O     O_3   0.500010 0.499990 0.499980 -0.272069
O25   O     O_R   0.163320 0.092900 0.874450 -0.514811
O26   O     O_R   0.934650 0.822080 0.882840 -0.477258
O27   O     O_R   0.915520 0.604140 0.893670 -0.521813
O28   O     O_R   0.191760 0.638110 0.923230 -0.505284

loop_
_geom_bond_atom_site_label_1
_geom_bond_atom_site_label_2
_ccdc_geom_bond_type
C25   O26   A    
C8    C13   S    
Cr5   O28   S    
C21   H17   S    
Cr4   O25   S    
C19   C20   A    
C14   C33   S    
C7    C8    A    
Cr3   O22   S    
C7    C11   S    
C12   C23   A    
C1    O4    A    
Cr5   O27   S    
C18   C24   A    
C36   C37   A    
C37   C40   A    
C39   H5    S    
C29   O6    A    
Cr6   O11   S    
Cr1   O4    S    
C41   C42   T    
Cr5   O11   S    
H10   O21   S    
C12   C40   A    
Cr3   O15   S    
C1    C43   S    
C39   H6    S    
C13   H13   S    
C4    C40   S    
C19   H14   S    
C2    C27   S    
C16   O1    A    
C11   H9    S    
C9    C10   A    
C25   O27   A    
Cr6   O2    S    
C21   C22   S    
Cr5   O8    S    
C31   O10   A    
C15   C20   A    
Cr4   O5    S    
C4    O14   A    
C34   C39   S    
Cr5   O7    S    
C10   H8    S    
Cr4   O6    S    
C29   O7    A    
C3    C5    T    
C16   O16   A    
C17   C21   S    
C38   O21   S    
C35   C36   A    
C20   H15   S    
C9    C14   A    
C30   O9    A    
C32   O22   A    
C2    C43   T    
C17   C18   A    
Cr4   O26   S    
Cr6   O9    S    
C4    O15   A    
C27   O25   A    
Cr2   O12   S    
C9    H7    S    
C27   O3    A    
Cr1   O24   S    
C31   O5    A    
C23   C35   A    
Cr6   O3    S    
C28   O19   A    
Cr1   O1    S    
C11   H11   S    
C5    C30   S    
C26   O28   A    
C15   C17   A    
C8    C14   A    
C21   H16   S    
C18   C22   S    
Cr2   O14   S    
C24   C28   S    
Cr1   O17   S    
C25   C42   S    
C6    C10   A    
C12   H1    S    
C15   C31   S    
C6    C7    A    
Cr3   O23   S    
C23   C38   S    
C34   H3    S    
C38   O20   D    
Cr2   O19   S    
C37   C39   S    
C33   O23   A    
C32   O12   A    
C30   O8    A    
C11   C13   S    
Cr6   O10   S    
C19   C24   A    
Cr2   O13   S    
C34   C36   S    
C3    C32   S    
Cr2   O24   S    
C33   O17   A    
C22   H18   S    
Cr3   O16   S    
C26   C35   S    
C6    C29   S    
C13   H12   S    
C34   H4    S    
C28   O18   A    
C26   O2    A    
C1    O13   A    
Cr4   O11   S    
C16   C41   S    
Cr3   O24   S    
Cr1   O18   S    
C22   H2    S    
