data_mof_unit_46456.cif
_audit_creation_date              2012-12-10T19:04:46-0500
_audit_creation_method            fapswitch 2.2
_symmetry_space_group_name_H-M    P1
_symmetry_Int_Tables_number       1
_space_group_crystal_system       triclinic
_cell_length_a                    15.852743
_cell_length_b                    10.879965
_cell_length_c                    9.538614
_cell_angle_alpha                 90.474052
_cell_angle_beta                  89.845416
_cell_angle_gamma                 90.907934
_cell_volume                      1644.92600116

loop_
_atom_site_label
_atom_site_type_symbol
_atom_type_description
_atom_site_fract_x
_atom_site_fract_y
_atom_site_fract_z
_atom_type_partial_charge
C1    C     C_R   0.493035 0.262830 0.499284 0.886829
C2    C     C_3   0.082883 0.501496 0.501037 0.011137
C3    C     C_3   0.971993 0.530287 0.627262 0.448215
C4    C     C_3   0.916965 0.498862 0.499957 0.004782
C5    C     C_3   0.028486 0.613876 0.535259 -0.243014
C6    C     C_3   0.972265 0.582064 0.406310 -0.203417
C7    C     C_1   0.174576 0.502082 0.500934 0.066374
C8    C     C_1   0.825329 0.497843 0.500141 0.070995
C9    C     C_R   0.516144 0.066192 0.611248 -0.045028
C10   C     C_R   0.484075 0.129460 0.497554 -0.219415
C11   C     C_R   0.446402 0.062562 0.384716 0.372612
C12   C     C_R   0.339840 0.501324 0.500214 0.871396
C13   C     C_R   0.454324 0.933336 0.380068 0.291837
C14   C     C_R   0.486539 0.870783 0.498480 -0.158356
C15   C     C_R   0.513733 0.939478 0.614591 -0.061225
C16   C     C_3   0.483894 0.939842 0.764821 0.312198
C17   C     C_3   0.489230 0.078767 0.760690 -0.369786
C18   C     C_R   0.571437 0.533262 0.073530 0.210127
C19   C     C_R   0.432011 0.458391 0.074082 0.057191
C20   C     C_R   0.432135 0.457831 0.925513 0.011348
C21   C     C_R   0.571446 0.530853 0.925689 0.182654
C22   C     C_3   0.618324 0.648860 0.913651 -0.503865
C23   C     C_R   0.495134 0.737471 0.500011 0.885773
C24   C     C_3   0.615183 0.657322 0.072570 0.219376
C25   C     C_R   0.660126 0.498817 0.500000 0.844493
C26   C     C_3   0.971349 0.386532 0.465716 -0.229469
C27   C     C_3   0.027821 0.470118 0.373727 0.470469
C28   C     C_1   0.250143 0.501975 0.500679 -0.097787
C29   C     C_1   0.749786 0.497770 0.500203 -0.070140
C30   C     C_3   0.027530 0.418330 0.594669 -0.222526
Cu1   Cu    Cu3+1 0.500000 0.499980 0.640670 1.009690
Cu2   Cu    Cu3+1 0.500000 0.500020 0.359330 1.072702
H1    H     H_    0.529897 0.902347 0.839541 0.084636
H2    H     H_    0.427877 0.126163 0.772335 0.240240
H3    H     H_    0.540627 0.117958 0.827259 0.184302
H4    H     H_    0.376336 0.426382 0.128922 0.174815
H5    H     H_    0.376698 0.424896 0.870279 0.156252
H6    H     H_    0.681950 0.634856 0.867514 0.252130
H7    H     H_    0.580891 0.719219 0.860652 0.188317
H8    H     H_    0.574560 0.732566 0.111705 0.156793
H9    H     H_    0.947017 0.293714 0.436020 0.195084
H10   H     H_    0.948511 0.648144 0.328195 0.211319
H11   H     H_    0.052836 0.706694 0.564933 0.196831
H12   H     H_    0.051103 0.352136 0.672785 0.203821
N1    N     N_R   0.500530 0.500930 0.147930 -0.220795
N2    N     N_R   0.500530 0.500890 0.852020 -0.186178
O1    O     O_R   0.500000 0.319640 0.618810 -0.596757
O2    O     O_R   0.500010 0.319680 0.381230 -0.530452
O3    O     O_R   0.379070 0.499970 0.618770 -0.576726
O4    O     O_R   0.379080 0.500010 0.381190 -0.560681
O5    O     O_R   0.499990 0.680320 0.618770 -0.565766
O6    O     O_R   0.500000 0.680360 0.381190 -0.543944
O7    O     O_R   0.620920 0.499990 0.618810 -0.594202
O8    O     O_R   0.620930 0.500030 0.381230 -0.528619
Cl1   Cl    Cl    0.066198 0.430061 0.204043 -0.504485
S1    S     S_3+6 0.718454 0.660610 0.149058 0.037917
O9    O     O_2   0.752526 0.532774 0.158426 -0.256139
O10   O     O_2   0.776851 0.738148 0.060744 -0.232929
O11   O     O_3   0.712354 0.724098 0.309952 -0.550886
H13   H     H_    0.771688 0.736855 0.339729 0.364724
Cl2   Cl    Cl    0.933431 0.570335 0.796892 -0.478747
S2    S     S_3+6 0.379583 0.136473 0.261788 0.068780
O12   O     O_2   0.431668 0.178544 0.138891 -0.293962
O13   O     O_2   0.310646 0.051034 0.210628 -0.167768
O14   O     O_3   0.332900 0.257354 0.337943 -0.567181
H14   H     H_    0.287194 0.280203 0.272984 0.376627
Cl3   Cl    Cl    0.420747 0.851801 0.227449 -0.474464
S3    S     S_3+6 0.377674 0.883957 0.790681 0.048746
O15   O     O_2   0.378195 0.747664 0.814464 -0.271142
O16   O     O_2   0.340610 0.946146 0.917296 -0.165773
O17   O     O_3   0.318317 0.914770 0.649738 -0.532097
H15   H     H_    0.264253 0.870156 0.665803 0.382189

loop_
_geom_bond_atom_site_label_1
_geom_bond_atom_site_label_2
_ccdc_geom_bond_type
C18   C21   A    
Cu2   N1    S    
C19   C20   A    
C4    C8    S    
C11   S2    S    
C12   O3    A    
C26   C27   S    
C12   C28   S    
C18   C24   S    
C8    C29   T    
C25   O7    A    
C19   H4    S    
C5    C6    S    
C27   Cl1   S    
C15   C16   S    
C22   H6    S    
S1    O9    D    
Cu2   O6    S    
S2    O13   D    
C2    C7    S    
S3    O15   D    
Cu1   Cu2   S    
C16   C17   S    
Cu1   N2    S    
C2    C27   S    
C16   S3    S    
C9    C10   A    
C5    H11   S    
O11   H13   S    
Cu1   O1    S    
C13   C14   A    
Cu2   O2    S    
C30   H12   S    
Cu1   O3    S    
Cu2   O8    S    
C3    Cl2   S    
C25   C29   S    
C25   O8    A    
C4    C6    S    
C1    O1    A    
C7    C28   T    
C14   C23   S    
C3    C30   S    
S2    O12   D    
C16   H1    S    
C23   O5    A    
C6    C27   S    
Cu1   O7    S    
Cu2   O4    S    
C9    C17   S    
C26   C30   S    
C22   C24   S    
C2    C5    S    
C17   H2    S    
C3    C4    S    
C18   N1    A    
C21   N2    A    
C13   Cl3   S    
S2    O14   S    
C1    C10   S    
Cu1   O5    S    
C3    C5    S    
C4    C26   S    
C19   N1    A    
C1    O2    A    
C24   S1    S    
S1    O11   S    
C2    C30   S    
C9    C15   A    
O17   H15   S    
C20   H5    S    
C11   C13   A    
C23   O6    A    
S3    O17   S    
C22   H7    S    
C24   H8    S    
S1    O10   D    
C10   C11   A    
S3    O16   D    
O14   H14   S    
C6    H10   S    
C14   C15   A    
C17   H3    S    
C21   C22   S    
C12   O4    A    
C20   N2    A    
C26   H9    S    
