data_mof_unit_54943.cif
_audit_creation_date              2012-12-11T14:38:31-0500
_audit_creation_method            fapswitch 2.2
_symmetry_space_group_name_H-M    P1
_symmetry_Int_Tables_number       1
_space_group_crystal_system       triclinic
_cell_length_a                    19.445453
_cell_length_b                    11.187236
_cell_length_c                    19.673215
_cell_angle_alpha                 90.136394
_cell_angle_beta                  96.357862
_cell_angle_gamma                 89.907754
_cell_volume                      4253.39047475

loop_
_atom_site_label
_atom_site_type_symbol
_atom_type_description
_atom_site_fract_x
_atom_site_fract_y
_atom_site_fract_z
_atom_type_partial_charge
C1    C     C_R   0.724860 0.954648 0.360556 0.582576
C2    C     C_R   0.275290 0.954708 0.639377 0.587352
C3    C     C_R   0.224860 0.454648 0.360556 0.582576
C4    C     C_R   0.775290 0.454708 0.639377 0.587352
C5    C     C_3   0.680635 0.455156 0.457161 -0.235192
C6    C     C_3   0.320051 0.453144 0.542825 -0.233604
C7    C     C_3   0.180635 0.955156 0.457161 -0.235192
C8    C     C_3   0.820051 0.953144 0.542825 -0.233604
C9    C     C_3   0.824923 0.475060 0.531369 -0.275269
C10   C     C_3   0.176041 0.474600 0.468934 -0.274826
C11   C     C_3   0.324923 0.975060 0.531369 -0.275269
C12   C     C_3   0.676041 0.974600 0.468934 -0.274826
C13   C     C_3   0.756793 0.293172 0.554748 0.204174
C14   C     C_3   0.243942 0.292615 0.444538 0.205484
C15   C     C_3   0.256793 0.793172 0.554748 0.204174
C16   C     C_3   0.743942 0.792615 0.444538 0.205484
C17   C     C_3   0.761555 0.427067 0.566838 0.083522
C18   C     C_3   0.239061 0.426496 0.433056 0.084174
C19   C     C_3   0.261555 0.927067 0.566838 0.083522
C20   C     C_3   0.739061 0.926496 0.433056 0.084174
C21   C     C_3   0.745544 0.391460 0.435554 0.008305
C22   C     C_3   0.255023 0.389910 0.564216 0.009281
C23   C     C_3   0.245544 0.891460 0.435554 0.008305
C24   C     C_3   0.755023 0.889910 0.564216 0.009281
C25   C     C_3   0.809281 0.470329 0.453374 -0.267307
C26   C     C_3   0.191502 0.469404 0.546826 -0.267805
C27   C     C_3   0.309281 0.970329 0.453374 -0.267307
C28   C     C_3   0.691502 0.969404 0.546826 -0.267805
C29   C     C_3   0.758178 0.274449 0.477657 -0.171817
C30   C     C_3   0.242287 0.273195 0.521550 -0.172861
C31   C     C_3   0.258178 0.774449 0.477657 -0.171817
C32   C     C_3   0.742287 0.773195 0.521550 -0.172861
C33   C     C_3   0.492649 0.312725 0.961557 0.138156
C34   C     C_3   0.507174 0.312680 0.038681 0.136917
C35   C     C_3   0.992649 0.812725 0.961557 0.138157
C36   C     C_3   0.007174 0.812680 0.038681 0.136917
C37   C     C_3   0.428655 0.115189 0.967563 -0.280967
C38   C     C_3   0.571342 0.114959 0.032265 -0.281883
C39   C     C_3   0.928655 0.615189 0.967563 -0.280968
C40   C     C_3   0.071342 0.614959 0.032265 -0.281884
C41   C     C_3   0.555679 0.111980 0.953886 -0.252867
C42   C     C_3   0.444329 0.112077 0.045929 -0.252682
C43   C     C_3   0.055679 0.611980 0.953886 -0.252868
C44   C     C_3   0.944329 0.612077 0.045929 -0.252682
C45   C     C_R   0.560339 0.183465 0.347389 0.535518
C46   C     C_R   0.464918 0.180275 0.662227 0.543063
C47   C     C_R   0.060339 0.683465 0.347389 0.535518
C48   C     C_R   0.964918 0.680275 0.662227 0.543063
C49   C     C_3   0.487740 0.179767 0.933551 -0.007700
C50   C     C_3   0.512213 0.179663 0.066424 -0.010210
C51   C     C_3   0.987740 0.679767 0.933551 -0.007700
C52   C     C_3   0.012214 0.679663 0.066424 -0.010210
C53   C     C_1   0.757698 0.414514 0.901063 0.051241
C54   C     C_1   0.242295 0.414078 0.098955 0.052031
C55   C     C_1   0.257698 0.914513 0.901063 0.051241
C56   C     C_1   0.742295 0.914077 0.098955 0.052031
C57   C     C_1   0.736471 0.363375 0.026991 0.009399
C58   C     C_1   0.263701 0.363025 0.973007 0.008292
C59   C     C_1   0.236471 0.863375 0.026991 0.009400
C60   C     C_1   0.763701 0.863024 0.973007 0.008294
C61   C     C_1   0.746352 0.388922 0.958350 0.041300
C62   C     C_1   0.253722 0.388437 0.041658 0.040898
C63   C     C_1   0.246352 0.888922 0.958350 0.041300
C64   C     C_1   0.753722 0.888437 0.041658 0.040899
C65   C     C_1   0.729715 0.341768 0.085982 0.002915
C66   C     C_1   0.270484 0.341579 0.913976 0.002164
C67   C     C_1   0.229715 0.841768 0.085982 0.002916
C68   C     C_1   0.770484 0.841579 0.913976 0.002165
C69   C     C_R   0.738179 0.358834 0.362637 0.550887
C70   C     C_R   0.262168 0.357537 0.637058 0.554508
C71   C     C_R   0.238179 0.858834 0.362637 0.550887
C72   C     C_R   0.762168 0.857537 0.637058 0.554508
C73   C     C_R   0.722782 0.952981 0.163745 0.554588
C74   C     C_R   0.277209 0.953112 0.836275 0.553003
C75   C     C_R   0.222782 0.452981 0.163745 0.554587
C76   C     C_R   0.777209 0.453112 0.836275 0.553002
C77   C     C_R   0.532830 0.180238 0.140669 0.569728
C78   C     C_R   0.467143 0.180298 0.859328 0.561675
C79   C     C_R   0.032830 0.680238 0.140669 0.569728
C80   C     C_R   0.967143 0.680298 0.859328 0.561674
C81   C     C_R   0.722850 0.311853 0.155956 0.540522
C82   C     C_R   0.277250 0.311813 0.843936 0.539913
C83   C     C_R   0.222850 0.811853 0.155956 0.540521
C84   C     C_R   0.777250 0.811813 0.843936 0.539912
C85   C     C_1   0.492846 0.172815 0.598054 0.005772
C86   C     C_1   0.539515 0.176909 0.414846 -0.010081
C87   C     C_1   0.992846 0.672815 0.598054 0.005772
C88   C     C_1   0.039515 0.676909 0.414846 -0.010081
C89   C     C_1   0.525582 0.172966 0.472908 -0.012912
C90   C     C_1   0.509771 0.170998 0.541048 -0.004356
C91   C     C_1   0.025582 0.672966 0.472908 -0.012911
C92   C     C_1   0.009771 0.670998 0.541048 -0.004355
C93   C     C_3   0.690801 0.478621 0.534397 -0.197200
C94   C     C_3   0.309664 0.477971 0.465730 -0.195530
C95   C     C_3   0.190801 0.978621 0.534397 -0.197200
C96   C     C_3   0.809664 0.977971 0.465730 -0.195530
Cr1   Cr    Cr6+3 0.765780 0.160710 0.267420 1.037279
Cr2   Cr    Cr6+3 0.234220 0.160710 0.732580 1.037954
Cr3   Cr    Cr6+3 0.265780 0.660710 0.267420 1.037277
Cr4   Cr    Cr6+3 0.734220 0.660710 0.732580 1.037951
Cr5   Cr    Cr6+3 0.612200 0.009560 0.248850 1.033264
Cr6   Cr    Cr6+3 0.387800 0.009560 0.751150 1.029462
Cr7   Cr    Cr6+3 0.112200 0.509560 0.248850 1.033262
Cr8   Cr    Cr6+3 0.887800 0.509560 0.751150 1.029460
Cr9   Cr    Cr6+3 0.616030 0.323720 0.248510 1.082328
Cr10  Cr    Cr6+3 0.383970 0.323720 0.751490 1.082263
Cr11  Cr    Cr6+3 0.116030 0.823720 0.248510 1.082334
Cr12  Cr    Cr6+3 0.883970 0.823720 0.751490 1.082274
H1    H     H_    0.686351 0.572277 0.545552 0.103837
H2    H     H_    0.313344 0.571949 0.455614 0.102546
H3    H     H_    0.186351 0.072277 0.545552 0.103837
H4    H     H_    0.813344 0.071949 0.455614 0.102546
H5    H     H_    0.811827 0.247454 0.471262 0.085655
H6    H     H_    0.188515 0.246814 0.527520 0.083578
H7    H     H_    0.311827 0.747454 0.471262 0.085655
H8    H     H_    0.688515 0.746815 0.527520 0.083578
H9    H     H_    0.870266 0.415653 0.545724 0.124719
H10   H     H_    0.130199 0.416745 0.454023 0.126241
H11   H     H_    0.370266 0.915653 0.545724 0.124719
H12   H     H_    0.630199 0.916745 0.454023 0.126241
H13   H     H_    0.855312 0.435205 0.430722 0.147731
H14   H     H_    0.145343 0.434504 0.569172 0.143878
H15   H     H_    0.355312 0.935205 0.430722 0.147731
H16   H     H_    0.645343 0.934504 0.569172 0.143878
H17   H     H_    0.440087 0.350161 0.948145 0.188310
H18   H     H_    0.559712 0.350000 0.052146 0.188219
H19   H     H_    0.940087 0.850160 0.948145 0.188310
H20   H     H_    0.059711 0.850000 0.052146 0.188220
H21   H     H_    0.378398 0.161549 0.953723 0.099450
H22   H     H_    0.621565 0.161194 0.046249 0.099112
H23   H     H_    0.878398 0.661548 0.953723 0.099450
H24   H     H_    0.121565 0.661195 0.046249 0.099112
H25   H     H_    0.400567 0.151323 0.069975 0.186506
H26   H     H_    0.599428 0.151109 0.929965 0.185599
H27   H     H_    0.900567 0.651323 0.069975 0.186506
H28   H     H_    0.099428 0.651110 0.929965 0.185598
H29   H     H_    0.550475 0.017593 0.936047 0.146409
H30   H     H_    0.449602 0.017665 0.063498 0.147031
H31   H     H_    0.050475 0.517594 0.936047 0.146407
H32   H     H_    0.949602 0.517665 0.063498 0.147029
H33   H     H_    0.577920 0.021406 0.051070 0.165381
H34   H     H_    0.422129 0.021655 0.948513 0.166061
H35   H     H_    0.077920 0.521406 0.051070 0.165379
H36   H     H_    0.922129 0.521654 0.948513 0.166060
H37   H     H_    0.646779 0.439212 0.558232 0.196540
H38   H     H_    0.353792 0.439684 0.441389 0.198689
H39   H     H_    0.146779 0.939212 0.558232 0.196541
H40   H     H_    0.853792 0.939684 0.441389 0.198689
H41   H     H_    0.634194 0.397762 0.444865 0.153068
H42   H     H_    0.366318 0.394889 0.554539 0.159869
H43   H     H_    0.134194 0.897762 0.444865 0.153068
H44   H     H_    0.866318 0.894889 0.554539 0.159869
H45   H     H_    0.671212 0.540634 0.429030 0.117384
H46   H     H_    0.329835 0.538147 0.571582 0.116894
H47   H     H_    0.171212 0.040634 0.429030 0.117384
H48   H     H_    0.829834 0.038147 0.571582 0.116894
H49   H     H_    0.344471 0.063230 0.549329 0.132408
H50   H     H_    0.658157 0.063474 0.451899 0.120440
H51   H     H_    0.844471 0.563230 0.549329 0.132408
H52   H     H_    0.158157 0.563474 0.451899 0.120440
H53   H     H_    0.298211 0.058493 0.431761 0.232108
H54   H     H_    0.702631 0.057475 0.568951 0.230474
H55   H     H_    0.798211 0.558493 0.431761 0.232108
H56   H     H_    0.202631 0.557475 0.568951 0.230474
H57   H     H_    0.800829 0.244867 0.583519 0.125935
H58   H     H_    0.200078 0.244567 0.415343 0.126379
H59   H     H_    0.300829 0.744867 0.583519 0.125935
H60   H     H_    0.700078 0.744567 0.415343 0.126379
H61   H     H_    0.721279 0.206560 0.457934 0.135184
H62   H     H_    0.278907 0.204510 0.540925 0.140006
H63   H     H_    0.221279 0.706560 0.457934 0.135184
H64   H     H_    0.778908 0.704510 0.540925 0.140006
O1    O     O_R   0.783100 0.287550 0.345460 -0.525678
O2    O     O_R   0.216900 0.287550 0.654540 -0.527476
O3    O     O_R   0.283100 0.787550 0.345460 -0.525679
O4    O     O_R   0.716900 0.787550 0.654540 -0.527477
O5    O     O_R   0.554710 0.081900 0.170950 -0.509339
O6    O     O_R   0.445290 0.081900 0.829050 -0.514332
O7    O     O_R   0.054710 0.581900 0.170950 -0.509340
O8    O     O_R   0.945290 0.581900 0.829050 -0.514334
O9    O     O_R   0.545650 0.284910 0.163740 -0.447112
O10   O     O_R   0.454350 0.284910 0.836260 -0.449904
O11   O     O_R   0.045650 0.784910 0.163740 -0.447107
O12   O     O_R   0.954350 0.784910 0.836260 -0.449894
O13   O     O_R   0.677950 0.374280 0.185410 -0.465533
O14   O     O_R   0.322050 0.374280 0.814590 -0.465854
O15   O     O_R   0.177950 0.874280 0.185410 -0.465533
O16   O     O_R   0.822050 0.874280 0.814590 -0.465854
O17   O     O_3   0.664670 0.164660 0.254930 -0.321226
O18   O     O_3   0.335330 0.164660 0.745070 -0.304846
O19   O     O_3   0.164670 0.664660 0.254930 -0.321226
O20   O     O_3   0.835330 0.664660 0.745070 -0.304847
O21   O     O_R   0.760020 0.037400 0.337700 -0.512698
O22   O     O_R   0.239980 0.037400 0.662300 -0.512341
O23   O     O_R   0.260020 0.537400 0.337700 -0.512698
O24   O     O_R   0.739980 0.537400 0.662300 -0.512342
O25   O     O_R   0.666600 0.921990 0.332020 -0.533339
O26   O     O_R   0.333400 0.921990 0.667980 -0.528884
O27   O     O_R   0.166600 0.421990 0.332020 -0.533339
O28   O     O_R   0.833400 0.421990 0.667980 -0.528884
O29   O     O_R   0.557260 0.082670 0.312540 -0.487946
O30   O     O_R   0.442740 0.082670 0.687460 -0.502879
O31   O     O_R   0.057260 0.582670 0.312540 -0.487946
O32   O     O_R   0.942740 0.582670 0.687460 -0.502880
O33   O     O_R   0.548410 0.285740 0.316480 -0.485555
O34   O     O_R   0.451590 0.285740 0.683520 -0.499733
O35   O     O_R   0.048410 0.785740 0.316480 -0.485553
O36   O     O_R   0.951590 0.785740 0.683520 -0.499729
O37   O     O_R   0.680500 0.375040 0.327000 -0.508467
O38   O     O_R   0.319500 0.375040 0.673000 -0.497301
O39   O     O_R   0.180500 0.875040 0.327000 -0.508467
O40   O     O_R   0.819500 0.875040 0.673000 -0.497301
O41   O     O_R   0.780350 0.286720 0.192720 -0.492803
O42   O     O_R   0.219650 0.286720 0.807280 -0.495684
O43   O     O_R   0.280350 0.786720 0.192720 -0.492803
O44   O     O_R   0.719650 0.786720 0.807280 -0.495683
O45   O     O_R   0.757470 0.036630 0.196110 -0.491744
O46   O     O_R   0.242530 0.036630 0.803890 -0.493723
O47   O     O_R   0.257470 0.536630 0.196110 -0.491745
O48   O     O_R   0.742530 0.536630 0.803890 -0.493724
O49   O     O_R   0.663840 0.921160 0.179280 -0.505540
O50   O     O_R   0.336160 0.921160 0.820720 -0.505971
O51   O     O_R   0.163840 0.421160 0.179280 -0.505542
O52   O     O_R   0.836160 0.421160 0.820720 -0.505972
S1    S     S_3+6 0.550508 0.415514 0.922570 0.019571
O53   O     O_2   0.594129 0.488843 0.975010 -0.283051
O54   O     O_2   0.597012 0.349013 0.879416 -0.317232
O55   O     O_3   0.501231 0.510762 0.872077 -0.468989
H65   H     H_    0.534453 0.559205 0.849148 0.361825
S2    S     S_3+6 0.449266 0.415659 0.077936 0.021048
O56   O     O_2   0.405514 0.488972 0.025687 -0.283928
O57   O     O_2   0.402892 0.349321 0.121021 -0.312824
O58   O     O_3   0.498503 0.510905 0.128568 -0.468259
H66   H     H_    0.465262 0.559537 0.151584 0.362538
S3    S     S_3+6 0.050508 0.915514 0.922570 0.019569
O59   O     O_2   0.094129 0.988843 0.975011 -0.283071
O60   O     O_2   0.097012 0.849014 0.879415 -0.317214
O61   O     O_3   0.001231 0.010762 0.872078 -0.468996
H67   H     H_    0.034453 0.059235 0.849168 0.361829
S4    S     S_3+6 0.949266 0.915659 0.077936 0.021045
O62   O     O_2   0.905515 0.988973 0.025687 -0.283939
O63   O     O_2   0.902892 0.849321 0.121020 -0.312816
O64   O     O_3   0.998503 0.010904 0.128569 -0.468264
H68   H     H_    0.965261 0.059549 0.151575 0.362542
F1    F     F_    0.695841 0.251313 0.576208 -0.690772
F2    F     F_    0.305088 0.251315 0.422982 -0.684496
F3    F     F_    0.195841 0.751313 0.576208 -0.690772
F4    F     F_    0.805088 0.751315 0.422982 -0.684496

loop_
_geom_bond_atom_site_label_1
_geom_bond_atom_site_label_2
_ccdc_geom_bond_type
C36   S4    S    
C13   F1    S    
C58   C62   S    
C79   O11   A    
C94   H38   S    
C8    C24   S    
Cr11  O15   S    
C42   H30   S    
C9    H9    S    
C14   C18   S    
C1    O21   A    
C35   C36   S    
C8    C96   S    
Cr2   O18   S    
C83   O15   A    
S2    O57   D    
Cr3   O43   S    
Cr7   O19   S    
C9    C25   S    
C70   O2    A    
C36   H20   S    
C76   O52   A    
C67   C83   S    
C96   H4    S    
C11   C19   S    
C31   H63   S    
C48   O36   A    
C82   O14   A    
C42   H25   S    
C80   O8    A    
C13   C29   S    
C16   C20   S    
C8    H44   S    
C25   H55   S    
C72   O40   A    
Cr5   O17   S    
C74   O46   A    
Cr6   O26   S    
Cr2   O2    S    
Cr5   O25   S    
C30   H62   S    
Cr11  O39   S    
C9    H51   S    
C33   C49   S    
O64   H68   S    
C6    C22   S    
Cr3   O23   S    
S1    O55   S    
C5    H41   S    
C49   C78   S    
Cr2   O22   S    
S2    O58   S    
C46   O34   A    
C48   O32   A    
C95   H3    S    
Cr1   O21   S    
C37   C42   S    
C12   H50   S    
C51   C80   S    
Cr10  O10   S    
C21   C25   S    
C59   C67   T    
C33   H17   S    
C82   O42   A    
C55   C74   S    
C13   H57   S    
C58   C66   T    
C40   C43   S    
C81   O41   A    
C71   O3    A    
C78   O6    A    
C6    C94   S    
Cr8   O20   S    
C55   C63   T    
Cr11  O11   S    
Cr4   O4    S    
C77   O9    A    
S3    O59   D    
C56   C64   T    
C93   H37   S    
C73   O49   A    
C11   C27   S    
C14   H58   S    
C52   C79   S    
O58   H66   S    
C41   H29   S    
C36   C52   S    
Cr12  O36   S    
C46   C85   S    
Cr7   O51   S    
C5    C93   S    
C10   C26   S    
C44   H27   S    
Cr1   O17   S    
C20   C96   S    
C46   O30   A    
C75   O51   A    
C44   H32   S    
C12   H12   S    
C87   C92   T    
Cr8   O28   S    
Cr6   O6    S    
C15   H59   S    
Cr4   O20   S    
C69   O1    A    
C14   C30   S    
C34   S2    S    
C96   H40   S    
C31   H7    S    
C3    C18   S    
Cr12  O40   S    
S1    O53   D    
Cr7   O31   S    
C23   C27   S    
Cr4   O24   S    
C10   C18   S    
C34   C50   S    
C41   H26   S    
Cr1   O1    S    
C37   H34   S    
Cr12  O12   S    
C28   H54   S    
C68   C84   S    
Cr9   O17   S    
Cr6   O18   S    
C95   H39   S    
Cr10  O14   S    
C38   C41   S    
C11   H11   S    
C16   F4    S    
C57   C65   T    
C91   C92   S    
C81   O13   A    
C27   H15   S    
Cr2   O42   S    
C54   C62   T    
C40   C52   S    
C21   C29   S    
C15   C31   S    
C94   H2    S    
S4    O64   S    
C3    O23   A    
C11   H49   S    
C21   C69   S    
C2    O22   A    
C23   C31   S    
C15   C19   S    
C24   C32   S    
Cr3   O19   S    
C10   H10   S    
C23   C71   S    
S3    O61   S    
C66   C82   S    
C37   C49   S    
Cr8   O52   S    
C65   C81   S    
C88   C91   T    
C75   O47   A    
C34   H18   S    
C12   C20   S    
S4    O63   D    
C33   C34   S    
C39   C51   S    
C48   C87   S    
C47   O31   A    
Cr7   O27   S    
C32   H8    S    
C3    O27   A    
C57   C61   S    
C73   O45   A    
C60   C68   T    
C6    H46   S    
Cr12  O20   S    
C42   C50   S    
C7    H43   S    
C4    C17   S    
Cr8   O32   S    
C9    C17   S    
C15   F3    S    
C71   O39   A    
Cr2   O46   S    
S3    O60   D    
C18   C94   S    
C38   H33   S    
Cr1   O45   S    
C59   C63   S    
C84   O16   A    
C53   C76   S    
C17   C93   S    
Cr10  O18   S    
Cr9   O37   S    
C53   C61   T    
C50   C77   S    
C10   H52   S    
C35   H19   S    
C19   C95   S    
C24   C72   S    
C12   C28   S    
C30   H6    S    
C35   S3    S    
Cr5   O49   S    
C4    O24   A    
C29   H5    S    
O61   H67   S    
Cr4   O44   S    
C1    C20   S    
C45   O33   A    
C56   C73   S    
C22   C30   S    
C2    C19   S    
C2    O26   A    
Cr11  O35   S    
Cr12  O16   S    
C1    O25   A    
C24   C28   S    
C80   O12   A    
Cr3   O47   S    
C86   C89   T    
Cr10  O34   S    
C83   O43   A    
C85   C90   T    
C28   H16   S    
Cr9   O33   S    
C39   C44   S    
C38   C50   S    
C32   H64   S    
C47   O35   A    
C43   H31   S    
C16   C32   S    
C41   C49   S    
C7    C95   S    
C74   O50   A    
C33   S1    S    
C43   H28   S    
C38   H22   S    
C13   C17   S    
C60   C64   S    
Cr9   O9    S    
C47   C88   S    
C45   C86   S    
Cr6   O30   S    
Cr5   O29   S    
C27   H53   S    
C35   C51   S    
C44   C52   S    
Cr8   O8    S    
C7    C23   S    
C39   H23   S    
C16   H60   S    
C5    H45   S    
C43   C51   S    
Cr6   O50   S    
C26   H56   S    
S4    O62   D    
S1    O54   D    
C7    H47   S    
C37   H21   S    
C29   H61   S    
C69   O37   A    
Cr7   O7    S    
C72   O4    A    
C40   H24   S    
S2    O56   D    
C8    H48   S    
C77   O5    A    
Cr3   O3    S    
Cr9   O13   S    
O55   H65   S    
C54   C75   S    
C6    H42   S    
C4    O28   A    
C79   O7    A    
C5    C21   S    
C39   H36   S    
Cr4   O48   S    
C45   O29   A    
C22   C26   S    
C40   H35   S    
Cr11  O19   S    
C76   O48   A    
Cr1   O41   S    
C26   H14   S    
C70   O38   A    
C78   O10   A    
C89   C90   S    
C25   H13   S    
C22   C70   S    
Cr5   O5    S    
C84   O44   A    
C93   H1    S    
C14   F2    S    
Cr10  O38   S    
