data_mof_unit_43732.cif
_audit_creation_date              2012-12-10T17:10:58-0500
_audit_creation_method            fapswitch 2.2
_symmetry_space_group_name_H-M    P1
_symmetry_Int_Tables_number       1
_space_group_crystal_system       triclinic
_cell_length_a                    11.700571
_cell_length_b                    12.996429
_cell_length_c                    13.336251
_cell_angle_alpha                 92.704015
_cell_angle_beta                  76.292082
_cell_angle_gamma                 101.197585
_cell_volume                      1932.71332413

loop_
_atom_site_label
_atom_site_type_symbol
_atom_type_description
_atom_site_fract_x
_atom_site_fract_y
_atom_site_fract_z
_atom_type_partial_charge
C1    C     C_R   0.522706 0.701043 0.500419 0.804657
C2    C     C_R   0.451531 0.479189 0.973744 0.064323
C3    C     C_R   0.469664 0.450030 0.868853 0.049311
C4    C     C_R   0.539340 0.470937 0.028845 -0.019161
C5    C     C_R   0.628738 0.411016 0.986476 -0.117982
C6    C     C_R   0.647813 0.383159 0.880555 -0.161024
C7    C     C_R   0.559201 0.390584 0.826984 0.346498
C8    C     C_R   0.541660 0.522420 0.124487 -0.124999
C9    C     C_R   0.677192 0.412727 0.155660 0.376527
C10   C     C_R   0.395524 0.479970 0.809464 -0.087582
C11   C     C_R   0.460034 0.184541 0.504082 -0.090387
C12   C     C_R   0.435366 0.490153 0.696242 0.873189
C13   C     C_R   0.538487 0.815554 0.498259 -0.220312
C14   C     C_R   0.655617 0.985772 0.435326 -0.035549
C15   C     C_R   0.647156 0.877104 0.444703 -0.241209
C16   C     C_R   0.439476 0.862279 0.544087 0.411367
C17   C     C_R   0.441201 0.967396 0.521625 0.006621
C18   C     C_R   0.552608 0.030681 0.473978 0.012238
C19   C     C_R   0.560375 0.138894 0.469581 -0.240265
C20   C     C_R   0.346236 0.122077 0.539996 0.331530
C21   C     C_R   0.335996 0.012491 0.549467 -0.110238
C22   C     C_R   0.941508 0.585749 0.609481 0.243753
C23   C     C_R   0.476943 0.298856 0.500474 0.883577
C24   C     C_R   0.823833 0.582469 0.593693 0.546607
C25   C     C_R   0.859552 0.465033 0.453238 0.008649
C26   C     C_R   0.978915 0.472147 0.461421 -0.114673
C27   C     C_R   0.020555 0.531481 0.540797 0.000816
C28   C     C_R   0.140441 0.534204 0.549335 0.076104
C29   C     C_R   0.174012 0.424299 0.402113 0.624773
C30   C     C_R   0.056971 0.420175 0.391793 -0.185454
C31   C     C_R   0.563842 0.502196 0.303595 0.910322
C32   C     C_R   0.693279 0.377118 0.052662 0.400478
C33   C     C_R   0.599706 0.483922 0.191833 -0.220253
C34   C     C_R   0.288668 0.512435 0.859550 -0.242024
C35   C     C_R   0.257801 0.521208 0.967156 0.004119
C36   C     C_R   0.340575 0.506787 0.023291 -0.142146
Cu1   Cu    Cu3+1 0.386470 0.492430 0.492410 1.024528
Cu2   Cu    Cu3+1 0.613530 0.507570 0.507590 1.070979
H1    H     H_    0.174129 0.579758 0.609793 0.197638
H2    H     H_    0.027088 0.374974 0.329202 0.175298
H3    H     H_    0.826843 0.416767 0.393845 0.181339
H4    H     H_    0.230098 0.532220 0.814510 0.195323
H5    H     H_    0.316413 0.513968 0.106435 0.192419
H6    H     H_    0.645752 0.189704 0.440090 0.196164
N1    N     N_R   0.215880 0.481050 0.481000 -0.251256
N2    N     N_R   0.784100 0.518950 0.519000 -0.196789
O1    O     O_R   0.419710 0.645650 0.494620 -0.543759
O2    O     O_R   0.611450 0.658430 0.507430 -0.539427
O3    O     O_R   0.357340 0.490460 0.641450 -0.614085
O4    O     O_R   0.549080 0.503250 0.654260 -0.491421
O5    O     O_R   0.388550 0.341570 0.492570 -0.575622
O6    O     O_R   0.580290 0.354350 0.505380 -0.570311
O7    O     O_R   0.450920 0.496750 0.345740 -0.561323
O8    O     O_R   0.642660 0.509540 0.358550 -0.537936
O9    O     O_3   0.730946 0.374933 0.224616 -0.733252
H7    H     H_    0.789037 0.331670 0.188403 0.377784
O10   O     O_3   0.248065 0.170874 0.567471 -0.682307
H8    H     H_    0.174600 0.121128 0.561191 0.348533
C37   C     C_2   0.769848 0.050498 0.378149 0.844321
O11   O     O_2   0.861708 0.055495 0.408205 -0.533563
O12   O     O_R   0.771572 0.105702 0.290135 -0.746070
H9    H     H_    0.853926 0.147568 0.258494 0.345008
C38   C     C_2   0.215102 0.946675 0.584670 0.960170
O13   O     O_2   0.179127 0.875832 0.529601 -0.515214
O14   O     O_R   0.142502 0.966403 0.680317 -0.714896
H10   H     H_    0.062348 0.916443 0.695563 0.357259
C39   C     C_2   0.750190 0.827267 0.393140 0.965852
O15   O     O_2   0.836572 0.835532 0.431369 -0.478634
O16   O     O_R   0.748762 0.769379 0.302344 -0.716875
H11   H     H_    0.673522 0.768798 0.277128 0.306937
O17   O     O_3   0.343077 0.807914 0.615126 -0.692164
H12   H     H_    0.370874 0.756133 0.651365 0.319808
O18   O     O_3   0.243843 0.371129 0.328337 -0.725737
H13   H     H_    0.299252 0.344261 0.360423 0.361930
O19   O     O_3   0.980030 0.639356 0.690956 -0.704590
H14   H     H_    0.909519 0.642404 0.748469 0.350768
O20   O     O_3   0.748301 0.643908 0.651013 -0.696060
H15   H     H_    0.797112 0.707999 0.673274 0.326024
C40   C     C_2   0.769043 0.368283 0.820552 0.882722
O21   O     O_2   0.780762 0.314497 0.742406 -0.587072
O22   O     O_R   0.871194 0.420910 0.851623 -0.680922
H16   H     H_    0.948293 0.407106 0.804141 0.352119
O23   O     O_3   0.760170 0.299412 0.023613 -0.696632
H17   H     H_    0.720268 0.248747 0.978939 0.329837
C41   C     C_2   0.506651 0.628052 0.142941 0.859530
O24   O     O_2   0.470644 0.660046 0.230138 -0.588158
O25   O     O_R   0.518244 0.692447 0.058530 -0.732306
H18   H     H_    0.492458 0.761926 0.079799 0.350093
C42   C     C_2   0.141030 0.548477 0.020979 0.895562
O26   O     O_2   0.069978 0.563358 0.971566 -0.538440
O27   O     O_R   0.111336 0.556424 0.128687 -0.752356
H19   H     H_    0.029025 0.574350 0.156285 0.358915
O28   O     O_3   0.551851 0.332775 0.738405 -0.705625
H20   H     H_    0.574590 0.264461 0.745857 0.353743

loop_
_geom_bond_atom_site_label_1
_geom_bond_atom_site_label_2
_ccdc_geom_bond_type
O25   H18   S    
C38   O14   S    
O28   H20   S    
O18   H13   S    
C14   C18   A    
C35   C36   A    
C34   H4    S    
C4    C8    A    
C12   O3    A    
C23   O6    A    
O20   H15   S    
C14   C37   S    
C11   C19   A    
C26   C27   A    
Cu1   Cu2   S    
C8    C41   S    
C3    C7    A    
C5    C6    A    
Cu1   O5    S    
C29   O18   S    
C34   C35   A    
C9    C32   A    
C16   C17   A    
C31   C33   S    
C9    O9    S    
Cu1   O1    S    
Cu2   O2    S    
C5    C32   A    
Cu1   O7    S    
C37   O11   D    
C9    C33   A    
O12   H9    S    
C16   O17   S    
C22   O19   S    
O22   H16   S    
C41   O25   S    
C7    O28   S    
C28   N1    A    
C37   O12   S    
Cu2   N2    S    
C39   O15   D    
C25   H3    S    
O27   H19   S    
C40   O22   S    
C18   C19   A    
C28   H1    S    
C25   C26   A    
C41   O24   D    
C11   C20   A    
C17   C21   A    
C40   O21   D    
C29   N1    A    
C39   O16   S    
C1    C13   S    
C2    C4    A    
O19   H14   S    
C29   C30   A    
Cu1   O3    S    
C23   O5    A    
O23   H17   S    
Cu2   O8    S    
C15   C39   S    
O9    H7    S    
C17   C18   A    
C30   H2    S    
C10   C34   A    
C31   O7    A    
C10   C12   S    
C35   C42   S    
C26   C30   A    
C22   C27   A    
C13   C15   A    
C22   C24   A    
C42   O27   S    
Cu1   N1    S    
C19   H6    S    
C2    C36   A    
C32   O23   S    
C1    O1    A    
C4    C5    A    
C12   O4    A    
C1    O2    A    
C6    C7    A    
Cu2   O4    S    
C24   N2    A    
C2    C3    A    
C42   O26   D    
O17   H12   S    
C3    C10   A    
O10   H8    S    
C11   C23   S    
C8    C33   A    
C31   O8    A    
O16   H11   S    
C21   C38   S    
C6    C40   S    
C38   O13   D    
C24   O20   S    
Cu2   O6    S    
C20   C21   A    
O14   H10   S    
C13   C16   A    
C27   C28   A    
C14   C15   A    
C36   H5    S    
C20   O10   S    
C25   N2    A    
