data_mof_unit_45679.cif
_audit_creation_date              2013-03-05T15:45:20-0500
_audit_creation_method            fapswitch 2.2
_symmetry_space_group_name_H-M    P1
_symmetry_Int_Tables_number       1
_space_group_crystal_system       triclinic
_cell_length_a                    10.83272
_cell_length_b                    11.051551
_cell_length_c                    10.035093
_cell_angle_alpha                 111.866906
_cell_angle_beta                  100.610118
_cell_angle_gamma                 92.103008
_cell_volume                      1088.5620667

loop_
_atom_site_label
_atom_site_type_symbol
_atom_site_description
_atom_site_fract_x
_atom_site_fract_y
_atom_site_fract_z
_atom_type_partial_charge
O1    O     O_R   0.511700 0.332340 0.577400 -0.563037
O2    O     O_R   0.488300 0.667660 0.422600 -0.563464
O3    O     O_R   0.474680 0.295500 0.332650 -0.536087
O4    O     O_R   0.525320 0.704500 0.667350 -0.536216
C1    C     C_R   0.491090 0.253838 0.439866 0.856403
C2    C     C_R   0.509068 0.746170 0.560140 0.854058
O5    O     O_R   0.338170 0.518410 0.622370 -0.550160
O6    O     O_R   0.661830 0.481590 0.377630 -0.551342
O7    O     O_R   0.301150 0.481570 0.377630 -0.580721
O8    O     O_R   0.698850 0.518430 0.622370 -0.581332
C3    C     C_R   0.262620 0.509570 0.499051 0.796606
C4    C     C_R   0.737565 0.491146 0.501159 0.795578
Cu1   Cu    Cu3+1 0.521920 0.521810 0.644910 1.088063
Cu2   Cu    Cu3+1 0.478080 0.478190 0.355090 1.087599
C5    C     C_R   0.170953 0.676492 0.753030 -0.193771
C6    C     C_R   0.830106 0.326269 0.247034 -0.193121
C7    C     C_R   0.142744 0.716727 0.891750 0.257555
C8    C     C_R   0.857744 0.288305 0.108138 0.256044
C9    C     C_R   0.030696 0.661909 0.908757 0.322290
C10   C     C_R   0.969097 0.345112 0.091596 0.323242
C11   C     C_R   0.942529 0.579959 0.782374 -0.179508
C12   C     C_R   0.057448 0.425957 0.218551 -0.179162
C13   C     C_R   0.965838 0.547551 0.638991 0.030769
C14   C     C_R   0.034521 0.455906 0.361663 0.028794
C15   C     C_R   0.088567 0.582194 0.628318 0.037321
C16   C     C_R   0.912094 0.420438 0.372210 0.036830
C17   C     C_R   0.873612 0.478663 0.506780 -0.106468
C18   C     C_R   0.126879 0.523551 0.493808 -0.108587
H1    H     H_    0.257969 0.720613 0.743196 0.190182
H2    H     H_    0.743590 0.280929 0.256518 0.190280
H3    H     H_    0.861506 0.534243 0.800732 0.235162
H4    H     H_    0.138370 0.473119 0.201530 0.234951
H5    H     H_    0.484104 0.862465 0.370367 0.224151
H6    H     H_    0.516915 0.137557 0.629670 0.224265
C19   C     C_2   0.487424 0.113379 0.406323 -0.271740
C20   C     C_2   0.513094 0.886649 0.593700 -0.272439
C21   C     C_2   0.502154 0.069830 0.515544 -0.087398
C22   C     C_2   0.498733 0.930200 0.484485 -0.087518
H7    H     H_    0.527246 0.954564 0.707548 0.210565
H8    H     H_    0.473238 0.045478 0.292479 0.210971
N1    N     N_2   0.445130 0.445420 0.137360 -0.074841
N2    N     N_2   0.554870 0.554580 0.862640 -0.075054
C23   C     C_2   0.512107 0.509852 0.081728 0.355992
C24   C     C_2   0.488608 0.488363 0.917035 0.358569
N3    N     N_R   0.994123 0.322796 0.948664 0.152839
O9    O     O_R   0.901986 0.300632 0.836160 -0.315999
O10   O     O_R   0.109301 0.340890 0.933876 -0.292531
N4    N     N_R   0.004690 0.687684 0.051881 0.152763
O11   O     O_R   0.095960 0.706621 0.164292 -0.315357
O12   O     O_R   0.888710 0.676533 0.067113 -0.288235
Br1   Br    Br    0.260338 0.847785 0.052054 -0.391728
Br2   Br    Br    0.739750 0.158148 0.947238 -0.394635
Br3   Br    Br    0.347744 0.364081 0.783432 -0.347073
Br4   Br    Br    0.654153 0.633242 0.214007 -0.349264
Br5   Br    Br    0.592543 0.738512 0.968241 -0.264356
Br6   Br    Br    0.398113 0.262577 0.032230 -0.260697

loop_
_geom_bond_atom_site_label_1
_geom_bond_atom_site_label_2
_geom_bond_distance
_ccdc_geom_bond_type
O7    Cu2   1.970952 S    
N1    Br6   1.895848 S    
C21   C22   1.453640 S    
C13   C17   1.428856 A    
N2    Br5   1.896520 S    
H6    C21   1.087503 S    
N1    C23   1.323816 D    
C12   H4    1.075724 S    
C23   Br4   1.932563 S    
H5    C22   1.087575 S    
O6    C4    1.320044 A    
C23   C24   1.549487 S    
C7    Br1   1.919043 S    
N4    O12   1.300165 A    
C19   H8    1.086363 S    
O3    C1    1.306063 A    
C8    Br2   1.919620 S    
C6    C8    1.391301 A    
N3    O9    1.300734 A    
C15   C18   1.410205 A    
O5    C3    1.319812 A    
O7    C3    1.292490 A    
C14   C16   1.402909 A    
C16   C17   1.411092 A    
O2    C2    1.299124 A    
O3    Cu2   1.944549 S    
N2    C24   1.323638 D    
C3    C18   1.477524 S    
Cu2   N1    2.036274 S    
O1    C1    1.299133 A    
O8    C4    1.292393 A    
C20   C22   1.338906 D    
N4    O11   1.300798 A    
C9    C11   1.405620 A    
C2    C20   1.457997 S    
C5    H1    1.082770 S    
C8    C10   1.404467 A    
C13   C15   1.403997 A    
C11   C13   1.420885 A    
C6    C16   1.413269 A    
O2    Cu2   1.937641 S    
C12   C14   1.420229 A    
C5    C15   1.413400 A    
O1    Cu1   1.937642 S    
C4    C17   1.477932 S    
C6    H2    1.082773 S    
C7    C9    1.403122 A    
C1    C19   1.458013 S    
O5    Cu1   1.958849 S    
C14   C18   1.427039 A    
O4    C2    1.306069 A    
N3    O10   1.300277 A    
O4    Cu1   1.944549 S    
C5    C7    1.390862 A    
C9    N4    1.439961 S    
Cu1   N2    2.036273 S    
O6    Cu2   1.958849 S    
C19   C21   1.338876 D    
Cu1   Cu2   2.710486 S    
C24   Br3   1.932254 S    
C20   H7    1.086467 S    
C10   N3    1.440914 S    
C10   C12   1.406298 A    
C11   H3    1.075128 S    
O8    Cu1   1.970951 S    
