data_mof_unit_36823.cif
_audit_creation_date              2013-03-05T15:55:23-0500
_audit_creation_method            fapswitch 2.2
_symmetry_space_group_name_H-M    P1
_symmetry_Int_Tables_number       1
_space_group_crystal_system       triclinic
_cell_length_a                    27.534468
_cell_length_b                    10.721883
_cell_length_c                    9.95478
_cell_angle_alpha                 89.380228
_cell_angle_beta                  91.40097
_cell_angle_gamma                 91.621372
_cell_volume                      2936.65800648

loop_
_atom_site_label
_atom_site_type_symbol
_atom_site_description
_atom_site_fract_x
_atom_site_fract_y
_atom_site_fract_z
_atom_type_partial_charge
O1    O     O_R   0.500000 0.316780 0.614690 -0.588283
O2    O     O_R   0.500000 0.316750 0.385360 -0.596103
C1    C     C_R   0.506919 0.262269 0.500891 0.980239
O3    O     O_R   0.428760 0.500030 0.614650 -0.589870
O4    O     O_R   0.428750 0.500010 0.385320 -0.653319
C2    C     C_R   0.406308 0.499227 0.497993 0.978170
Zn1   Zn    Zn3+2 0.500000 0.500020 0.653130 1.066195
Zn2   Zn    Zn3+2 0.500000 0.499980 0.346870 1.049708
O5    O     O_R   0.500000 0.683250 0.614640 -0.607627
O6    O     O_R   0.500000 0.683220 0.385310 -0.581414
O7    O     O_R   0.571250 0.499990 0.614680 -0.562749
O8    O     O_R   0.571240 0.499970 0.385350 -0.591313
C3    C     C_R   0.498838 0.740749 0.499008 0.968877
C4    C     C_R   0.593845 0.501247 0.501521 1.019400
C5    C     C_R   0.176860 0.450286 0.566855 0.628139
O9    O     O_2   0.202906 0.406479 0.672646 -0.409104
N1    N     N_R   0.200997 0.500479 0.460498 -0.352067
C6    C     C_R   0.177506 0.552143 0.352599 0.628775
C7    C     C_R   0.278727 0.612062 0.504340 0.333459
C8    C     C_R   0.329515 0.611058 0.515777 0.164921
C9    C     C_R   0.327424 0.391407 0.451806 0.228141
C10   C     C_R   0.277159 0.393871 0.438944 -0.097311
C11   C     C_R   0.252862 0.503046 0.465391 0.098128
C12   C     C_R   0.100856 0.512983 0.462420 -0.107407
C13   C     C_R   0.125741 0.448507 0.567455 -0.143538
C14   C     C_R   0.098715 0.383778 0.667252 0.310957
C15   C     C_R   0.126776 0.565222 0.353208 -0.155862
C16   C     C_R   0.353707 0.500036 0.490812 -0.185687
H1    H     H_    0.256623 0.310044 0.411133 0.206681
C17   C     C_R   0.646571 0.518303 0.504904 -0.290057
C18   C     C_R   0.976478 0.516714 0.597093 0.090947
C19   C     C_R   0.972970 0.584567 0.362240 0.038982
C20   C     C_R   0.949482 0.558002 0.483732 0.100029
C21   C     C_R   0.954644 0.516608 0.723272 -0.115324
C22   C     C_R   0.905131 0.533569 0.733227 -0.061765
C23   C     C_R   0.876538 0.554771 0.617580 -0.036519
C24   C     C_R   0.898693 0.570174 0.491968 -0.092789
C25   C     C_R   0.870181 0.595062 0.375015 -0.116381
C26   C     C_R   0.819261 0.595988 0.387419 0.637304
N2    N     N_R   0.798801 0.574475 0.509568 -0.334886
C27   C     C_R   0.826103 0.558311 0.624137 0.654218
C28   C     C_R   0.727443 0.434150 0.510024 0.241706
C29   C     C_R   0.676866 0.414268 0.506387 0.202684
C30   C     C_R   0.666681 0.640639 0.509314 0.168781
C31   C     C_R   0.717226 0.659753 0.514704 0.292069
C32   C     C_R   0.747283 0.556211 0.515143 0.004558
O10   O     O_2   0.804178 0.542239 0.743163 -0.449367
C33   C     C_R   0.024900 0.480784 0.581156 -0.041544
C34   C     C_R   0.050133 0.526711 0.467841 0.038024
C35   C     C_R   0.024621 0.587379 0.361136 -0.050773
C36   C     C_R   0.048180 0.396524 0.670596 0.181547
H2    H     H_    0.889198 0.526193 0.831274 0.220136
H3    H     H_    0.975772 0.503974 0.815198 0.193625
O11   O     O_2   0.203728 0.592088 0.246984 -0.444027
C37   C     C_R   0.101835 0.633885 0.252188 0.250559
C38   C     C_R   0.944067 0.603612 0.245714 -0.164364
C39   C     C_R   0.893706 0.611410 0.250767 0.338118
O12   O     O_2   0.789903 0.614518 0.279268 -0.433958
C40   C     C_R   0.051517 0.649429 0.259001 0.172596
H4    H     H_    0.960026 0.607997 0.147764 0.194703
C41   C     C_R   0.533648 0.111875 0.751142 0.331068
C42   C     C_R   0.517662 0.053608 0.868517 -0.062271
H5    H     H_    0.529207 0.089856 0.965140 0.239903
C43   C     C_R   0.486713 0.949253 0.861273 -0.103492
H6    H     H_    0.471914 0.908311 0.951809 0.203014
C44   C     C_R   0.477301 0.892829 0.737770 -0.038359
H7    H     H_    0.453497 0.811116 0.737141 0.187603
C45   C     C_R   0.498277 0.942363 0.619229 0.043284
C46   C     C_R   0.518380 0.063322 0.623979 0.002253
C47   C     C_R   0.518608 0.131214 0.501735 -0.221395
C48   C     C_R   0.519429 0.067646 0.378308 0.316204
C49   C     C_R   0.515729 0.939340 0.377950 0.223166
C50   C     C_R   0.501586 0.875778 0.497154 -0.193411
H8    H     H_    0.567641 0.592798 0.129570 0.205387
C51   C     C_R   0.424556 0.382480 0.139784 -0.085871
H9    H     H_    0.429790 0.346556 0.239281 0.245682
C52   C     C_R   0.379339 0.365263 0.078755 -0.254970
H10   H     H_    0.349086 0.332245 0.138007 0.231116
C53   C     C_R   0.374074 0.383483 0.940854 0.261640
C54   C     C_R   0.416758 0.395623 0.865491 0.254752
C55   C     C_R   0.460430 0.446415 0.927641 -0.023911
C56   C     C_R   0.462065 0.443740 0.071571 0.118922
N3    N     N_R   0.499540 0.498800 0.142780 -0.129814
C57   C     C_R   0.537389 0.550250 0.073899 -0.061379
C58   C     C_R   0.537688 0.550486 0.931252 0.336576
N4    N     N_R   0.499520 0.498720 0.857170 -0.160494
Br1   Br    Br    0.358074 0.235411 0.423706 -0.383466
Br2   Br    Br    0.244035 0.759997 0.544980 -0.239786
N5    N     N_R   0.127816 0.698921 0.148710 0.281770
O13   O     O_R   0.132097 0.648139 0.031659 -0.256646
O14   O     O_R   0.145359 0.811157 0.169695 -0.243955
Br3   Br    Br    0.625326 0.782545 0.513047 -0.271773
Br4   Br    Br    0.861340 0.646646 0.081548 -0.266107
N6    N     N_R   0.738333 0.783817 0.516696 0.258319
O15   O     O_R   0.726691 0.864309 0.423459 -0.224026
O16   O     O_R   0.772380 0.813374 0.604512 -0.285269
N7    N     N_R   0.029844 0.743900 0.175205 0.216166
O17   O     O_R   0.006893 0.834344 0.229425 -0.295350
O18   O     O_R   0.034477 0.742750 0.045441 -0.302735
N8    N     N_R   0.520868 0.131833 0.251165 0.230032
O19   O     O_R   0.482129 0.132356 0.173686 -0.408111
O20   O     O_R   0.561070 0.184088 0.209870 -0.278858
Br5   Br    Br    0.583264 0.239890 0.773906 -0.307623
Br6   Br    Br    0.531911 0.862239 0.209165 -0.389507
N9    N     N_R   0.327138 0.363495 0.876504 0.268856
O21   O     O_R   0.290341 0.320399 0.944225 -0.269358
O22   O     O_R   0.319692 0.400100 0.753152 -0.331310
Br7   Br    Br    0.418164 0.251881 0.753708 -0.362646
N10   N     N_R   0.578111 0.608531 0.865967 0.233757
O23   O     O_R   0.572255 0.713018 0.801097 -0.328951
O24   O     O_R   0.621928 0.575100 0.898575 -0.297765
Br8   Br    Br    0.128126 0.268208 0.794513 -0.167439
N11   N     N_R   0.656546 0.289356 0.501983 0.241862
O25   O     O_R   0.673081 0.203023 0.582269 -0.223948
O26   O     O_R   0.622240 0.260300 0.415116 -0.334682
Br9   Br    Br    0.770439 0.296218 0.494214 -0.229809
Br10  Br    Br    0.010627 0.275074 0.774256 -0.325424
Br11  Br    Br    0.365697 0.761511 0.562241 -0.400392

loop_
_geom_bond_atom_site_label_1
_geom_bond_atom_site_label_2
_geom_bond_distance
_ccdc_geom_bond_type
C44   C45   1.417944 A    
C9    Br1   1.920808 S    
C10   H1    1.083124 S    
C37   C40   1.403505 A    
Zn2   N3    2.031575 S    
C7    C8    1.400612 A    
C12   C15   1.416740 A    
C8    Br11  1.926488 S    
C55   C56   1.432396 A    
C52   H10   1.081636 S    
Zn1   O7    2.007995 S    
N9    O22   1.298351 A    
C42   H5    1.078615 S    
C35   C40   1.420954 A    
C23   C24   1.410721 A    
C41   Br5   1.920185 S    
C58   N10   1.426857 S    
N10   O24   1.300865 A    
O4    C2    1.293583 A    
O7    C4    1.299860 A    
C15   C37   1.415532 A    
C5    C13   1.407287 A    
Zn1   N4    2.031433 S    
C5    O9    1.347373 S    
C38   C39   1.393704 A    
C53   N9    1.439886 S    
C5    N1    1.361663 A    
C21   C22   1.386566 A    
C28   C32   1.404781 A    
O5    C3    1.300025 A    
C42   C43   1.388552 A    
C33   C36   1.416781 A    
C2    C16   1.448624 S    
C22   C23   1.398933 A    
C45   C46   1.396431 A    
C18   C20   1.410233 A    
C47   C48   1.412469 A    
N5    O14   1.301045 A    
C55   N4    1.399768 A    
C30   Br3   1.927256 S    
C41   C42   1.393949 A    
C44   H7    1.079194 S    
C39   Br4   1.925219 S    
C9    C10   1.387780 A    
C17   C30   1.409960 A    
C23   C27   1.393418 A    
C46   C47   1.411291 A    
C4    C17   1.457732 S    
O3    Zn1   1.989401 S    
C31   N6    1.436601 S    
N7    O18   1.301382 A    
N7    O17   1.301434 A    
C52   C53   1.389161 A    
C1    C47   1.450286 S    
C12   C13   1.420143 A    
O3    C2    1.302178 A    
C7    Br2   1.926254 S    
C26   N2    1.367200 A    
C54   C55   1.434979 A    
C49   Br6   1.947440 S    
C13   C14   1.419291 A    
C58   N4    1.376349 A    
C26   O12   1.346819 S    
C20   C24   1.412666 A    
C38   H4    1.079291 S    
O1    C1    1.300924 A    
C43   C44   1.391513 A    
C7    C11   1.404612 A    
C51   H9    1.066803 S    
C24   C25   1.415421 A    
C25   C39   1.417102 A    
N3    C57   1.361903 A    
O8    C4    1.299862 A    
Zn2   O8    1.989398 S    
N8    O20   1.300135 A    
N1    C6    1.361014 A    
C27   O10   1.350098 S    
C18   C21   1.405713 A    
N1    C11   1.427214 S    
C57   C58   1.420222 A    
N6    O16   1.300996 A    
C51   C52   1.380455 A    
C19   C35   1.421952 A    
C28   Br9   1.930466 S    
N2    C27   1.362754 A    
C9    C16   1.406908 A    
C3    C50   1.447547 S    
C34   C35   1.421034 A    
C18   C33   1.411363 A    
C40   N7    1.438585 S    
C17   C29   1.411362 A    
C28   C29   1.402510 A    
N2    C32   1.428802 S    
C14   Br8   1.941351 S    
C30   C31   1.400785 A    
N11   O25   1.301132 A    
N9    O21   1.301814 A    
C41   C46   1.423395 A    
C12   C34   1.410899 A    
Zn1   O5    1.997516 S    
C33   C34   1.415841 A    
O1    Zn1   2.005656 S    
O2    Zn2   1.997513 S    
C6    C15   1.407968 A    
H8    C57   1.081892 S    
C49   C50   1.419272 A    
O6    C3    1.296355 A    
O4    Zn2   2.007997 S    
C51   C56   1.394795 A    
C8    C16   1.407770 A    
C48   N8    1.434999 S    
C54   Br7   1.912485 S    
C19   C20   1.407998 A    
O2    C1    1.296635 A    
C45   C50   1.422186 A    
C48   C49   1.376608 A    
C37   N5    1.432262 S    
C14   C36   1.403215 A    
C43   H6    1.081804 S    
C25   C26   1.410818 A    
N8    O19   1.301052 A    
C36   Br10  1.943343 S    
N6    O15   1.301082 A    
C6    O11   1.349065 S    
C53   C54   1.411883 A    
C31   C32   1.403265 A    
C21   H3    1.081640 S    
Zn2   O6    2.005655 S    
C56   N3    1.361813 A    
C22   H2    1.081047 S    
C10   C11   1.395240 A    
N5    O13   1.300828 A    
N10   O23   1.299052 A    
C19   C38   1.406955 A    
C29   N11   1.437476 S    
N11   O26   1.298587 A    
