data_mof_unit_52740.cif
_audit_creation_date              2012-12-10T16:57:07-0500
_audit_creation_method            fapswitch 2.2
_symmetry_space_group_name_H-M    P1
_symmetry_Int_Tables_number       1
_space_group_crystal_system       triclinic
_cell_length_a                    7.832513
_cell_length_b                    8.583673
_cell_length_c                    16.525925
_cell_angle_alpha                 92.996967
_cell_angle_beta                  82.483198
_cell_angle_gamma                 92.402396
_cell_volume                      1099.32143905

loop_
_atom_site_label
_atom_site_type_symbol
_atom_type_description
_atom_site_fract_x
_atom_site_fract_y
_atom_site_fract_z
_atom_type_partial_charge
C1    C     C_R   0.544618 0.794079 0.498622 0.952482
C2    C     C_R   0.455276 0.205877 0.501462 0.952438
C3    C     C_2   0.567983 0.956801 0.500115 -0.389288
C4    C     C_2   0.431526 0.043099 0.500139 -0.384799
C5    C     C_R   0.479281 0.497967 0.654424 0.907664
C6    C     C_R   0.519573 0.491802 0.345098 0.896251
C7    C     C_R   0.465767 0.453265 0.738926 -0.203332
C8    C     C_R   0.524194 0.446672 0.257784 -0.190002
C9    C     C_R   0.602340 0.482515 0.785627 0.504403
C10   C     C_R   0.388448 0.355424 0.229732 0.518104
C11   C     C_R   0.587277 0.423928 0.863665 -0.333390
C12   C     C_R   0.414349 0.276686 0.153647 -0.353959
C13   C     C_R   0.448611 0.322970 0.891522 0.004735
C14   C     C_R   0.564454 0.303966 0.100137 0.055874
C15   C     C_R   0.315552 0.290119 0.843141 0.488466
C16   C     C_R   0.698121 0.402169 0.125045 0.514448
C17   C     C_R   0.322949 0.358894 0.768511 -0.387375
C18   C     C_R   0.677649 0.470475 0.205026 -0.439219
C19   C     C_2   0.430950 0.272517 0.975613 -0.220708
C20   C     C_2   0.569947 0.254851 0.013418 -0.183434
H1    H     H_    0.780997 0.540553 0.227188 0.158412
H2    H     H_    0.220387 0.330715 0.731538 0.186127
H3    H     H_    0.695413 0.245606 0.977173 0.199292
H4    H     H_    0.303518 0.280310 0.009969 0.185109
H5    H     H_    0.313150 0.197906 0.135377 0.170027
H6    H     H_    0.681674 0.461726 0.903516 0.179422
H7    H     H_    0.697341 0.004906 0.502244 0.158998
H8    H     H_    0.302010 0.994822 0.498005 0.160743
N1    N     N_2   0.953500 0.457650 0.478520 0.179244
N2    N     N_2   0.046500 0.542350 0.521480 0.183685
O1    O     O_R   0.388470 0.738640 0.505270 -0.653192
O2    O     O_R   0.611530 0.261360 0.494730 -0.659037
O3    O     O_R   0.679650 0.711510 0.491500 -0.593378
O4    O     O_R   0.320350 0.288490 0.508500 -0.591555
O5    O     O_R   0.337210 0.515200 0.623500 -0.659992
O6    O     O_R   0.662790 0.484800 0.376500 -0.646993
O7    O     O_R   0.628380 0.488060 0.609730 -0.541826
O8    O     O_R   0.371620 0.511940 0.390270 -0.534401
Zn1   Zn    Zn3+2 0.305580 0.518120 0.509190 1.015146
Zn2   Zn    Zn3+2 0.694420 0.481880 0.490810 1.014354
O9    O     O_3   0.740551 0.580601 0.757952 -0.607513
C21   C     C_3   0.895784 0.500710 0.754251 -0.208730
H9    H     H_    0.894929 0.394715 0.712462 0.170488
H10   H     H_    0.923612 0.469537 0.815427 0.136820
H11   H     H_    0.004165 0.579087 0.730003 0.199368
O10   O     O_3   0.233109 0.334935 0.278287 -0.569635
C22   C     C_3   0.107821 0.415161 0.244390 -0.250665
H12   H     H_    0.084913 0.362536 0.183696 0.165812
H13   H     H_    0.143538 0.541763 0.240407 0.139310
H14   H     H_    0.983838 0.405286 0.284452 0.217615
O11   O     O_3   0.173903 0.194844 0.868340 -0.635525
C23   C     C_3   0.221554 0.036848 0.862232 0.111479
H15   H     H_    0.241598 0.000921 0.923685 0.155024
H16   H     H_    0.342811 0.014728 0.820106 0.085621
C24   C     C_3   0.078903 0.933023 0.830230 -0.349925
H17   H     H_    0.064342 0.964964 0.767250 0.201887
H18   H     H_    0.117049 0.809378 0.827365 0.173672
C25   C     C_3   0.905993 0.948032 0.884151 -0.763458
H19   H     H_    0.918860 0.924840 0.948501 0.243520
H20   H     H_    0.810627 0.862181 0.861919 0.251142
H21   H     H_    0.857299 0.066943 0.881340 0.270532
O12   O     O_3   0.850353 0.416795 0.071760 -0.665780
C26   C     C_3   0.921160 0.570857 0.071382 0.053133
H22   H     H_    0.988060 0.595011 0.126058 0.144502
H23   H     H_    0.820249 0.658571 0.070796 0.130208
C27   C     C_3   0.052159 0.586508 0.994545 -0.306781
H24   H     H_    0.111986 0.472772 0.976854 0.260385
H25   H     H_    0.985005 0.619702 0.943145 0.204023
C28   C     C_3   0.195468 0.707338 0.007805 -0.983884
H26   H     H_    0.140095 0.821675 0.028756 0.260669
H27   H     H_    0.282342 0.720630 0.949669 0.262540
H28   H     H_    0.272690 0.668461 0.054372 0.269632
O13   O     O_3   0.048117 0.361077 0.425725 -0.489935
C29   C     C_3   0.958442 0.217216 0.421925 -0.105756
H29   H     H_    0.847450 0.224651 0.387131 0.163403
H30   H     H_    0.921802 0.173918 0.484204 0.117920
H31   H     H_    0.045974 0.130949 0.388060 0.156391
O14   O     O_3   0.951380 0.629447 0.579295 -0.508642
C30   C     C_3   0.042585 0.770152 0.592177 -0.166065
H32   H     H_    0.075014 0.830101 0.533965 0.135761
H33   H     H_    0.157413 0.751895 0.622710 0.167952
H34   H     H_    0.957666 0.847875 0.633803 0.143942

loop_
_geom_bond_atom_site_label_1
_geom_bond_atom_site_label_2
_ccdc_geom_bond_type
C27   H25   S    
C24   H17   S    
C26   H23   S    
C5    O7    A    
C18   H1    S    
O9    C21   S    
C2    C4    S    
C19   C20   D    
C1    O3    A    
C22   H13   S    
O12   C26   S    
C29   H30   S    
O7    Zn2   S    
O8    Zn1   S    
C27   C28   S    
N1    O13   S    
C25   H20   S    
C1    O1    A    
C2    O2    A    
O13   C29   S    
C28   H27   S    
O1    Zn1   S    
C7    C17   A    
C29   H31   S    
C10   O10   S    
C6    O8    A    
C15   O11   S    
C23   C24   S    
C2    O4    A    
C25   H21   S    
C27   H24   S    
C26   C27   S    
C16   O12   S    
C4    H8    S    
C23   H16   S    
C22   H14   S    
O3    Zn2   S    
C29   H29   S    
C13   C19   S    
O4    Zn1   S    
C14   C20   S    
O6    Zn2   S    
C5    C7    S    
O14   C30   S    
C6    C8    S    
C11   H6    S    
C25   H19   S    
C20   H3    S    
C8    C18   A    
O11   C23   S    
C1    C3    S    
C21   H11   S    
C28   H28   S    
O5    Zn1   S    
N1    N2    D    
C22   H12   S    
C13   C15   A    
C9    C11   A    
C10   C12   A    
C16   C18   A    
C12   C14   A    
C24   H18   S    
C14   C16   A    
C21   H9    S    
C3    C4    D    
C23   H15   S    
C30   H33   S    
C15   C17   A    
O10   C22   S    
C26   H22   S    
C30   H34   S    
C9    O9    S    
C17   H2    S    
C12   H5    S    
C3    H7    S    
C19   H4    S    
C21   H10   S    
C11   C13   A    
C5    O5    A    
N1    Zn2   S    
C6    O6    A    
N2    Zn1   S    
O2    Zn2   S    
C28   H26   S    
C30   H32   S    
N2    O14   S    
C7    C9    A    
C8    C10   A    
C24   C25   S    
