data_mof_unit_7370.cif
_audit_creation_date              2013-03-05T15:43:09-0500
_audit_creation_method            fapswitch 2.2
_symmetry_space_group_name_H-M    P1
_symmetry_Int_Tables_number       1
_space_group_crystal_system       triclinic
_cell_length_a                    6.976838
_cell_length_b                    13.989104
_cell_length_c                    18.026494
_cell_angle_alpha                 112.805478
_cell_angle_beta                  94.861984
_cell_angle_gamma                 90.744042
_cell_volume                      1613.9936702

loop_
_atom_site_label
_atom_site_type_symbol
_atom_site_description
_atom_site_fract_x
_atom_site_fract_y
_atom_site_fract_z
_atom_type_partial_charge
O1    O     O_R   0.484560 0.544530 0.414330 -0.516437
O2    O     O_R   0.197040 0.638810 0.585080 -0.533746
O3    O     O_R   0.026800 0.455470 0.585670 -0.554186
C1    C     C_R   0.374238 0.679798 0.607580 0.907617
O4    O     O_R   0.155000 0.556150 0.414940 -0.552346
O5    O     O_R   0.984450 0.372220 0.414320 -0.499852
C2    C     C_R   0.319061 0.564093 0.386214 0.842981
O6    O     O_R   0.526900 0.627780 0.585680 -0.537226
O7    O     O_3   0.339170 0.439750 0.499990 -0.261223
V1    V     V_3+5 0.064350 0.511180 0.500000 1.311643
O8    O     O_R   0.654880 0.361190 0.414920 -0.538995
C3    C     C_R   0.817625 0.324732 0.386477 0.908265
O9    O     O_R   0.696930 0.443850 0.585060 -0.595870
C4    C     C_R   0.872287 0.429737 0.609876 0.907555
V2    V     V_3+5 0.564340 0.488820 0.500000 1.283989
O10   O     O_3   0.839390 0.560250 0.500010 -0.203149
C5    C     C_R   0.047045 0.870567 0.828992 -0.237859
C6    C     C_R   0.904295 0.392687 0.676765 -0.220849
C7    C     C_R   0.949973 0.829398 0.688297 0.628308
C8    C     C_R   0.004063 0.798301 0.750542 -0.238323
C9    C     C_R   0.031975 0.978553 0.845282 0.422045
C10   C     C_R   0.012496 0.012535 0.779023 -0.074008
C11   C     C_R   0.960985 0.934705 0.700617 -0.173255
C12   C     C_R   0.032692 0.119640 0.786639 -0.137343
C13   C     C_R   0.983417 0.145920 0.717553 -0.113948
C14   C     C_R   0.923522 0.064503 0.643649 -0.138142
C15   C     C_R   0.919112 0.962032 0.634685 0.597497
C16   C     C_R   0.108084 0.201173 0.859066 0.614189
C17   C     C_R   0.105706 0.303864 0.867614 0.706737
C18   C     C_R   0.037637 0.331006 0.803396 -0.314079
C19   C     C_R   0.987958 0.252975 0.725397 -0.164035
C20   C     C_R   0.020660 0.436173 0.816818 0.697644
C21   C     C_R   0.942865 0.466607 0.756221 0.186684
C22   C     C_R   0.943302 0.287581 0.660110 0.346055
H1    H     H_    0.005677 0.716365 0.737462 0.141785
H2    H     H_    0.870852 0.076421 0.590510 0.193317
H3    H     H_    0.835167 0.035446 0.194075 0.071239
C23   C     C_2   0.135163 0.036726 0.183089 -0.139470
C24   C     C_2   0.973473 0.077965 0.216644 -0.108230
H4    H     H_    0.678598 0.178160 0.295243 0.048404
C25   C     C_2   0.815914 0.221520 0.318477 -0.217321
C26   C     C_2   0.978404 0.180789 0.284607 0.592668
H5    H     H_    0.273496 0.079055 0.205919 0.137378
C27   C     C_R   0.412707 0.786124 0.673634 -0.198579
C28   C     C_R   0.540676 0.469534 0.833934 -0.174152
C29   C     C_R   0.538519 0.887798 0.811610 0.607731
C30   C     C_R   0.479305 0.793050 0.751151 0.250002
C31   C     C_R   0.401562 0.878533 0.658529 0.312748
C32   C     C_R   0.475280 0.979019 0.720460 -0.118757
C33   C     C_R   0.532709 0.979516 0.798139 -0.243838
C34   C     C_R   0.493705 0.078773 0.711739 -0.158547
C35   C     C_R   0.536390 0.174853 0.783354 -0.122787
C36   C     C_R   0.568526 0.166880 0.858927 0.707626
C37   C     C_R   0.576471 0.071977 0.864749 0.024955
C38   C     C_R   0.481728 0.088063 0.635327 0.348103
C39   C     C_R   0.466989 0.184207 0.630382 0.459663
C40   C     C_R   0.473278 0.276324 0.700538 -0.170223
C41   C     C_R   0.534378 0.275294 0.777203 -0.152661
C42   C     C_R   0.421992 0.370028 0.694674 0.344308
C43   C     C_R   0.443270 0.462491 0.762449 -0.260979
C44   C     C_R   0.589142 0.375750 0.842221 0.635366
H6    H     H_    0.606518 0.072072 0.924780 0.191542
H7    H     H_    0.386159 0.530544 0.758256 0.124951
C45   C     C_2   0.321501 0.602730 0.319037 0.228573
C46   C     C_2   0.463602 0.577734 0.267552 0.360092
C47   C     C_2   0.626324 0.652060 0.180978 0.449381
C48   C     C_2   0.461780 0.614301 0.198620 0.290192
O11   O     O_R   0.421600 0.630430 0.917010 -0.508757
O12   O     O_R   0.793840 0.702190 0.087630 -0.522686
O13   O     O_R   0.964010 0.886170 0.088190 -0.579918
C49   C     C_R   0.628896 0.690950 0.114540 0.812743
O14   O     O_R   0.751460 0.619510 0.917500 -0.476229
O15   O     O_R   0.921330 0.802900 0.916840 -0.491263
C50   C     C_R   0.575280 0.576851 0.898605 0.973506
O16   O     O_R   0.464290 0.713700 0.088350 -0.554845
O17   O     O_3   0.609200 0.818520 0.002630 -0.239236
V3    V     V_3+5 0.884140 0.747190 0.002530 1.360252
O18   O     O_R   0.251150 0.814630 0.917340 -0.513280
C51   C     C_R   0.076114 0.828881 0.892891 0.882011
O19   O     O_R   0.293530 0.897310 0.087470 -0.575662
C52   C     C_R   0.131139 0.933637 0.115679 0.801387
V4    V     V_3+5 0.384070 0.769710 0.002370 1.319885
O20   O     O_3   0.109180 0.698190 0.002460 -0.176692
F1    F     F_    0.880795 0.888323 0.558541 -0.613353
F2    F     F_    0.072072 0.510850 0.890820 -0.583315
F3    F     F_    0.152256 0.233829 0.312140 -0.669598
F4    F     F_    0.704176 0.386157 0.909478 -0.620864
O21   O     O_3   0.460937 0.185333 0.553958 -0.606864
H8    H     H_    0.554402 0.240746 0.556489 0.346567
F5    F     F_    0.595985 0.890642 0.886170 -0.660324
O22   O     O_3   0.959905 0.225912 0.580394 -0.705377
H9    H     H_    0.076902 0.186188 0.579286 0.350650
O23   O     O_3   0.474328 0.708458 0.771519 -0.687301
H10   H     H_    0.354685 0.667778 0.742504 0.262190
O24   O     O_3   0.303187 0.866244 0.585736 -0.655164
H11   H     H_    0.245343 0.932230 0.592006 0.351370
F6    F     F_    0.572014 0.248931 0.930384 -0.568348
O25   O     O_3   0.505473 0.007721 0.562809 -0.635305
H12   H     H_    0.575654 0.953585 0.573703 0.369666
O26   O     O_3   0.342009 0.370534 0.622801 -0.658582
H13   H     H_    0.347401 0.443554 0.628196 0.331828
O27   O     O_3   0.292239 0.604733 0.149914 -0.644770
H14   H     H_    0.197665 0.560262 0.161642 0.371504
O28   O     O_3   0.604810 0.513118 0.276066 -0.699518
H15   H     H_    0.677048 0.490442 0.227607 0.346683
F7    F     F_    0.795467 0.657749 0.226275 -0.671594
O29   O     O_3   0.180761 0.666972 0.309548 -0.659308
H16   H     H_    0.096487 0.682778 0.353953 0.372626
O30   O     O_3   0.917054 0.570847 0.776364 -0.696151
H17   H     H_    0.816309 0.578857 0.737351 0.301789
F8    F     F_    0.175048 0.377500 0.940387 -0.547779
F9    F     F_    0.887743 0.755107 0.615225 -0.607901
O31   O     O_3   0.005670 0.047866 0.922411 -0.633856
H18   H     H_    0.018639 0.013957 0.961436 0.298411
F10   F     F_    0.202112 0.184454 0.921319 -0.600048

loop_
_geom_bond_atom_site_label_1
_geom_bond_atom_site_label_2
_geom_bond_distance
_ccdc_geom_bond_type
C13   C19   1.448331 A    
C18   C20   1.403712 A    
C38   C39   1.386526 A    
C28   C43   1.372406 A    
O23   H10   0.988485 S    
C31   O24   1.375452 S    
O14   C50   1.317356 A    
C25   C26   1.359062 D    
C4    C6    1.488021 S    
O12   V3    2.012129 S    
C7    C8    1.378979 A    
C1    O6    1.299428 A    
C32   C34   1.468815 A    
C7    F9    1.354175 S    
C14   C15   1.378531 A    
C33   C37   1.389834 A    
C45   O29   1.383721 S    
C43   H7    1.063631 S    
C16   C17   1.384619 A    
O5    C3    1.292410 A    
C23   C24   1.354007 D    
C40   C42   1.403802 A    
V3    O20   1.721219 S    
O11   C50   1.307618 A    
V2    O10   2.151968 S    
C5    C51   1.480608 S    
C5    C8    1.387001 A    
C39   C40   1.409843 A    
O12   C49   1.316588 A    
O13   C52   1.293435 A    
C22   O22   1.375660 S    
C44   F4    1.352940 S    
O14   V3    1.997702 S    
C8    H1    1.077394 S    
O8    V2    2.002439 S    
O24   H11   0.981966 S    
C46   C48   1.515294 S    
O29   H16   0.990601 S    
C26   F3    1.362783 S    
C11   C15   1.392957 A    
O7    V1    2.173589 S    
C27   C30   1.400616 A    
C41   C44   1.458722 A    
C47   C48   1.369088 D    
C42   C43   1.388159 A    
O9    C4    1.310674 A    
O13   V3    1.993382 S    
C42   O26   1.369213 S    
C47   F7    1.359963 S    
O28   H15   0.990812 S    
C24   C26   1.482107 S    
C30   O23   1.369044 S    
C34   C35   1.463262 A    
C12   C13   1.445658 A    
C9    O31   1.381953 S    
O17   V4    1.703452 S    
O22   H9    0.990683 S    
O4    C2    1.316223 A    
O18   C51   1.307102 A    
C1    C27   1.504905 S    
C36   F6    1.350977 S    
C13   C14   1.401312 A    
C36   C37   1.373162 A    
V4    O20   2.152013 S    
C5    C9    1.429960 A    
C28   C50   1.502428 S    
O2    C1    1.318320 A    
C17   C18   1.400713 A    
C16   F10   1.351682 S    
O18   V4    2.031055 S    
C47   C49   1.496384 S    
O15   C51   1.294268 A    
C19   C22   1.449116 A    
O17   V3    2.173507 S    
C6    C22   1.417085 A    
O3    C4    1.293650 A    
C35   C41   1.451819 A    
O1    V2    2.025014 S    
O19   V4    2.002349 S    
H4    C25   1.086790 S    
C32   C33   1.420783 A    
O6    V2    1.996664 S    
O9    V2    2.031021 S    
C23   C52   1.480477 S    
C10   C12   1.454438 A    
C21   O30   1.377724 S    
O2    V1    1.997660 S    
C35   C36   1.408992 A    
C7    C11   1.402121 A    
C3    C25   1.487444 S    
O31   H18   0.988482 S    
C14   H2    1.070593 S    
C29   C30   1.380174 A    
C15   F1    1.360956 S    
O1    C2    1.296741 A    
C17   F8    1.359417 S    
C12   C16   1.412730 A    
O19   C52   1.308725 A    
O5    V1    1.993371 S    
O8    C3    1.312728 A    
O16   V4    2.033513 S    
C29   F5    1.354845 S    
C37   H6    1.084162 S    
C29   C33   1.395730 A    
O11   V4    1.997489 S    
C45   C46   1.371112 D    
O7    V2    1.706170 S    
O4    V1    2.012133 S    
H3    C24   1.086909 S    
O3    V1    2.014255 S    
V1    O10   1.721192 S    
O30   H17   0.990223 S    
C20   C21   1.391074 A    
C49   O16   1.295038 A    
C40   C41   1.416890 A    
C18   C19   1.416491 A    
C31   C32   1.467736 A    
C20   F2    1.352171 S    
C38   O25   1.379162 S    
C28   C44   1.418723 A    
O26   H13   0.987765 S    
C34   C38   1.428556 A    
O27   H14   0.990979 S    
C6    C21   1.404464 A    
C2    C45   1.506492 S    
C39   O21   1.380915 S    
C23   H5    1.086453 S    
O21   H8    0.991273 S    
O25   H12   0.980024 S    
O15   V3    2.014113 S    
C10   C11   1.422340 A    
C46   O28   1.384293 S    
C9    C10   1.444083 A    
C27   C31   1.422394 A    
C48   O27   1.384450 S    
