data_mof_unit_53999.cif
_audit_creation_date              2013-03-05T15:54:13-0500
_audit_creation_method            fapswitch 2.2
_symmetry_space_group_name_H-M    P1
_symmetry_Int_Tables_number       1
_space_group_crystal_system       triclinic
_cell_length_a                    10.51432
_cell_length_b                    10.722532
_cell_length_c                    9.98973
_cell_angle_alpha                 92.885908
_cell_angle_beta                  92.255951
_cell_angle_gamma                 93.081724
_cell_volume                      1122.18869039

loop_
_atom_site_label
_atom_site_type_symbol
_atom_site_description
_atom_site_fract_x
_atom_site_fract_y
_atom_site_fract_z
_atom_type_partial_charge
O1    O     O_R   0.500000 0.316780 0.614690 -0.571355
O2    O     O_R   0.499990 0.316750 0.385360 -0.623292
C1    C     C_R   0.499365 0.260891 0.496220 0.915142
O3    O     O_R   0.313960 0.499980 0.614650 -0.638190
O4    O     O_R   0.313940 0.499960 0.385310 -0.642494
C2    C     C_R   0.257462 0.498306 0.498104 0.999422
Zn1   Zn    Zn3+2 0.500010 0.500020 0.653130 1.061000
Zn2   Zn    Zn3+2 0.499990 0.499980 0.346870 1.006554
O5    O     O_R   0.500010 0.683250 0.614640 -0.547695
O6    O     O_R   0.500000 0.683220 0.385310 -0.602741
O7    O     O_R   0.686060 0.500040 0.614690 -0.605959
O8    O     O_R   0.686040 0.500020 0.385350 -0.626164
C3    C     C_R   0.511037 0.740291 0.504506 0.967568
C4    C     C_R   0.742136 0.503198 0.502168 0.895294
C5    C     C_3   0.051661 0.583054 0.596856 -0.039886
C6    C     C_3   0.962476 0.468615 0.622054 -0.287081
H1    H     H_    0.928633 0.440589 0.720659 0.185460
C7    C     C_3   0.876995 0.505489 0.504903 -0.039058
C8    C     C_3   0.964444 0.619266 0.480222 0.016523
C9    C     C_3   0.036206 0.538627 0.379244 -0.109120
C10   C     C_3   0.946208 0.424024 0.404326 -0.121227
C11   C     C_3   0.034385 0.387268 0.521213 -0.175604
C12   C     C_3   0.122181 0.501844 0.496808 -0.026222
H2    H     H_    0.069410 0.566392 0.280302 0.177859
H3    H     H_    0.895126 0.359301 0.327631 0.220906
H4    H     H_    0.063399 0.290802 0.533395 0.238629
C13   C     C_R   0.729694 0.156363 0.578465 -0.093461
H5    H     H_    0.738601 0.251661 0.548476 0.122003
C14   C     C_R   0.832189 0.111970 0.648190 -0.223475
H6    H     H_    0.915116 0.174477 0.672789 0.156263
C15   C     C_R   0.823711 0.993028 0.696996 -0.081811
C16   C     C_R   0.714331 0.912184 0.661653 0.315176
C17   C     C_R   0.613770 0.952615 0.575137 -0.043884
C18   C     C_R   0.618293 0.079741 0.547052 0.051982
C19   C     C_R   0.511066 0.129348 0.487240 -0.143344
C20   C     C_R   0.409838 0.054352 0.429067 0.249209
C21   C     C_R   0.408720 0.926422 0.439739 -0.098510
C22   C     C_R   0.509330 0.874777 0.513572 -0.126909
H7    H     H_    0.683044 0.588151 0.136570 0.185681
C23   C     C_R   0.292390 0.386286 0.123586 -0.174175
H8    H     H_    0.300384 0.355953 0.223282 0.248403
C24   C     C_R   0.178500 0.355320 0.048559 0.299871
C25   C     C_R   0.179246 0.359918 0.909711 -0.363687
H9    H     H_    0.097898 0.317950 0.850708 0.203908
C26   C     C_R   0.296382 0.373215 0.849852 0.297432
C27   C     C_R   0.397709 0.443396 0.921401 0.060163
C28   C     C_R   0.397103 0.445788 0.065029 0.076762
N1    N     N_R   0.498800 0.498800 0.142780 -0.117238
C29   C     C_R   0.600584 0.548172 0.078264 -0.037874
H10   H     H_    0.685547 0.581582 0.889477 0.210716
C30   C     C_R   0.601154 0.546448 0.935922 0.012507
N2    N     N_R   0.498760 0.498720 0.857170 -0.123893
C31   C     C_2   0.929390 0.961374 0.790365 0.527101
H11   H     H_    0.022855 0.008560 0.784291 0.105626
O9    O     O_2   0.913010 0.888640 0.878989 -0.473318
N3    N     N_R   0.697859 0.800777 0.731659 0.208470
O10   O     O_R   0.622840 0.801264 0.832160 -0.341615
O11   O     O_R   0.782352 0.717059 0.722324 -0.457465
C32   C     C_2   0.299541 0.849912 0.372607 0.525813
H12   H     H_    0.258128 0.876432 0.277682 0.122347
O12   O     O_2   0.251275 0.760076 0.425071 -0.590095
N4    N     N_R   0.067903 0.303358 0.110058 0.216671
O13   O     O_R   0.079246 0.249552 0.223188 -0.335175
O14   O     O_R   0.956176 0.301500 0.048799 -0.409284
N5    N     N_R   0.324750 0.266536 0.767437 0.241274
O15   O     O_R   0.243712 0.223399 0.672550 -0.427499
O16   O     O_R   0.408733 0.192209 0.812454 -0.331474
C33   C     C_2   0.109292 0.668212 0.709506 0.491658
H13   H     H_    0.098853 0.642934 0.812432 0.081485
O17   O     O_2   0.169672 0.764528 0.686610 -0.520443
C34   C     C_2   0.923229 0.747901 0.455356 0.465357
H14   H     H_    0.966979 0.828061 0.513555 0.105729
O18   O     O_2   0.842597 0.763341 0.367457 -0.566161
N6    N     N_R   0.307216 0.108561 0.358504 0.184366
O19   O     O_R   0.195810 0.108115 0.410683 -0.341393
O20   O     O_R   0.315459 0.121576 0.230367 -0.372060

loop_
_geom_bond_atom_site_label_1
_geom_bond_atom_site_label_2
_geom_bond_distance
_ccdc_geom_bond_type
C23   C28   1.405055 A    
C13   C14   1.379331 A    
C7    C10   1.529588 S    
C4    C7    1.416004 S    
C8    C34   1.497418 S    
C8    C9    1.541669 S    
C26   C27   1.418407 A    
C5    C8    1.532642 S    
C14   H6    1.083303 S    
N6    O20   1.300367 A    
C20   C21   1.380668 A    
C21   C22   1.418593 A    
Zn1   N2    2.039609 S    
C7    C8    1.523834 S    
O4    C2    1.294657 A    
O7    C4    1.290797 A    
C2    C12   1.424498 S    
C5    C6    1.540904 S    
C27   N2    1.384460 A    
N3    O10   1.300931 A    
C18   C19   1.398021 A    
O5    C3    1.291574 A    
N4    O14   1.301743 A    
C28   N1    1.376423 A    
C33   H13   1.084656 S    
N5    O16   1.302931 A    
C24   N4    1.435671 S    
C5    C12   1.532016 S    
C32   H12   1.085188 S    
C10   C11   1.542314 S    
O3    Zn1   1.978670 S    
C17   C18   1.404147 A    
C31   O9    1.220155 D    
C13   C18   1.409635 A    
C32   O12   1.216277 D    
N6    O19   1.300588 A    
C30   N2    1.368736 A    
C9    H2    1.110439 S    
O3    C2    1.284915 A    
C34   O18   1.219964 D    
C6    H1    1.110452 S    
C29   C30   1.421399 A    
C31   H11   1.086163 S    
O1    C1    1.298973 A    
C19   C20   1.389041 A    
Zn1   O7    2.008292 S    
C25   H9    1.083375 S    
Zn2   N1    2.037747 S    
N4    O13   1.298740 A    
C15   C16   1.424333 A    
C9    C12   1.534080 S    
C1    C19   1.421055 S    
Zn2   O8    1.978671 S    
H10   C30   1.076396 S    
C15   C31   1.486832 S    
C25   C26   1.393718 A    
C3    C22   1.441439 S    
C21   C32   1.491065 S    
C20   N6    1.431014 S    
Zn2   O6    1.982900 S    
C23   H8    1.064750 S    
H7    C29   1.081602 S    
O8    C4    1.284730 A    
C26   N5    1.427031 S    
C24   C25   1.390730 A    
Zn1   O5    2.020869 S    
C10   H3    1.109541 S    
C27   C28   1.434010 A    
N1    C29   1.366999 A    
C6    C11   1.545853 S    
O1    Zn1   1.982900 S    
O2    Zn2   2.020869 S    
O6    C3    1.309159 A    
O4    Zn2   2.008292 S    
C17   C22   1.441282 A    
C16   C17   1.438033 A    
O2    C1    1.285380 A    
C34   H14   1.083746 S    
C14   C15   1.387813 A    
C5    C33   1.500229 S    
C23   C24   1.402662 A    
N3    O11   1.299056 A    
C9    C10   1.546900 S    
C6    C7    1.528313 S    
N5    O15   1.299368 A    
C11   H4    1.105192 S    
C13   H5    1.079537 S    
C33   O17   1.219276 D    
C11   C12   1.531949 S    
C16   N3    1.420379 S    
